TITL C-2847948-6138-202 -0.000223404398431859 125000 -384.659797960978 0 0 73 (C1) n - 1
REM
REM in /home/bkarasulu/work/CARBON/AIRSS/Generating-Clusters/AIREBO/with-SteepDescent/Only-C1/SD-CG-opt/Try1-1.4A-POS3A/HFTN-CG
REM
REM
REM
REM
REM
REM ./C.cell (11c1c37f851c82e70ff6c80c92926a4b)
REM
REM compiler GCC version 9.2.1 20190827 (Red Hat 9.2.1-1)
REM options -cpp -mtune=generic -march=x86-64 -g -O0 -fpre-include=/usr/include/finclude/math-vector-fortran.h
REM seed 1122648898 103985677 126028896 1390298419 464335146 1429015175 -909192695 -1663165073 -636798998 1645029813 632885294 663052473 -105539632 754762309 -1004654907 -341918585 -1091127683 -810303309 -1237374848 -1789667573 2024551647 -1187279236 -239278486 816566045 1926485659 882022866 1328654002 -1093577042 -408892321 1496664310 1395085325 -1481666995 -1451681017
REM
CELL 1.54180   50.00000   50.00000   50.00000   90.00000   90.00000   90.00000
LATT -1
SFAC C  
C      1  0.5676730000000  0.5277150000000  0.4515730000000 1.0
C      1  0.5628730000000  0.4658330000000  0.5320970000000 1.0
C      1  0.4717820000000  0.5466030000000  0.4862820000000 1.0
C      1  0.5394670000000  0.4499840000000  0.5428660000000 1.0
C      1  0.4728330000000  0.5660470000000  0.5439950000000 1.0
C      1  0.4951900000000  0.4844340000000  0.5741610000000 1.0
C      1  0.5364600000000  0.4273030000000  0.4806120000000 1.0
C      1  0.5403870000000  0.5228460000000  0.5720760000000 1.0
C      1  0.4503910000000  0.5142620000000  0.4262630000000 1.0
C      1  0.5477210000000  0.5462040000000  0.4583360000000 1.0
C      1  0.4917380000000  0.4551610000000  0.5784850000000 1.0
C      1  0.5185200000000  0.4982180000000  0.5332500000000 1.0
C      1  0.5533630000000  0.4730530000000  0.4687980000000 1.0
C      1  0.4808070000000  0.4561920000000  0.5309110000000 1.0
C      1  0.5213290000000  0.4757680000000  0.4577190000000 1.0
C      1  0.5573310000000  0.4450110000000  0.4818830000000 1.0
C      1  0.5071520000000  0.4898840000000  0.5024090000000 1.0
C      1  0.4625690000000  0.4471020000000  0.4631310000000 1.0
C      1  0.4681530000000  0.5591130000000  0.4484970000000 1.0
C      1  0.4500260000000  0.5437830000000  0.5463720000000 1.0
C      1  0.4992810000000  0.5420450000000  0.4668090000000 1.0
C      1  0.4764450000000  0.4855720000000  0.4891640000000 1.0
C      1  0.5193940000000  0.5047260000000  0.4754370000000 1.0
C      1  0.5174410000000  0.4346170000000  0.5348930000000 1.0
C      1  0.4610570000000  0.5191650000000  0.5136480000000 1.0
C      1  0.5281220000000  0.4241310000000  0.4535840000000 1.0
C      1  0.5473600000000  0.4894340000000  0.5174910000000 1.0
C      1  0.5186250000000  0.5572820000000  0.5343260000000 1.0
C      1  0.4971530000000  0.4622830000000  0.4755150000000 1.0
C      1  0.4566000000000  0.4665810000000  0.5092200000000 1.0
C      1  0.5380500000000  0.5535110000000  0.4874900000000 1.0
C      1  0.4437260000000  0.5503100000000  0.4955360000000 1.0
C      1  0.4306210000000  0.5091310000000  0.4708600000000 1.0
C      1  0.5004140000000  0.4583180000000  0.5076120000000 1.0
C      1  0.4741840000000  0.4607950000000  0.4407240000000 1.0
C      1  0.5146660000000  0.5274060000000  0.5502990000000 1.0
C      1  0.5235960000000  0.5437160000000  0.4448700000000 1.0
C      1  0.5732360000000  0.4893830000000  0.5479650000000 1.0
C      1  0.5620850000000  0.4961350000000  0.4904010000000 1.0
C      1  0.4814400000000  0.5332080000000  0.5460020000000 1.0
C      1  0.5592830000000  0.5129620000000  0.5474770000000 1.0
C      1  0.4217710000000  0.4774520000000  0.4749960000000 1.0
C      1  0.5521790000000  0.5230780000000  0.5178880000000 1.0
C      1  0.4893650000000  0.5727290000000  0.4965990000000 1.0
C      1  0.4944810000000  0.5250680000000  0.5159990000000 1.0
C      1  0.5327400000000  0.4769120000000  0.5556140000000 1.0
C      1  0.4885910000000  0.4862400000000  0.5440760000000 1.0
C      1  0.4615540000000  0.5147940000000  0.4799180000000 1.0
C      1  0.5405120000000  0.5612600000000  0.5184840000000 1.0
C      1  0.5139740000000  0.4290990000000  0.5013760000000 1.0
C      1  0.5228410000000  0.5264520000000  0.5010090000000 1.0
C      1  0.5681340000000  0.5020250000000  0.4587810000000 1.0
C      1  0.4952890000000  0.5710940000000  0.5263510000000 1.0
C      1  0.4463600000000  0.4342120000000  0.5111100000000 1.0
C      1  0.5146290000000  0.5722400000000  0.4741410000000 1.0
C      1  0.5159940000000  0.5258310000000  0.4227390000000 1.0
C      1  0.5090780000000  0.5093620000000  0.5785840000000 1.0
C      1  0.4618510000000  0.4928110000000  0.5289650000000 1.0
C      1  0.5804440000000  0.5232990000000  0.4995640000000 1.0
C      1  0.4925450000000  0.4806610000000  0.4402900000000 1.0
C      1  0.4601250000000  0.4182620000000  0.4967660000000 1.0
C      1  0.4675490000000  0.5261140000000  0.4484120000000 1.0
C      1  0.4988130000000  0.5127930000000  0.4494710000000 1.0
C      1  0.4940990000000  0.4396820000000  0.5537070000000 1.0
C      1  0.5439930000000  0.4901720000000  0.5765040000000 1.0
C      1  0.4143620000000  0.4989040000000  0.4972120000000 1.0
C      1  0.4432540000000  0.4604760000000  0.4786750000000 1.0
C      1  0.4091960000000  0.5169310000000  0.5161910000000 1.0
C      1  0.4822230000000  0.5778550000000  0.4637510000000 1.0
C      1  0.4333840000000  0.5354460000000  0.5219470000000 1.0
C      1  0.5262130000000  0.4478320000000  0.4389590000000 1.0
C      1  0.4203730000000  0.5245930000000  0.4503970000000 1.0
C      1  0.4855380000000  0.4310930000000  0.4824840000000 1.0
END
