TITL C-2847952-8118-337 -0.00793280471484746 125000 -844.278457620144 0 0 159 (C1) n - 1
REM
REM in /home/bkarasulu/work/CARBON/AIRSS/Generating-Clusters/AIREBO/with-SteepDescent/Only-C1/SD-CG-opt/Try1-1.4A-POS3A/HFTN-CG
REM
REM
REM
REM
REM
REM ./C.cell (11c1c37f851c82e70ff6c80c92926a4b)
REM
REM compiler GCC version 9.2.1 20190827 (Red Hat 9.2.1-1)
REM options -cpp -mtune=generic -march=x86-64 -g -O0 -fpre-include=/usr/include/finclude/math-vector-fortran.h
REM seed 1746098397 383066532 1818862135 1438412379 -760622798 -525215568 -250626088 -1561396400 -2091932166 -638698467 195651341 400412074 -1364721288 128139668 1800715 924969243 277828816 1674932129 167840958 57491303 1567815115 -1598612316 1213058781 1656850630 -2026784673 -1775347898 1719504240 -1205824886 1553168154 -343063867 -1510318949 1345832198 -1781180693
REM
CELL 1.54180   50.00000   50.00000   50.00000   90.00000   90.00000   90.00000
LATT -1
SFAC C  
C      1  0.5180100000000  0.5964480000000  0.5068650000000 1.0
C      1  0.5670180000000  0.4361200000000  0.4621810000000 1.0
C      1  0.4664450000000  0.4769090000000  0.4998910000000 1.0
C      1  0.4903180000000  0.4734930000000  0.4620650000000 1.0
C      1  0.4325980000000  0.5661880000000  0.5332400000000 1.0
C      1  0.4815790000000  0.4186650000000  0.4445140000000 1.0
C      1  0.5417550000000  0.4992740000000  0.5157990000000 1.0
C      1  0.4798350000000  0.4008390000000  0.5227060000000 1.0
C      1  0.3984150000000  0.4878380000000  0.4746380000000 1.0
C      1  0.4859660000000  0.5724320000000  0.5873560000000 1.0
C      1  0.4521770000000  0.5037110000000  0.5152250000000 1.0
C      1  0.5270070000000  0.3504850000000  0.4852750000000 1.0
C      1  0.4104400000000  0.5202990000000  0.4416860000000 1.0
C      1  0.4234920000000  0.5827940000000  0.4981090000000 1.0
C      1  0.4345720000000  0.4307540000000  0.5005210000000 1.0
C      1  0.5130550000000  0.5244940000000  0.3955890000000 1.0
C      1  0.4535780000000  0.5783010000000  0.4834460000000 1.0
C      1  0.5613240000000  0.5013040000000  0.5697070000000 1.0
C      1  0.4446950000000  0.4909830000000  0.4782120000000 1.0
C      1  0.5354230000000  0.5427390000000  0.4442690000000 1.0
C      1  0.5841520000000  0.4642110000000  0.4711010000000 1.0
C      1  0.5363130000000  0.4491180000000  0.4689080000000 1.0
C      1  0.5043540000000  0.4840210000000  0.4359350000000 1.0
C      1  0.4897410000000  0.4989710000000  0.6036590000000 1.0
C      1  0.5354110000000  0.5254320000000  0.4186660000000 1.0
C      1  0.5477300000000  0.5888420000000  0.4486550000000 1.0
C      1  0.4821940000000  0.4469240000000  0.5030710000000 1.0
C      1  0.5025480000000  0.5085500000000  0.5486680000000 1.0
C      1  0.4993770000000  0.5340500000000  0.4805560000000 1.0
C      1  0.4657960000000  0.5515300000000  0.4944270000000 1.0
C      1  0.4651930000000  0.4211210000000  0.5051860000000 1.0
C      1  0.5140340000000  0.5643140000000  0.4754250000000 1.0
C      1  0.5190120000000  0.3757250000000  0.4880180000000 1.0
C      1  0.4439700000000  0.5462910000000  0.5845890000000 1.0
C      1  0.4395150000000  0.4864260000000  0.4121680000000 1.0
C      1  0.5013570000000  0.4985380000000  0.3937650000000 1.0
C      1  0.4755740000000  0.5586990000000  0.4389320000000 1.0
C      1  0.4628780000000  0.5834580000000  0.4537910000000 1.0
C      1  0.5501180000000  0.5538060000000  0.5811530000000 1.0
C      1  0.4907400000000  0.4953930000000  0.4846090000000 1.0
C      1  0.5214080000000  0.5034270000000  0.5988190000000 1.0
C      1  0.4297210000000  0.5227420000000  0.5806060000000 1.0
C      1  0.5575640000000  0.4389830000000  0.5013690000000 1.0
C      1  0.5697570000000  0.5403000000000  0.5675620000000 1.0
C      1  0.5204700000000  0.4440740000000  0.5895580000000 1.0
C      1  0.5165150000000  0.5782900000000  0.5495690000000 1.0
C      1  0.5282090000000  0.5952250000000  0.4755150000000 1.0
C      1  0.4585160000000  0.5201730000000  0.4123610000000 1.0
C      1  0.5666820000000  0.5566730000000  0.4751980000000 1.0
C      1  0.5082540000000  0.5746170000000  0.6037610000000 1.0
C      1  0.5028750000000  0.5341450000000  0.5261800000000 1.0
C      1  0.4149740000000  0.4484300000000  0.5220560000000 1.0
C      1  0.5245940000000  0.4845530000000  0.5388260000000 1.0
C      1  0.5012520000000  0.4828720000000  0.5710600000000 1.0
C      1  0.4836230000000  0.4576490000000  0.5565920000000 1.0
C      1  0.3998450000000  0.5163730000000  0.4683310000000 1.0
C      1  0.5517730000000  0.5056260000000  0.5965850000000 1.0
C      1  0.4517110000000  0.5885570000000  0.5161970000000 1.0
C      1  0.5560730000000  0.4684310000000  0.5154310000000 1.0
C      1  0.5916170000000  0.4514510000000  0.5089790000000 1.0
C      1  0.5823800000000  0.5109400000000  0.4674620000000 1.0
C      1  0.4787760000000  0.4929080000000  0.4153020000000 1.0
C      1  0.4708810000000  0.5466730000000  0.4096340000000 1.0
C      1  0.4123360000000  0.5548520000000  0.5106290000000 1.0
C      1  0.5593100000000  0.5967020000000  0.4892110000000 1.0
C      1  0.4160610000000  0.4743390000000  0.4559060000000 1.0
C      1  0.5815310000000  0.4694960000000  0.5357070000000 1.0
C      1  0.5910250000000  0.5175870000000  0.4997030000000 1.0
C      1  0.4543830000000  0.5140950000000  0.4603820000000 1.0
C      1  0.4830160000000  0.4421250000000  0.4196590000000 1.0
C      1  0.4274600000000  0.4272560000000  0.4699030000000 1.0
C      1  0.5070290000000  0.5236600000000  0.5782030000000 1.0
C      1  0.5356650000000  0.5702730000000  0.6023640000000 1.0
C      1  0.5079220000000  0.5572220000000  0.4425550000000 1.0
C      1  0.5045940000000  0.6126790000000  0.4615640000000 1.0
C      1  0.4014430000000  0.4750380000000  0.5359370000000 1.0
C      1  0.4461030000000  0.4294860000000  0.5821830000000 1.0
C      1  0.5110070000000  0.4269020000000  0.5638590000000 1.0
C      1  0.4720570000000  0.5201730000000  0.4957180000000 1.0
C      1  0.4562360000000  0.5704230000000  0.5762840000000 1.0
C      1  0.4377420000000  0.5606960000000  0.4512180000000 1.0
C      1  0.5588170000000  0.5149960000000  0.5386840000000 1.0
C      1  0.4647950000000  0.5714760000000  0.5428610000000 1.0
C      1  0.5859500000000  0.4641250000000  0.4408860000000 1.0
C      1  0.5532690000000  0.5081250000000  0.4848090000000 1.0
C      1  0.5644820000000  0.5792680000000  0.5111750000000 1.0
C      1  0.5540090000000  0.4741920000000  0.4828000000000 1.0
C      1  0.5295290000000  0.4745090000000  0.5851270000000 1.0
C      1  0.5635750000000  0.5084450000000  0.4170850000000 1.0
C      1  0.5281710000000  0.5223700000000  0.4668160000000 1.0
C      1  0.5131780000000  0.5128450000000  0.5032800000000 1.0
C      1  0.4915260000000  0.4617770000000  0.5954730000000 1.0
C      1  0.5355880000000  0.5771410000000  0.5250120000000 1.0
C      1  0.5787710000000  0.5488150000000  0.5061300000000 1.0
C      1  0.4339880000000  0.5356210000000  0.4301490000000 1.0
C      1  0.4092200000000  0.5003000000000  0.5547040000000 1.0
C      1  0.5229180000000  0.5532620000000  0.5064510000000 1.0
C      1  0.5896360000000  0.5146000000000  0.5572860000000 1.0
C      1  0.4002700000000  0.5231770000000  0.5706340000000 1.0
C      1  0.4227660000000  0.4418790000000  0.5752880000000 1.0
C      1  0.5272990000000  0.4589410000000  0.4375500000000 1.0
C      1  0.4823360000000  0.6069340000000  0.4521130000000 1.0
C      1  0.4650810000000  0.4817510000000  0.5877970000000 1.0
C      1  0.5060460000000  0.5176970000000  0.4340400000000 1.0
C      1  0.4602630000000  0.4210160000000  0.4715360000000 1.0
C      1  0.5761460000000  0.4507390000000  0.5635960000000 1.0
C      1  0.4914120000000  0.5912080000000  0.5505860000000 1.0
C      1  0.5081760000000  0.4040620000000  0.4509370000000 1.0
C      1  0.5640700000000  0.4397210000000  0.4133760000000 1.0
C      1  0.4011950000000  0.4825180000000  0.5052340000000 1.0
C      1  0.4431120000000  0.5394340000000  0.4741070000000 1.0
C      1  0.5545060000000  0.4413980000000  0.5878260000000 1.0
C      1  0.5531960000000  0.4727610000000  0.5635540000000 1.0
C      1  0.4822280000000  0.5285100000000  0.4522640000000 1.0
C      1  0.4183620000000  0.5829190000000  0.4653460000000 1.0
C      1  0.4520470000000  0.4473580000000  0.4375760000000 1.0
C      1  0.4761950000000  0.4481120000000  0.4585720000000 1.0
C      1  0.5567340000000  0.4697790000000  0.4244200000000 1.0
C      1  0.5304930000000  0.4945160000000  0.4550050000000 1.0
C      1  0.5024730000000  0.4471520000000  0.5304870000000 1.0
C      1  0.5078260000000  0.4592820000000  0.4844520000000 1.0
C      1  0.5175640000000  0.4729640000000  0.3919220000000 1.0
C      1  0.4636720000000  0.5371930000000  0.5436850000000 1.0
C      1  0.4687050000000  0.4426410000000  0.5803170000000 1.0
C      1  0.4875180000000  0.5526300000000  0.5597570000000 1.0
C      1  0.4325730000000  0.4970440000000  0.4406150000000 1.0
C      1  0.5096910000000  0.4526270000000  0.4117960000000 1.0
C      1  0.4837260000000  0.5594110000000  0.5173060000000 1.0
C      1  0.4741140000000  0.5125260000000  0.5764980000000 1.0
C      1  0.5786440000000  0.4127580000000  0.4798040000000 1.0
C      1  0.5479810000000  0.5388090000000  0.4972710000000 1.0
C      1  0.5198390000000  0.5539960000000  0.5695720000000 1.0
C      1  0.4223140000000  0.4638410000000  0.5603360000000 1.0
C      1  0.4400130000000  0.4928910000000  0.5670930000000 1.0
C      1  0.5009080000000  0.5488890000000  0.4097850000000 1.0
C      1  0.4601870000000  0.4646540000000  0.4116650000000 1.0
C      1  0.5093760000000  0.4744020000000  0.5124230000000 1.0
C      1  0.5009180000000  0.4098830000000  0.5445660000000 1.0
C      1  0.5686530000000  0.4240210000000  0.4328560000000 1.0
C      1  0.5962210000000  0.4994050000000  0.5279790000000 1.0
C      1  0.4163440000000  0.5328880000000  0.4904530000000 1.0
C      1  0.5286520000000  0.4532360000000  0.5514330000000 1.0
C      1  0.4398190000000  0.4616160000000  0.5111560000000 1.0
C      1  0.5004850000000  0.3878850000000  0.5052940000000 1.0
C      1  0.5892990000000  0.4830750000000  0.4989630000000 1.0
C      1  0.5326390000000  0.4229980000000  0.4903730000000 1.0
C      1  0.4241030000000  0.5039390000000  0.5005350000000 1.0
C      1  0.5250520000000  0.3990070000000  0.4716500000000 1.0
C      1  0.5840960000000  0.4212220000000  0.5067620000000 1.0
C      1  0.4851220000000  0.4829000000000  0.5347050000000 1.0
C      1  0.5140680000000  0.4193090000000  0.5147650000000 1.0
C      1  0.5601790000000  0.4939690000000  0.4480620000000 1.0
C      1  0.5890050000000  0.5186670000000  0.4372240000000 1.0
C      1  0.4628990000000  0.5053160000000  0.5452120000000 1.0
C      1  0.4257640000000  0.4490750000000  0.4511890000000 1.0
C      1  0.5394500000000  0.4890400000000  0.4030330000000 1.0
C      1  0.4915720000000  0.5901780000000  0.5107860000000 1.0
C      1  0.5562470000000  0.5628220000000  0.4509730000000 1.0
C      1  0.5728330000000  0.5439380000000  0.5366500000000 1.0
END
