TITL C-2847953-8112-730 0.00278418034135289 125000 -464.243831112068 0 0 85 (C1) n - 1
REM
REM in /home/bkarasulu/work/CARBON/AIRSS/Generating-Clusters/AIREBO/with-SteepDescent/Only-C1/SD-CG-opt/Try1-1.4A-POS3A/HFTN-CG
REM
REM
REM
REM
REM
REM ./C.cell (11c1c37f851c82e70ff6c80c92926a4b)
REM
REM compiler GCC version 9.2.1 20190827 (Red Hat 9.2.1-1)
REM options -cpp -mtune=generic -march=x86-64 -g -O0 -fpre-include=/usr/include/finclude/math-vector-fortran.h
REM seed 117492783 360734796 1277726557 -684042821 -1007268232 990333859 1715709962 -2018330275 -148892720 555115428 1355427401 -1346696235 -1781425081 -1326769664 -1921424520 -30635297 1516567809 877213628 -2060305711 1253770639 -1419827271 1947279385 -1582566409 -242818528 -1523123296 1344999575 -1619704495 1543785118 1845479636 -1870732739 -269244704 1409417087 -740158583
REM
CELL 1.54180   50.00000   50.00000   50.00000   90.00000   90.00000   90.00000
LATT -1
SFAC C  
C      1  0.4788470000000  0.4370190000000  0.5255480000000 1.0
C      1  0.5640530000000  0.5641280000000  0.5376220000000 1.0
C      1  0.5634940000000  0.4449680000000  0.4931030000000 1.0
C      1  0.5489880000000  0.4822230000000  0.5509950000000 1.0
C      1  0.4538150000000  0.4583730000000  0.4444040000000 1.0
C      1  0.4281450000000  0.4770720000000  0.5275100000000 1.0
C      1  0.5404440000000  0.4469440000000  0.5344280000000 1.0
C      1  0.5113330000000  0.4555970000000  0.5773940000000 1.0
C      1  0.5308020000000  0.5619590000000  0.5372210000000 1.0
C      1  0.5065320000000  0.5168200000000  0.5333480000000 1.0
C      1  0.4933240000000  0.5447760000000  0.4609180000000 1.0
C      1  0.4472740000000  0.5199860000000  0.4514150000000 1.0
C      1  0.4960030000000  0.4715640000000  0.4226220000000 1.0
C      1  0.5615270000000  0.5034040000000  0.4827360000000 1.0
C      1  0.4958160000000  0.5822930000000  0.5037890000000 1.0
C      1  0.4521020000000  0.5220430000000  0.5524670000000 1.0
C      1  0.4038720000000  0.5182650000000  0.5178820000000 1.0
C      1  0.4100240000000  0.4991680000000  0.5370160000000 1.0
C      1  0.4677890000000  0.4761540000000  0.4282180000000 1.0
C      1  0.4755300000000  0.5693820000000  0.5282740000000 1.0
C      1  0.5251530000000  0.4954050000000  0.4686380000000 1.0
C      1  0.4599600000000  0.4448700000000  0.5457160000000 1.0
C      1  0.4768880000000  0.4975260000000  0.4737540000000 1.0
C      1  0.5052570000000  0.3904310000000  0.5037820000000 1.0
C      1  0.4212650000000  0.4869140000000  0.4757600000000 1.0
C      1  0.5828640000000  0.4860000000000  0.5509390000000 1.0
C      1  0.5100530000000  0.4860390000000  0.5083410000000 1.0
C      1  0.5614280000000  0.5531720000000  0.5063260000000 1.0
C      1  0.4338080000000  0.5004130000000  0.5590660000000 1.0
C      1  0.4891170000000  0.5186000000000  0.4206640000000 1.0
C      1  0.5907440000000  0.4960160000000  0.4667130000000 1.0
C      1  0.4452640000000  0.4834320000000  0.5073870000000 1.0
C      1  0.5007620000000  0.5170830000000  0.4714780000000 1.0
C      1  0.5174670000000  0.4789380000000  0.5386700000000 1.0
C      1  0.5396880000000  0.5256510000000  0.4689980000000 1.0
C      1  0.5501890000000  0.5371800000000  0.5509060000000 1.0
C      1  0.4539490000000  0.5498620000000  0.5462000000000 1.0
C      1  0.5355050000000  0.5235420000000  0.5738270000000 1.0
C      1  0.5036300000000  0.5915590000000  0.4792520000000 1.0
C      1  0.5580500000000  0.4599830000000  0.5162480000000 1.0
C      1  0.5637060000000  0.5112150000000  0.5410460000000 1.0
C      1  0.4994130000000  0.4054390000000  0.4552210000000 1.0
C      1  0.5658440000000  0.4777880000000  0.4607970000000 1.0
C      1  0.5603340000000  0.4912130000000  0.5137460000000 1.0
C      1  0.4320310000000  0.4634420000000  0.4662850000000 1.0
C      1  0.4610280000000  0.4487660000000  0.4763350000000 1.0
C      1  0.5417660000000  0.5251390000000  0.5989810000000 1.0
C      1  0.5453850000000  0.4726390000000  0.4428590000000 1.0
C      1  0.5078620000000  0.4970990000000  0.4182920000000 1.0
C      1  0.5174780000000  0.5046230000000  0.5609860000000 1.0
C      1  0.4088880000000  0.5122710000000  0.4871580000000 1.0
C      1  0.4420670000000  0.4661900000000  0.5511830000000 1.0
C      1  0.4873450000000  0.4697740000000  0.5742120000000 1.0
C      1  0.5047830000000  0.5774400000000  0.5419800000000 1.0
C      1  0.4565660000000  0.5656350000000  0.4870020000000 1.0
C      1  0.4278410000000  0.5362820000000  0.5028340000000 1.0
C      1  0.4975680000000  0.4121310000000  0.4878060000000 1.0
C      1  0.4442050000000  0.5626080000000  0.5168810000000 1.0
C      1  0.4764090000000  0.4843570000000  0.5113670000000 1.0
C      1  0.4726820000000  0.4285980000000  0.4978880000000 1.0
C      1  0.5093130000000  0.4492650000000  0.5240260000000 1.0
C      1  0.4594030000000  0.5268180000000  0.5076370000000 1.0
C      1  0.5302470000000  0.5487990000000  0.4466950000000 1.0
C      1  0.5856580000000  0.5726610000000  0.5125940000000 1.0
C      1  0.5118290000000  0.5547020000000  0.5099500000000 1.0
C      1  0.5109500000000  0.5727670000000  0.4611680000000 1.0
C      1  0.5201970000000  0.4300680000000  0.4604040000000 1.0
C      1  0.4480700000000  0.5066540000000  0.4827020000000 1.0
C      1  0.5377710000000  0.5372530000000  0.4989700000000 1.0
C      1  0.5487750000000  0.4310350000000  0.4751880000000 1.0
C      1  0.4974660000000  0.5166210000000  0.5021100000000 1.0
C      1  0.4835640000000  0.5459060000000  0.4931950000000 1.0
C      1  0.5319460000000  0.5002790000000  0.4356530000000 1.0
C      1  0.5162520000000  0.4552740000000  0.4403770000000 1.0
C      1  0.5475170000000  0.5266110000000  0.4299290000000 1.0
C      1  0.4633070000000  0.5066250000000  0.4310670000000 1.0
C      1  0.5140200000000  0.4416110000000  0.4918910000000 1.0
C      1  0.4734910000000  0.5087960000000  0.5330070000000 1.0
C      1  0.4838700000000  0.4691080000000  0.4829470000000 1.0
C      1  0.4872920000000  0.4934200000000  0.5603250000000 1.0
C      1  0.5341740000000  0.5092620000000  0.5142980000000 1.0
C      1  0.4517140000000  0.5438950000000  0.4691170000000 1.0
C      1  0.5124430000000  0.4677690000000  0.4701740000000 1.0
C      1  0.5006960000000  0.5430750000000  0.4302670000000 1.0
C      1  0.5360780000000  0.4543210000000  0.5638730000000 1.0
END
