TITL C-2848497-6229-592 0.000168740801234095 125000 -492.465513470778 0 0 91 (C1) n - 1
REM
REM in /home/bkarasulu/work/CARBON/AIRSS/Generating-Clusters/AIREBO/with-SteepDescent/Only-C1/SD-CG-opt/Try1-1.4A-POS3A/HFTN-CG
REM
REM
REM
REM
REM
REM ./C.cell (11c1c37f851c82e70ff6c80c92926a4b)
REM
REM compiler GCC version 9.2.1 20190827 (Red Hat 9.2.1-1)
REM options -cpp -mtune=generic -march=x86-64 -g -O0 -fpre-include=/usr/include/finclude/math-vector-fortran.h
REM seed -1052456810 -1063914347 706220545 1903857801 55942530 171099455 511315057 -1748636239 841998890 -4188672 461746038 650713560 17878464 -1415823315 2101842807 1861035620 -702184050 -40511381 -1941327215 238386142 1801309705 -1354336310 2052428998 1910444409 -1368120494 -2019353629 143606298 -411424131 -1309921370 -1478619939 -1506617981 685498337 1398834040
REM
CELL 1.54180   50.00000   50.00000   50.00000   90.00000   90.00000   90.00000
LATT -1
SFAC C  
C      1  0.5676810000000  0.5133990000000  0.5566400000000 1.0
C      1  0.5247070000000  0.5033090000000  0.4470280000000 1.0
C      1  0.5271050000000  0.5666270000000  0.5697730000000 1.0
C      1  0.4946580000000  0.4489900000000  0.5603070000000 1.0
C      1  0.4493020000000  0.5104640000000  0.4312000000000 1.0
C      1  0.4496820000000  0.4758310000000  0.5790390000000 1.0
C      1  0.4222060000000  0.4908010000000  0.5384170000000 1.0
C      1  0.5508570000000  0.5222150000000  0.4391450000000 1.0
C      1  0.4996100000000  0.4830270000000  0.4536620000000 1.0
C      1  0.5741930000000  0.5076810000000  0.4525840000000 1.0
C      1  0.4807720000000  0.5172230000000  0.5189580000000 1.0
C      1  0.5825430000000  0.4876650000000  0.5471840000000 1.0
C      1  0.5011330000000  0.5570830000000  0.4746650000000 1.0
C      1  0.5191290000000  0.5873240000000  0.5574430000000 1.0
C      1  0.4575590000000  0.4652120000000  0.4559780000000 1.0
C      1  0.4495380000000  0.4325690000000  0.4616820000000 1.0
C      1  0.5547950000000  0.4409150000000  0.4801810000000 1.0
C      1  0.5665450000000  0.4914370000000  0.4732780000000 1.0
C      1  0.5847440000000  0.4548510000000  0.5132060000000 1.0
C      1  0.4889340000000  0.5469970000000  0.5614030000000 1.0
C      1  0.4919990000000  0.4336140000000  0.5346010000000 1.0
C      1  0.4378760000000  0.4905970000000  0.4532800000000 1.0
C      1  0.5104470000000  0.5835650000000  0.5269810000000 1.0
C      1  0.5275370000000  0.5403050000000  0.5539510000000 1.0
C      1  0.4743330000000  0.5712910000000  0.4900560000000 1.0
C      1  0.4900940000000  0.4875570000000  0.4137030000000 1.0
C      1  0.4998200000000  0.5569750000000  0.5086480000000 1.0
C      1  0.4229450000000  0.5150730000000  0.4931040000000 1.0
C      1  0.5203740000000  0.4650810000000  0.5173090000000 1.0
C      1  0.4621290000000  0.5605240000000  0.5211020000000 1.0
C      1  0.4217790000000  0.4642750000000  0.4943780000000 1.0
C      1  0.4827420000000  0.5502380000000  0.4468930000000 1.0
C      1  0.5795190000000  0.4382220000000  0.4920560000000 1.0
C      1  0.4761930000000  0.5248180000000  0.5729020000000 1.0
C      1  0.4826580000000  0.5708290000000  0.5419160000000 1.0
C      1  0.4268140000000  0.4540160000000  0.4649950000000 1.0
C      1  0.5404950000000  0.5456700000000  0.5231020000000 1.0
C      1  0.4490470000000  0.5289160000000  0.4545450000000 1.0
C      1  0.5192850000000  0.4336180000000  0.5178520000000 1.0
C      1  0.5356570000000  0.5737050000000  0.5063430000000 1.0
C      1  0.5416380000000  0.5504820000000  0.4442380000000 1.0
C      1  0.4915010000000  0.5377880000000  0.4225550000000 1.0
C      1  0.4770370000000  0.4685750000000  0.5728820000000 1.0
C      1  0.5242570000000  0.5819970000000  0.4754720000000 1.0
C      1  0.4517580000000  0.5298420000000  0.5314530000000 1.0
C      1  0.5833650000000  0.4845000000000  0.5167330000000 1.0
C      1  0.5215500000000  0.4845830000000  0.4197550000000 1.0
C      1  0.5621020000000  0.5051930000000  0.4999130000000 1.0
C      1  0.4463730000000  0.4468090000000  0.5346910000000 1.0
C      1  0.4668120000000  0.5385870000000  0.4955380000000 1.0
C      1  0.5274260000000  0.4324460000000  0.4866830000000 1.0
C      1  0.4797910000000  0.5239600000000  0.4682700000000 1.0
C      1  0.4073530000000  0.4688340000000  0.5211450000000 1.0
C      1  0.4667100000000  0.4303870000000  0.5160750000000 1.0
C      1  0.4261180000000  0.5154740000000  0.5208110000000 1.0
C      1  0.4920630000000  0.4604360000000  0.4309610000000 1.0
C      1  0.5348890000000  0.5255040000000  0.4968910000000 1.0
C      1  0.4221040000000  0.4918140000000  0.4771570000000 1.0
C      1  0.5421550000000  0.5077860000000  0.4114190000000 1.0
C      1  0.4761420000000  0.5121020000000  0.4174900000000 1.0
C      1  0.5026060000000  0.5376300000000  0.5330070000000 1.0
C      1  0.4533310000000  0.4544660000000  0.4961320000000 1.0
C      1  0.4492360000000  0.4739860000000  0.5374690000000 1.0
C      1  0.5017980000000  0.4340440000000  0.4385410000000 1.0
C      1  0.5366270000000  0.5137240000000  0.5649440000000 1.0
C      1  0.5192550000000  0.5455770000000  0.4190730000000 1.0
C      1  0.4752990000000  0.4903130000000  0.5395220000000 1.0
C      1  0.4927620000000  0.4794070000000  0.5161170000000 1.0
C      1  0.5661030000000  0.5405040000000  0.5384830000000 1.0
C      1  0.5419650000000  0.5531120000000  0.4783210000000 1.0
C      1  0.4618030000000  0.4173380000000  0.4849150000000 1.0
C      1  0.5671630000000  0.4573130000000  0.5409960000000 1.0
C      1  0.5396770000000  0.4762830000000  0.5370970000000 1.0
C      1  0.5139290000000  0.5259030000000  0.4701020000000 1.0
C      1  0.4748480000000  0.4918070000000  0.4683210000000 1.0
C      1  0.5085130000000  0.5050660000000  0.5034690000000 1.0
C      1  0.5431100000000  0.5823590000000  0.4511920000000 1.0
C      1  0.4819970000000  0.4432510000000  0.4816460000000 1.0
C      1  0.4358880000000  0.4978510000000  0.5664200000000 1.0
C      1  0.5102570000000  0.4531020000000  0.4658150000000 1.0
C      1  0.4903360000000  0.4973550000000  0.5675470000000 1.0
C      1  0.5467110000000  0.4689920000000  0.4697150000000 1.0
C      1  0.5323510000000  0.4637640000000  0.4415580000000 1.0
C      1  0.5204630000000  0.4771710000000  0.4875700000000 1.0
C      1  0.4374720000000  0.5352820000000  0.4809280000000 1.0
C      1  0.4502350000000  0.5220680000000  0.5621510000000 1.0
C      1  0.4714330000000  0.4789530000000  0.4952300000000 1.0
C      1  0.5258800000000  0.4605490000000  0.5639010000000 1.0
C      1  0.5504070000000  0.5029430000000  0.5292840000000 1.0
C      1  0.5200300000000  0.4930760000000  0.5676140000000 1.0
C      1  0.5399360000000  0.4372020000000  0.5433000000000 1.0
END
