TITL C-2848496-4490-327 0.00194168950464365 125000 -278.7260055546 0 0 51 (C1) n - 1
REM
REM in /home/bkarasulu/work/CARBON/AIRSS/Generating-Clusters/AIREBO/with-SteepDescent/Only-C1/SD-CG-opt/Try1-1.4A-POS3A/HFTN-CG
REM
REM
REM
REM
REM
REM ./C.cell (11c1c37f851c82e70ff6c80c92926a4b)
REM
REM compiler GCC version 9.2.1 20190827 (Red Hat 9.2.1-1)
REM options -cpp -mtune=generic -march=x86-64 -g -O0 -fpre-include=/usr/include/finclude/math-vector-fortran.h
REM seed -1938253435 -2045880757 965033775 -359783585 -688862914 1214695068 -757258972 -690684673 1229028835 -2079239010 2028680797 670663498 1927227184 -763468906 1913990875 -1690820883 1198606382 -854615829 763658242 1759201863 885694246 1880040287 -1935560414 -1172934707 -659642307 -1844609952 144472889 -1629866221 2055749787 -1571573434 288054547 1522175597 -1493806985
REM
CELL 1.54180   50.00000   50.00000   50.00000   90.00000   90.00000   90.00000
LATT -1
SFAC C  
C      1  0.5169150000000  0.5633990000000  0.4897730000000 1.0
C      1  0.4841760000000  0.4324660000000  0.5231250000000 1.0
C      1  0.5036330000000  0.4959030000000  0.5833210000000 1.0
C      1  0.5162800000000  0.5146110000000  0.4835420000000 1.0
C      1  0.4634750000000  0.5031140000000  0.4246960000000 1.0
C      1  0.4638320000000  0.5580200000000  0.4745590000000 1.0
C      1  0.4579130000000  0.4809790000000  0.5236090000000 1.0
C      1  0.4784480000000  0.4791390000000  0.4638610000000 1.0
C      1  0.5337220000000  0.5310200000000  0.5059400000000 1.0
C      1  0.4421870000000  0.4932870000000  0.4410200000000 1.0
C      1  0.4972660000000  0.4411120000000  0.5454830000000 1.0
C      1  0.5226850000000  0.4874800000000  0.4415580000000 1.0
C      1  0.5580560000000  0.4419810000000  0.4619340000000 1.0
C      1  0.5120980000000  0.5167350000000  0.4498340000000 1.0
C      1  0.5100130000000  0.4901580000000  0.5064770000000 1.0
C      1  0.4947880000000  0.5672400000000  0.4736350000000 1.0
C      1  0.5546770000000  0.5333420000000  0.4720830000000 1.0
C      1  0.5503280000000  0.4991350000000  0.5943130000000 1.0
C      1  0.4367000000000  0.5169700000000  0.4612900000000 1.0
C      1  0.4579460000000  0.5341770000000  0.4929540000000 1.0
C      1  0.5450160000000  0.4676500000000  0.4679670000000 1.0
C      1  0.5306750000000  0.4907170000000  0.5779700000000 1.0
C      1  0.4692550000000  0.4824540000000  0.5530880000000 1.0
C      1  0.5449160000000  0.5192710000000  0.4497530000000 1.0
C      1  0.4736930000000  0.4556190000000  0.5069960000000 1.0
C      1  0.4700700000000  0.5106520000000  0.4632610000000 1.0
C      1  0.4845880000000  0.5159470000000  0.4898400000000 1.0
C      1  0.5533130000000  0.4844600000000  0.4963540000000 1.0
C      1  0.5349310000000  0.4771500000000  0.5547860000000 1.0
C      1  0.5253380000000  0.4493780000000  0.5414270000000 1.0
C      1  0.4845250000000  0.5258050000000  0.4392390000000 1.0
C      1  0.4782900000000  0.5311810000000  0.5643360000000 1.0
C      1  0.4469750000000  0.5022780000000  0.4987280000000 1.0
C      1  0.5468160000000  0.4380770000000  0.5214330000000 1.0
C      1  0.4981250000000  0.5191840000000  0.5188310000000 1.0
C      1  0.4549350000000  0.5447360000000  0.5234760000000 1.0
C      1  0.5106440000000  0.5507940000000  0.5193320000000 1.0
C      1  0.4821910000000  0.5420010000000  0.5361400000000 1.0
C      1  0.4804580000000  0.5550120000000  0.4471120000000 1.0
C      1  0.4333410000000  0.5231620000000  0.5218390000000 1.0
C      1  0.5537400000000  0.4509730000000  0.5005680000000 1.0
C      1  0.4456390000000  0.4806250000000  0.4724750000000 1.0
C      1  0.5102860000000  0.4670320000000  0.4618530000000 1.0
C      1  0.4425140000000  0.4632870000000  0.4989930000000 1.0
C      1  0.5336100000000  0.4781790000000  0.5218300000000 1.0
C      1  0.5434560000000  0.5592290000000  0.4793210000000 1.0
C      1  0.4801280000000  0.4570290000000  0.5614170000000 1.0
C      1  0.4941410000000  0.4697870000000  0.4907250000000 1.0
C      1  0.5579770000000  0.5142040000000  0.4952470000000 1.0
C      1  0.4811890000000  0.5034400000000  0.5679360000000 1.0
C      1  0.5540880000000  0.4904190000000  0.4447190000000 1.0
END
