TITL C-2848497-6229-703 -8.57551121389099e-05 125000 -239.373018450701 0 0 44 (C1) n - 1
REM
REM in /home/bkarasulu/work/CARBON/AIRSS/Generating-Clusters/AIREBO/with-SteepDescent/Only-C1/SD-CG-opt/Try1-1.4A-POS3A/HFTN-CG
REM
REM
REM
REM
REM
REM ./C.cell (11c1c37f851c82e70ff6c80c92926a4b)
REM
REM compiler GCC version 9.2.1 20190827 (Red Hat 9.2.1-1)
REM options -cpp -mtune=generic -march=x86-64 -g -O0 -fpre-include=/usr/include/finclude/math-vector-fortran.h
REM seed 574636367 -1504687225 -469271720 -291727632 606802149 -716858016 1786788321 667528236 1276804066 -439630756 -900579741 1819073137 1449554693 -492100440 789687662 959411830 422638296 -1763948105 960439466 -1552193916 -1415336218 1486888123 93813513 1587291905 1308169960 1783616994 -881266580 -17312020 830659994 -1718204111 -642776822 -282617658 -588262733
REM
CELL 1.54180   50.00000   50.00000   50.00000   90.00000   90.00000   90.00000
LATT -1
SFAC C  
C      1  0.4937560000000  0.5226360000000  0.5403730000000 1.0
C      1  0.5327620000000  0.5583300000000  0.4773670000000 1.0
C      1  0.5282150000000  0.4430920000000  0.5236080000000 1.0
C      1  0.5198140000000  0.6173630000000  0.5215510000000 1.0
C      1  0.4830050000000  0.4503940000000  0.5264170000000 1.0
C      1  0.4746280000000  0.5425160000000  0.4403980000000 1.0
C      1  0.4929590000000  0.5341030000000  0.5658820000000 1.0
C      1  0.4998680000000  0.5445380000000  0.5166300000000 1.0
C      1  0.5271400000000  0.5938550000000  0.5151810000000 1.0
C      1  0.4705140000000  0.5292760000000  0.5169500000000 1.0
C      1  0.5003550000000  0.4939980000000  0.5398410000000 1.0
C      1  0.5379050000000  0.4869020000000  0.5114580000000 1.0
C      1  0.5275080000000  0.4320070000000  0.5487030000000 1.0
C      1  0.4499680000000  0.4680220000000  0.4969790000000 1.0
C      1  0.5278010000000  0.4767990000000  0.4443420000000 1.0
C      1  0.5170680000000  0.5636930000000  0.5063100000000 1.0
C      1  0.4256940000000  0.4766410000000  0.5095660000000 1.0
C      1  0.4549330000000  0.4811010000000  0.5545420000000 1.0
C      1  0.4626000000000  0.5337380000000  0.4619980000000 1.0
C      1  0.5503590000000  0.5756260000000  0.4993950000000 1.0
C      1  0.5766840000000  0.5760920000000  0.5051910000000 1.0
C      1  0.4668290000000  0.5158340000000  0.4888190000000 1.0
C      1  0.5439360000000  0.4330750000000  0.5026040000000 1.0
C      1  0.5118000000000  0.4756270000000  0.4658220000000 1.0
C      1  0.4274130000000  0.4778910000000  0.5381670000000 1.0
C      1  0.4246550000000  0.5241130000000  0.5027230000000 1.0
C      1  0.4371990000000  0.5074600000000  0.5471260000000 1.0
C      1  0.4801220000000  0.4733450000000  0.5450660000000 1.0
C      1  0.4695450000000  0.4866890000000  0.4883230000000 1.0
C      1  0.5715810000000  0.4342450000000  0.5042980000000 1.0
C      1  0.5275130000000  0.5446640000000  0.4275980000000 1.0
C      1  0.5591910000000  0.5001780000000  0.5067760000000 1.0
C      1  0.4372100000000  0.5353760000000  0.4792350000000 1.0
C      1  0.4117000000000  0.4989960000000  0.4989930000000 1.0
C      1  0.5296910000000  0.5527210000000  0.4524430000000 1.0
C      1  0.4415150000000  0.5256010000000  0.5259060000000 1.0
C      1  0.4960880000000  0.4770290000000  0.4883280000000 1.0
C      1  0.5316840000000  0.4215960000000  0.4805330000000 1.0
C      1  0.5202000000000  0.4084980000000  0.4609490000000 1.0
C      1  0.5975660000000  0.4376540000000  0.5047300000000 1.0
C      1  0.4623290000000  0.4449320000000  0.5082680000000 1.0
C      1  0.5569530000000  0.4723110000000  0.4304810000000 1.0
C      1  0.5321560000000  0.4817140000000  0.4124250000000 1.0
C      1  0.5095870000000  0.4697280000000  0.5177020000000 1.0
END
