TITL C-2847959-7740-237 -0.00174446143071336 125000 -712.902877098855 0 0 135 (C1) n - 1
REM
REM in /home/bkarasulu/work/CARBON/AIRSS/Generating-Clusters/AIREBO/with-SteepDescent/Only-C1/SD-CG-opt/Try1-1.4A-POS3A/HFTN-CG
REM
REM
REM
REM
REM
REM ./C.cell (11c1c37f851c82e70ff6c80c92926a4b)
REM
REM compiler GCC version 9.2.1 20190827 (Red Hat 9.2.1-1)
REM options -cpp -mtune=generic -march=x86-64 -g -O0 -fpre-include=/usr/include/finclude/math-vector-fortran.h
REM seed -1022801773 -1201438999 -546566423 2014786773 -292267552 726861051 984517303 -1088199355 1427696684 -255423013 -386387322 1495367684 246758738 -288056175 1412224110 -1088632972 -37720348 1463269196 1607330576 -1647483431 102098227 1370898404 367806843 -1608197564 264461398 -2123535430 -2098542276 -2022388843 554280067 -1523888352 2145410995 1128426275 -1241530601
REM
CELL 1.54180   50.00000   50.00000   50.00000   90.00000   90.00000   90.00000
LATT -1
SFAC C  
C      1  0.5875070000000  0.5348570000000  0.4839280000000 1.0
C      1  0.4691680000000  0.4909230000000  0.4653820000000 1.0
C      1  0.4699900000000  0.5782420000000  0.5124910000000 1.0
C      1  0.4870600000000  0.5064770000000  0.5828470000000 1.0
C      1  0.5561890000000  0.5676960000000  0.5088380000000 1.0
C      1  0.4941480000000  0.5273580000000  0.5037010000000 1.0
C      1  0.5300200000000  0.4928150000000  0.6026970000000 1.0
C      1  0.4095390000000  0.4799160000000  0.4900420000000 1.0
C      1  0.5147110000000  0.4695540000000  0.5943410000000 1.0
C      1  0.5178970000000  0.5009690000000  0.4279980000000 1.0
C      1  0.4982390000000  0.5600240000000  0.4419420000000 1.0
C      1  0.5909230000000  0.4930890000000  0.4894030000000 1.0
C      1  0.4547190000000  0.4875820000000  0.5548730000000 1.0
C      1  0.4557380000000  0.5282970000000  0.4696960000000 1.0
C      1  0.5914290000000  0.4703770000000  0.4694470000000 1.0
C      1  0.4281820000000  0.4302340000000  0.5183030000000 1.0
C      1  0.5221770000000  0.5609230000000  0.4891510000000 1.0
C      1  0.5292370000000  0.5072290000000  0.5654090000000 1.0
C      1  0.4856310000000  0.4974120000000  0.5160540000000 1.0
C      1  0.4191840000000  0.5496710000000  0.5019620000000 1.0
C      1  0.4754640000000  0.4815280000000  0.4141690000000 1.0
C      1  0.5265200000000  0.5833800000000  0.5148270000000 1.0
C      1  0.4268040000000  0.4925920000000  0.5383180000000 1.0
C      1  0.5156700000000  0.4383620000000  0.4482880000000 1.0
C      1  0.4730750000000  0.5365620000000  0.5459330000000 1.0
C      1  0.5039880000000  0.4706290000000  0.5165590000000 1.0
C      1  0.5543600000000  0.5594510000000  0.4779560000000 1.0
C      1  0.4006460000000  0.5093950000000  0.5312980000000 1.0
C      1  0.4982200000000  0.5947640000000  0.4687080000000 1.0
C      1  0.5982750000000  0.5267000000000  0.5381760000000 1.0
C      1  0.5745310000000  0.4544650000000  0.5118950000000 1.0
C      1  0.5072140000000  0.4832360000000  0.5542570000000 1.0
C      1  0.4645620000000  0.4314260000000  0.4574250000000 1.0
C      1  0.4804870000000  0.5203500000000  0.4000240000000 1.0
C      1  0.5282580000000  0.5364040000000  0.5828920000000 1.0
C      1  0.5620720000000  0.5270900000000  0.5546260000000 1.0
C      1  0.4798410000000  0.4520770000000  0.4156570000000 1.0
C      1  0.5464240000000  0.4282220000000  0.4382360000000 1.0
C      1  0.5650800000000  0.4358540000000  0.5388930000000 1.0
C      1  0.4882230000000  0.5563980000000  0.4938570000000 1.0
C      1  0.5078720000000  0.4814620000000  0.4673690000000 1.0
C      1  0.4263000000000  0.4694990000000  0.5841000000000 1.0
C      1  0.5757150000000  0.4866250000000  0.5163500000000 1.0
C      1  0.4820370000000  0.5034500000000  0.5493390000000 1.0
C      1  0.4810130000000  0.4751590000000  0.5928390000000 1.0
C      1  0.4641730000000  0.4159880000000  0.5083630000000 1.0
C      1  0.4633430000000  0.5266180000000  0.5759760000000 1.0
C      1  0.4798740000000  0.5256900000000  0.4493090000000 1.0
C      1  0.5715540000000  0.5044120000000  0.4638550000000 1.0
C      1  0.5513370000000  0.5685120000000  0.4453240000000 1.0
C      1  0.5224170000000  0.5756230000000  0.4584870000000 1.0
C      1  0.5045270000000  0.5475270000000  0.5527710000000 1.0
C      1  0.4215280000000  0.4656140000000  0.5569860000000 1.0
C      1  0.4962870000000  0.5915010000000  0.5281960000000 1.0
C      1  0.3891490000000  0.4980230000000  0.5087380000000 1.0
C      1  0.5435850000000  0.4452170000000  0.5167590000000 1.0
C      1  0.4813850000000  0.4633610000000  0.4738430000000 1.0
C      1  0.4163930000000  0.5145130000000  0.4531860000000 1.0
C      1  0.4870750000000  0.4974370000000  0.4371910000000 1.0
C      1  0.4232410000000  0.4497190000000  0.4923370000000 1.0
C      1  0.5105620000000  0.5349020000000  0.4612680000000 1.0
C      1  0.4401940000000  0.5251660000000  0.4964310000000 1.0
C      1  0.4113690000000  0.4860570000000  0.4601640000000 1.0
C      1  0.5614530000000  0.5670370000000  0.5543640000000 1.0
C      1  0.5797820000000  0.5537210000000  0.5289940000000 1.0
C      1  0.4476340000000  0.5304820000000  0.5278590000000 1.0
C      1  0.5345340000000  0.4438820000000  0.4135170000000 1.0
C      1  0.4479820000000  0.4588290000000  0.5378460000000 1.0
C      1  0.4532270000000  0.5143070000000  0.4089420000000 1.0
C      1  0.5185630000000  0.5760670000000  0.5474570000000 1.0
C      1  0.4746200000000  0.5452040000000  0.4224740000000 1.0
C      1  0.5124270000000  0.5163590000000  0.5999290000000 1.0
C      1  0.5853280000000  0.4961120000000  0.5454470000000 1.0
C      1  0.4737280000000  0.5858270000000  0.4600650000000 1.0
C      1  0.4301270000000  0.4973370000000  0.5071160000000 1.0
C      1  0.4280310000000  0.5565560000000  0.4748930000000 1.0
C      1  0.5767250000000  0.5124860000000  0.5739950000000 1.0
C      1  0.5702650000000  0.4422340000000  0.4488100000000 1.0
C      1  0.5332340000000  0.4809790000000  0.4447220000000 1.0
C      1  0.4138200000000  0.5421700000000  0.4551080000000 1.0
C      1  0.5610830000000  0.4915910000000  0.4069740000000 1.0
C      1  0.4547600000000  0.4576330000000  0.4379480000000 1.0
C      1  0.5217100000000  0.4269000000000  0.5110810000000 1.0
C      1  0.5733960000000  0.5288990000000  0.5070310000000 1.0
C      1  0.4735910000000  0.5710670000000  0.5443310000000 1.0
C      1  0.5284790000000  0.4554440000000  0.4747580000000 1.0
C      1  0.5498610000000  0.5045940000000  0.5034340000000 1.0
C      1  0.5049000000000  0.4435200000000  0.4186220000000 1.0
C      1  0.5467520000000  0.4852480000000  0.4756280000000 1.0
C      1  0.5379410000000  0.5138920000000  0.5334540000000 1.0
C      1  0.5363460000000  0.4770710000000  0.5182090000000 1.0
C      1  0.5266690000000  0.4095130000000  0.4754530000000 1.0
C      1  0.4560400000000  0.4261970000000  0.5373930000000 1.0
C      1  0.4351030000000  0.5171500000000  0.5734440000000 1.0
C      1  0.4445140000000  0.4846060000000  0.4197610000000 1.0
C      1  0.5306570000000  0.5279960000000  0.4878440000000 1.0
C      1  0.4394570000000  0.5804060000000  0.5273410000000 1.0
C      1  0.4749490000000  0.4449590000000  0.5829330000000 1.0
C      1  0.4811180000000  0.3997040000000  0.4922040000000 1.0
C      1  0.4953430000000  0.4219140000000  0.4707470000000 1.0
C      1  0.5048700000000  0.5070770000000  0.4799720000000 1.0
C      1  0.4210490000000  0.5312720000000  0.5463310000000 1.0
C      1  0.4830070000000  0.5638270000000  0.5734510000000 1.0
C      1  0.5017520000000  0.4462240000000  0.4936560000000 1.0
C      1  0.5775570000000  0.4443460000000  0.4812790000000 1.0
C      1  0.5563460000000  0.4656660000000  0.4284640000000 1.0
C      1  0.5286750000000  0.5268610000000  0.4369520000000 1.0
C      1  0.5427000000000  0.5458630000000  0.5386660000000 1.0
C      1  0.4749580000000  0.5823350000000  0.4311140000000 1.0
C      1  0.4956410000000  0.4551530000000  0.5436290000000 1.0
C      1  0.4210380000000  0.5599720000000  0.5278480000000 1.0
C      1  0.5834110000000  0.4809270000000  0.4422760000000 1.0
C      1  0.4413210000000  0.5368080000000  0.4227200000000 1.0
C      1  0.4458770000000  0.5048000000000  0.4470830000000 1.0
C      1  0.4226550000000  0.4642660000000  0.4463210000000 1.0
C      1  0.5688150000000  0.5358300000000  0.4580510000000 1.0
C      1  0.5477700000000  0.4295860000000  0.4790410000000 1.0
C      1  0.5033170000000  0.5063740000000  0.3999640000000 1.0
C      1  0.4623970000000  0.4403530000000  0.4901640000000 1.0
C      1  0.4615990000000  0.4901370000000  0.4978480000000 1.0
C      1  0.4774210000000  0.4394240000000  0.5564920000000 1.0
C      1  0.5349940000000  0.5623250000000  0.5738730000000 1.0
C      1  0.5572810000000  0.4939100000000  0.5916450000000 1.0
C      1  0.4492550000000  0.4625060000000  0.5076520000000 1.0
C      1  0.5586970000000  0.4451680000000  0.5645390000000 1.0
C      1  0.5707060000000  0.4743830000000  0.5671770000000 1.0
C      1  0.5086200000000  0.5266140000000  0.5305500000000 1.0
C      1  0.5640060000000  0.5163250000000  0.4094360000000 1.0
C      1  0.4507640000000  0.4905950000000  0.5879180000000 1.0
C      1  0.5183470000000  0.4034350000000  0.5217320000000 1.0
C      1  0.5296640000000  0.4558000000000  0.5745420000000 1.0
C      1  0.5554540000000  0.5394090000000  0.4295080000000 1.0
C      1  0.4608320000000  0.5616080000000  0.4743510000000 1.0
C      1  0.4319570000000  0.4399380000000  0.4643780000000 1.0
C      1  0.5407620000000  0.4783830000000  0.5515700000000 1.0
END
