TITL C-2847949-8115-503 0.000696061660017799 125000 -222.732458236585 0 0 43 (C1) n - 1
REM
REM in /home/bkarasulu/work/CARBON/AIRSS/Generating-Clusters/AIREBO/with-SteepDescent/Only-C1/SD-CG-opt/Try1-1.4A-POS3A/HFTN-CG
REM
REM
REM
REM
REM
REM ./C.cell (11c1c37f851c82e70ff6c80c92926a4b)
REM
REM compiler GCC version 9.2.1 20190827 (Red Hat 9.2.1-1)
REM options -cpp -mtune=generic -march=x86-64 -g -O0 -fpre-include=/usr/include/finclude/math-vector-fortran.h
REM seed 1498519337 790538029 1375825557 -1193700156 285700211 -1188513597 -674528663 1307047850 -683768944 -230294458 -751117638 -1314772931 735242441 1901778824 -994601980 1322663692 -1267473480 164465166 530165466 -2125758017 -86460293 -1855307749 -1452303656 -1375022960 -1337083456 646375760 1386651682 1623564890 1033228556 -6771777 -347286289 -1136677867 -1469960818
REM
CELL 1.54180   50.00000   50.00000   50.00000   90.00000   90.00000   90.00000
LATT -1
SFAC C  
C      1  0.5467800000000  0.4831660000000  0.4693410000000 1.0
C      1  0.4134150000000  0.5042200000000  0.5679690000000 1.0
C      1  0.5093880000000  0.4259410000000  0.4831290000000 1.0
C      1  0.4537510000000  0.4369940000000  0.4661410000000 1.0
C      1  0.4358460000000  0.5014110000000  0.4631700000000 1.0
C      1  0.5781880000000  0.5629860000000  0.4876160000000 1.0
C      1  0.4464840000000  0.4286860000000  0.5243430000000 1.0
C      1  0.5012550000000  0.5147950000000  0.4359470000000 1.0
C      1  0.5457840000000  0.6122030000000  0.4968040000000 1.0
C      1  0.5339480000000  0.5046470000000  0.4883890000000 1.0
C      1  0.5117550000000  0.5392740000000  0.4544330000000 1.0
C      1  0.5428860000000  0.6365910000000  0.5056110000000 1.0
C      1  0.5005210000000  0.4201570000000  0.5078010000000 1.0
C      1  0.5486520000000  0.5062570000000  0.5155600000000 1.0
C      1  0.5071280000000  0.4751640000000  0.5716830000000 1.0
C      1  0.4677040000000  0.4583730000000  0.4663220000000 1.0
C      1  0.5093520000000  0.4811300000000  0.4911280000000 1.0
C      1  0.4645480000000  0.5082150000000  0.4702820000000 1.0
C      1  0.5635620000000  0.5860620000000  0.4919930000000 1.0
C      1  0.5033730000000  0.4885980000000  0.4459370000000 1.0
C      1  0.5169000000000  0.4774940000000  0.5245590000000 1.0
C      1  0.5247750000000  0.5638890000000  0.4708950000000 1.0
C      1  0.4845240000000  0.4785950000000  0.5142330000000 1.0
C      1  0.4677690000000  0.5379160000000  0.4850540000000 1.0
C      1  0.5658910000000  0.5422050000000  0.4744500000000 1.0
C      1  0.4637230000000  0.5529150000000  0.5053990000000 1.0
C      1  0.5338230000000  0.5856280000000  0.4824420000000 1.0
C      1  0.5255060000000  0.4729930000000  0.4505720000000 1.0
C      1  0.5354710000000  0.5317330000000  0.4755740000000 1.0
C      1  0.4775090000000  0.4346670000000  0.5264260000000 1.0
C      1  0.5194140000000  0.4560120000000  0.5508520000000 1.0
C      1  0.5101870000000  0.4385550000000  0.5306960000000 1.0
C      1  0.5217710000000  0.4955360000000  0.5527240000000 1.0
C      1  0.4573470000000  0.5689380000000  0.5251340000000 1.0
C      1  0.4797510000000  0.5333280000000  0.4546710000000 1.0
C      1  0.4794760000000  0.4743760000000  0.5754040000000 1.0
C      1  0.5227410000000  0.4528080000000  0.4778000000000 1.0
C      1  0.4329020000000  0.4519830000000  0.5179970000000 1.0
C      1  0.4834750000000  0.4845540000000  0.4693200000000 1.0
C      1  0.4358010000000  0.4917700000000  0.5624120000000 1.0
C      1  0.4623110000000  0.4648840000000  0.5299340000000 1.0
C      1  0.4580950000000  0.4764600000000  0.5575210000000 1.0
C      1  0.5565200000000  0.4578910000000  0.4823310000000 1.0
END
