TITL C-2848494-1720-429 -0.00402474202400558 125000 -489.76347706973 0 0 87 (C1) n - 1
REM
REM in /home/bkarasulu/work/CARBON/AIRSS/Generating-Clusters/AIREBO/with-SteepDescent/Only-C1/SD-CG-opt/Try1-1.4A-POS3A/HFTN-CG
REM
REM
REM
REM
REM
REM ./C.cell (11c1c37f851c82e70ff6c80c92926a4b)
REM
REM compiler GCC version 9.2.1 20190827 (Red Hat 9.2.1-1)
REM options -cpp -mtune=generic -march=x86-64 -g -O0 -fpre-include=/usr/include/finclude/math-vector-fortran.h
REM seed -1029395002 -178690244 1565153860 591291644 1501136498 451824512 -1806019491 193182089 -1869634666 -1070906302 1300612067 -704946603 2025009571 -1297267914 616322543 -837715570 1977159970 -1848549789 -191484384 1409978823 -1081809692 -571321571 -37484655 -1715018115 -1499346937 1959940064 1551907192 354544587 -1567984231 932666999 22801728 -595502121 2063355581
REM
CELL 1.54180   50.00000   50.00000   50.00000   90.00000   90.00000   90.00000
LATT -1
SFAC C  
C      1  0.5254090000000  0.4124590000000  0.4912440000000 1.0
C      1  0.5281760000000  0.4944500000000  0.4420110000000 1.0
C      1  0.4618120000000  0.4618080000000  0.4288280000000 1.0
C      1  0.4114430000000  0.4963980000000  0.4867580000000 1.0
C      1  0.5034110000000  0.5875290000000  0.5410080000000 1.0
C      1  0.4947510000000  0.5475390000000  0.4837040000000 1.0
C      1  0.5235880000000  0.5276040000000  0.4420330000000 1.0
C      1  0.4710360000000  0.4761060000000  0.5219160000000 1.0
C      1  0.4983910000000  0.5767470000000  0.4724310000000 1.0
C      1  0.4526410000000  0.5166300000000  0.4343560000000 1.0
C      1  0.5576280000000  0.5078270000000  0.4411140000000 1.0
C      1  0.4551860000000  0.4210200000000  0.4862310000000 1.0
C      1  0.5341720000000  0.5579060000000  0.5201250000000 1.0
C      1  0.4250830000000  0.4807870000000  0.5760910000000 1.0
C      1  0.5195660000000  0.4638280000000  0.5087330000000 1.0
C      1  0.4456430000000  0.5301420000000  0.4826000000000 1.0
C      1  0.5757730000000  0.5331280000000  0.5147660000000 1.0
C      1  0.5334430000000  0.4042900000000  0.5629170000000 1.0
C      1  0.4185640000000  0.4578300000000  0.5178650000000 1.0
C      1  0.5632500000000  0.4778730000000  0.4508280000000 1.0
C      1  0.4199110000000  0.5527090000000  0.4833920000000 1.0
C      1  0.5249890000000  0.3855850000000  0.4932720000000 1.0
C      1  0.4809230000000  0.4306580000000  0.4787600000000 1.0
C      1  0.5106110000000  0.4534780000000  0.5507710000000 1.0
C      1  0.5504990000000  0.4939590000000  0.4777740000000 1.0
C      1  0.4874500000000  0.5299190000000  0.4587570000000 1.0
C      1  0.5267300000000  0.4279010000000  0.5556450000000 1.0
C      1  0.4950770000000  0.5356900000000  0.5977580000000 1.0
C      1  0.5363000000000  0.5221780000000  0.4730990000000 1.0
C      1  0.4243650000000  0.4778130000000  0.4614640000000 1.0
C      1  0.5285590000000  0.4804150000000  0.5437530000000 1.0
C      1  0.5244260000000  0.4898920000000  0.4934420000000 1.0
C      1  0.5929460000000  0.5188510000000  0.4985540000000 1.0
C      1  0.4697030000000  0.5171260000000  0.5890910000000 1.0
C      1  0.4339710000000  0.4353600000000  0.4972120000000 1.0
C      1  0.4227790000000  0.4894890000000  0.5107070000000 1.0
C      1  0.5869160000000  0.4754010000000  0.5523260000000 1.0
C      1  0.5392090000000  0.5090540000000  0.5354100000000 1.0
C      1  0.4770110000000  0.4799730000000  0.5773330000000 1.0
C      1  0.5210070000000  0.5394730000000  0.4957140000000 1.0
C      1  0.5655710000000  0.5181280000000  0.5373400000000 1.0
C      1  0.4831530000000  0.5959560000000  0.4870150000000 1.0
C      1  0.4144220000000  0.4567960000000  0.4841270000000 1.0
C      1  0.5008840000000  0.5001640000000  0.5419490000000 1.0
C      1  0.6126140000000  0.5014130000000  0.4796290000000 1.0
C      1  0.5582520000000  0.5519620000000  0.5025330000000 1.0
C      1  0.4355860000000  0.4632240000000  0.4365160000000 1.0
C      1  0.5316870000000  0.5986470000000  0.5001900000000 1.0
C      1  0.5496530000000  0.5607340000000  0.4758810000000 1.0
C      1  0.4983020000000  0.5183960000000  0.5705440000000 1.0
C      1  0.5808570000000  0.4949530000000  0.4822830000000 1.0
C      1  0.4391530000000  0.5531520000000  0.4589150000000 1.0
C      1  0.4776110000000  0.5064350000000  0.4264300000000 1.0
C      1  0.5542340000000  0.5404090000000  0.4508670000000 1.0
C      1  0.4930650000000  0.4543100000000  0.5235590000000 1.0
C      1  0.4415630000000  0.5043190000000  0.4619490000000 1.0
C      1  0.4851410000000  0.4556600000000  0.4912270000000 1.0
C      1  0.5295450000000  0.5814820000000  0.4768780000000 1.0
C      1  0.4685340000000  0.5014490000000  0.5523640000000 1.0
C      1  0.4864730000000  0.5026420000000  0.5108120000000 1.0
C      1  0.5093860000000  0.4261650000000  0.4708270000000 1.0
C      1  0.4474160000000  0.5002470000000  0.5187730000000 1.0
C      1  0.4976300000000  0.5315040000000  0.4263540000000 1.0
C      1  0.5064780000000  0.4753900000000  0.4526020000000 1.0
C      1  0.4519560000000  0.5455190000000  0.4353530000000 1.0
C      1  0.4779600000000  0.5560430000000  0.4300960000000 1.0
C      1  0.4709880000000  0.5301700000000  0.4990470000000 1.0
C      1  0.5253340000000  0.5136570000000  0.5113920000000 1.0
C      1  0.5494820000000  0.4556590000000  0.4663740000000 1.0
C      1  0.4626980000000  0.5274110000000  0.5311960000000 1.0
C      1  0.5224310000000  0.4488530000000  0.4581480000000 1.0
C      1  0.4732860000000  0.5037890000000  0.4660950000000 1.0
C      1  0.5562460000000  0.4517170000000  0.4932570000000 1.0
C      1  0.4784950000000  0.5767930000000  0.5423300000000 1.0
C      1  0.4935090000000  0.4597200000000  0.5754850000000 1.0
C      1  0.4490950000000  0.4937380000000  0.5862850000000 1.0
C      1  0.5400530000000  0.4290720000000  0.5084680000000 1.0
C      1  0.4893240000000  0.5771050000000  0.4425300000000 1.0
C      1  0.5465030000000  0.4569600000000  0.5268510000000 1.0
C      1  0.5255190000000  0.5842760000000  0.5241000000000 1.0
C      1  0.4519400000000  0.4733050000000  0.5475400000000 1.0
C      1  0.4934500000000  0.4852250000000  0.4824360000000 1.0
C      1  0.4833050000000  0.4796740000000  0.4319740000000 1.0
C      1  0.4233770000000  0.4691120000000  0.5474200000000 1.0
C      1  0.5706990000000  0.4540190000000  0.5469420000000 1.0
C      1  0.4622520000000  0.5553320000000  0.5436860000000 1.0
C      1  0.5825420000000  0.5024880000000  0.5536360000000 1.0
END
