TITL C-2848504-8560-244 -2.02094052502174e-06 125000 -144.842449615616 0 0 26 (C1) n - 1
REM
REM in /home/bkarasulu/work/CARBON/AIRSS/Generating-Clusters/AIREBO/with-SteepDescent/Only-C1/SD-CG-opt/Try1-1.4A-POS3A/HFTN-CG
REM
REM
REM
REM
REM
REM ./C.cell (11c1c37f851c82e70ff6c80c92926a4b)
REM
REM compiler GCC version 9.2.1 20190827 (Red Hat 9.2.1-1)
REM options -cpp -mtune=generic -march=x86-64 -g -O0 -fpre-include=/usr/include/finclude/math-vector-fortran.h
REM seed -418623770 -349633986 1049158272 -745799959 1847439803 -809124217 193101330 -1318941703 1145370445 -695497515 877611824 -2139632158 -1976780065 604207056 -180254669 1166773618 -598266322 1773985353 1730142917 -1835044407 1468621955 2080761236 -151489461 -1524461720 -2104104278 -1818084477 1182205023 1284890477 2057600878 1515943098 1331459280 1818761747 1346225595
REM
CELL 1.54180   50.00000   50.00000   50.00000   90.00000   90.00000   90.00000
LATT -1
SFAC C  
C      1  0.5743060000000  0.5191730000000  0.5226030000000 1.0
C      1  0.5064060000000  0.4833620000000  0.4324320000000 1.0
C      1  0.4991160000000  0.5093650000000  0.4356290000000 1.0
C      1  0.4595180000000  0.4402170000000  0.4725900000000 1.0
C      1  0.5297730000000  0.4684290000000  0.5007610000000 1.0
C      1  0.5024240000000  0.5275790000000  0.5399420000000 1.0
C      1  0.4535320000000  0.5245800000000  0.4912260000000 1.0
C      1  0.4858100000000  0.4464560000000  0.4694920000000 1.0
C      1  0.4833300000000  0.5422910000000  0.5258230000000 1.0
C      1  0.5252180000000  0.5131420000000  0.5249160000000 1.0
C      1  0.5056110000000  0.4711490000000  0.5426510000000 1.0
C      1  0.5123410000000  0.4604140000000  0.4809990000000 1.0
C      1  0.5194640000000  0.4835000000000  0.5223520000000 1.0
C      1  0.4697760000000  0.5625700000000  0.5374230000000 1.0
C      1  0.5526090000000  0.5196610000000  0.5656560000000 1.0
C      1  0.5561910000000  0.4630010000000  0.4993150000000 1.0
C      1  0.5009920000000  0.5283530000000  0.4548150000000 1.0
C      1  0.4369280000000  0.4538770000000  0.4790320000000 1.0
C      1  0.5054850000000  0.4619900000000  0.4496370000000 1.0
C      1  0.4781260000000  0.5352620000000  0.4986320000000 1.0
C      1  0.5005790000000  0.5238390000000  0.5671110000000 1.0
C      1  0.5008390000000  0.5320970000000  0.4823710000000 1.0
C      1  0.5517640000000  0.5183900000000  0.5382490000000 1.0
C      1  0.4291110000000  0.4798010000000  0.4800320000000 1.0
C      1  0.5244260000000  0.5274710000000  0.4969810000000 1.0
C      1  0.4363250000000  0.5040300000000  0.4893290000000 1.0
END
