TITL C-2847954-6904-609 -0.00304048147023005 125000 -667.693232006073 0 0 120 (C1) n - 1
REM
REM in /home/bkarasulu/work/CARBON/AIRSS/Generating-Clusters/AIREBO/with-SteepDescent/Only-C1/SD-CG-opt/Try1-1.4A-POS3A/HFTN-CG
REM
REM
REM
REM
REM
REM ./C.cell (11c1c37f851c82e70ff6c80c92926a4b)
REM
REM compiler GCC version 9.2.1 20190827 (Red Hat 9.2.1-1)
REM options -cpp -mtune=generic -march=x86-64 -g -O0 -fpre-include=/usr/include/finclude/math-vector-fortran.h
REM seed -1829509017 -1203024554 411608943 794856808 -137388085 1893136255 123210421 -1718768222 1989043762 -1893432326 1254951630 -1480488076 1213080132 -264251274 -818638462 867390736 -1321746262 1433487828 -13855579 -430736112 -721390022 1541385149 1715677179 740871074 -1506930819 852601768 -131279297 -642796833 1382876493 1996458391 -1318702848 -1203080131 -999933218
REM
CELL 1.54180   50.00000   50.00000   50.00000   90.00000   90.00000   90.00000
LATT -1
SFAC C  
C      1  0.4729620000000  0.4169940000000  0.4766320000000 1.0
C      1  0.5186660000000  0.4388970000000  0.5674110000000 1.0
C      1  0.5358340000000  0.4939280000000  0.5432340000000 1.0
C      1  0.4074140000000  0.5012740000000  0.5144270000000 1.0
C      1  0.4717780000000  0.4312630000000  0.4457040000000 1.0
C      1  0.4615520000000  0.4592580000000  0.4372900000000 1.0
C      1  0.5104620000000  0.4433990000000  0.5003970000000 1.0
C      1  0.4884740000000  0.5290540000000  0.5346220000000 1.0
C      1  0.5061560000000  0.4874510000000  0.4282740000000 1.0
C      1  0.5074420000000  0.5544110000000  0.4408300000000 1.0
C      1  0.5127120000000  0.4556600000000  0.4337840000000 1.0
C      1  0.4666270000000  0.4682180000000  0.5785040000000 1.0
C      1  0.4698360000000  0.5597700000000  0.5647410000000 1.0
C      1  0.5144580000000  0.5498760000000  0.5339930000000 1.0
C      1  0.4453210000000  0.5186880000000  0.5461460000000 1.0
C      1  0.4782170000000  0.4864390000000  0.5945310000000 1.0
C      1  0.4046400000000  0.5340780000000  0.4800570000000 1.0
C      1  0.5871250000000  0.5737660000000  0.5249730000000 1.0
C      1  0.4691450000000  0.4666520000000  0.5446250000000 1.0
C      1  0.5789100000000  0.4900000000000  0.4891930000000 1.0
C      1  0.5567890000000  0.5228060000000  0.4395610000000 1.0
C      1  0.5534320000000  0.4657340000000  0.5422410000000 1.0
C      1  0.5686130000000  0.4624820000000  0.4791160000000 1.0
C      1  0.4858370000000  0.5737060000000  0.5076300000000 1.0
C      1  0.5691490000000  0.4153280000000  0.5722490000000 1.0
C      1  0.4328010000000  0.5438650000000  0.5270070000000 1.0
C      1  0.5300920000000  0.5835080000000  0.5471630000000 1.0
C      1  0.4050930000000  0.4777310000000  0.4821870000000 1.0
C      1  0.4736120000000  0.5002940000000  0.5419790000000 1.0
C      1  0.5277350000000  0.4788750000000  0.4625290000000 1.0
C      1  0.5389360000000  0.4820370000000  0.6087980000000 1.0
C      1  0.5405910000000  0.5333800000000  0.4146760000000 1.0
C      1  0.4595080000000  0.5859620000000  0.4899490000000 1.0
C      1  0.5709640000000  0.4738260000000  0.4350120000000 1.0
C      1  0.4827490000000  0.5736130000000  0.4451430000000 1.0
C      1  0.4999090000000  0.5251010000000  0.5064160000000 1.0
C      1  0.5387460000000  0.5269990000000  0.5698220000000 1.0
C      1  0.4736310000000  0.5082380000000  0.4379480000000 1.0
C      1  0.5080590000000  0.4652940000000  0.5263780000000 1.0
C      1  0.4354660000000  0.5776300000000  0.5010680000000 1.0
C      1  0.4133950000000  0.4623770000000  0.5073590000000 1.0
C      1  0.4317120000000  0.5857160000000  0.5286260000000 1.0
C      1  0.5897340000000  0.5185520000000  0.5288790000000 1.0
C      1  0.5348720000000  0.5524990000000  0.5598020000000 1.0
C      1  0.4778950000000  0.4977880000000  0.4700290000000 1.0
C      1  0.5466520000000  0.5623770000000  0.4711270000000 1.0
C      1  0.4960350000000  0.5658000000000  0.5577300000000 1.0
C      1  0.4957200000000  0.4458800000000  0.5490330000000 1.0
C      1  0.4414980000000  0.4191960000000  0.4686430000000 1.0
C      1  0.5145440000000  0.3865630000000  0.4610090000000 1.0
C      1  0.5310090000000  0.4975180000000  0.5093460000000 1.0
C      1  0.4576240000000  0.5370140000000  0.4765700000000 1.0
C      1  0.4656540000000  0.5324390000000  0.4174490000000 1.0
C      1  0.4624650000000  0.5623680000000  0.4301510000000 1.0
C      1  0.5259570000000  0.5445640000000  0.4632090000000 1.0
C      1  0.5917280000000  0.5064010000000  0.4647920000000 1.0
C      1  0.3992570000000  0.5072380000000  0.4866610000000 1.0
C      1  0.4630840000000  0.4609690000000  0.4705940000000 1.0
C      1  0.5256110000000  0.4804530000000  0.4052270000000 1.0
C      1  0.5420270000000  0.4711830000000  0.4335580000000 1.0
C      1  0.4866500000000  0.5375580000000  0.4616120000000 1.0
C      1  0.5267390000000  0.4601630000000  0.5855380000000 1.0
C      1  0.4190750000000  0.4485670000000  0.5303940000000 1.0
C      1  0.5838180000000  0.5020910000000  0.5504680000000 1.0
C      1  0.5010670000000  0.4378650000000  0.4575380000000 1.0
C      1  0.5029730000000  0.4995930000000  0.4929240000000 1.0
C      1  0.4525020000000  0.4857240000000  0.3977170000000 1.0
C      1  0.5956010000000  0.4816900000000  0.5146670000000 1.0
C      1  0.5388780000000  0.4664410000000  0.5148890000000 1.0
C      1  0.5422770000000  0.4250870000000  0.5536540000000 1.0
C      1  0.5059460000000  0.5135840000000  0.4471060000000 1.0
C      1  0.5850630000000  0.4712920000000  0.5433570000000 1.0
C      1  0.4347480000000  0.4455330000000  0.4633350000000 1.0
C      1  0.5391240000000  0.5678090000000  0.5186290000000 1.0
C      1  0.5634940000000  0.5101010000000  0.5671730000000 1.0
C      1  0.4505730000000  0.5734200000000  0.5466890000000 1.0
C      1  0.5087350000000  0.5879650000000  0.4865220000000 1.0
C      1  0.5036770000000  0.4932400000000  0.5436610000000 1.0
C      1  0.4421780000000  0.4696270000000  0.4945600000000 1.0
C      1  0.5373750000000  0.4571410000000  0.4844730000000 1.0
C      1  0.5234160000000  0.3665940000000  0.4478260000000 1.0
C      1  0.4938620000000  0.5462890000000  0.4903860000000 1.0
C      1  0.3917400000000  0.5478610000000  0.4602040000000 1.0
C      1  0.5005300000000  0.5871640000000  0.5349440000000 1.0
C      1  0.5940190000000  0.5351390000000  0.4660610000000 1.0
C      1  0.4529820000000  0.4988910000000  0.4870150000000 1.0
C      1  0.4959140000000  0.4701540000000  0.4668860000000 1.0
C      1  0.4600130000000  0.5241740000000  0.5064840000000 1.0
C      1  0.4827620000000  0.5868680000000  0.4700460000000 1.0
C      1  0.4656900000000  0.5522890000000  0.5247490000000 1.0
C      1  0.4453900000000  0.4344960000000  0.5435660000000 1.0
C      1  0.4125200000000  0.4621970000000  0.4597830000000 1.0
C      1  0.4294510000000  0.5463030000000  0.4932070000000 1.0
C      1  0.4816730000000  0.5152610000000  0.5845000000000 1.0
C      1  0.4928010000000  0.5366860000000  0.4004400000000 1.0
C      1  0.4638110000000  0.5326810000000  0.5710260000000 1.0
C      1  0.4641650000000  0.4588620000000  0.5129030000000 1.0
C      1  0.5796530000000  0.4557230000000  0.4550190000000 1.0
C      1  0.4614580000000  0.4828410000000  0.4235060000000 1.0
C      1  0.4359840000000  0.4662180000000  0.5521430000000 1.0
C      1  0.5151280000000  0.5430980000000  0.4147260000000 1.0
C      1  0.5230880000000  0.4140350000000  0.5042290000000 1.0
C      1  0.4429760000000  0.5255730000000  0.4019150000000 1.0
C      1  0.5444520000000  0.4864250000000  0.5752620000000 1.0
C      1  0.5716380000000  0.4421910000000  0.5549810000000 1.0
C      1  0.5342120000000  0.4092050000000  0.5283680000000 1.0
C      1  0.5786430000000  0.5001300000000  0.4397700000000 1.0
C      1  0.5346130000000  0.5790650000000  0.4910560000000 1.0
C      1  0.5689460000000  0.5486480000000  0.4581020000000 1.0
C      1  0.5093240000000  0.4881030000000  0.5940370000000 1.0
C      1  0.5127830000000  0.5105240000000  0.5712320000000 1.0
C      1  0.4377940000000  0.5019140000000  0.5175410000000 1.0
C      1  0.4282900000000  0.4943690000000  0.5627220000000 1.0
C      1  0.4716730000000  0.4276890000000  0.5359870000000 1.0
C      1  0.5065680000000  0.4118020000000  0.4762350000000 1.0
C      1  0.4801440000000  0.4329020000000  0.5034710000000 1.0
C      1  0.5703940000000  0.5307120000000  0.5127350000000 1.0
C      1  0.5355370000000  0.5119670000000  0.4637990000000 1.0
C      1  0.5662780000000  0.5568220000000  0.5191930000000 1.0
C      1  0.5532770000000  0.5112660000000  0.4930050000000 1.0
END
