TITL C-2848507-1641-253 -0.000299401124232883 125000 -861.059337868227 0 0 165 (C1) n - 1
REM
REM in /home/bkarasulu/work/CARBON/AIRSS/Generating-Clusters/AIREBO/with-SteepDescent/Only-C1/SD-CG-opt/Try1-1.4A-POS3A/HFTN-CG
REM
REM
REM
REM
REM
REM ./C.cell (11c1c37f851c82e70ff6c80c92926a4b)
REM
REM compiler GCC version 9.2.1 20190827 (Red Hat 9.2.1-1)
REM options -cpp -mtune=generic -march=x86-64 -g -O0 -fpre-include=/usr/include/finclude/math-vector-fortran.h
REM seed -2104079187 2084523446 -1077711342 -2114187806 -1305168742 1239533220 -191903611 1062485160 -1358813491 1689894425 137315540 -1325184262 922089349 1191453412 -1231245010 1578896502 -664261537 636679613 1715601366 132588597 -783754668 -939199384 504789277 1318638461 2114195566 371883608 1524792398 2024079572 -238077357 -1142262287 -115954371 1098176819 -341917285
REM
CELL 1.54180   50.00000   50.00000   50.00000   90.00000   90.00000   90.00000
LATT -1
SFAC C  
C      1  0.4828610000000  0.5619030000000  0.4538190000000 1.0
C      1  0.5620600000000  0.4444640000000  0.4969600000000 1.0
C      1  0.4166610000000  0.5001630000000  0.4327510000000 1.0
C      1  0.5768720000000  0.5080990000000  0.4611200000000 1.0
C      1  0.4948830000000  0.5086220000000  0.4632200000000 1.0
C      1  0.3984460000000  0.5014930000000  0.4822980000000 1.0
C      1  0.5645970000000  0.5811960000000  0.4921150000000 1.0
C      1  0.5320860000000  0.3972350000000  0.5258960000000 1.0
C      1  0.4721300000000  0.5290770000000  0.4138580000000 1.0
C      1  0.4611950000000  0.4189040000000  0.4347300000000 1.0
C      1  0.5775610000000  0.5637220000000  0.5365500000000 1.0
C      1  0.4520510000000  0.5080420000000  0.4492530000000 1.0
C      1  0.5409110000000  0.5387390000000  0.4596010000000 1.0
C      1  0.4458420000000  0.5076740000000  0.4164910000000 1.0
C      1  0.5270770000000  0.4899790000000  0.4002330000000 1.0
C      1  0.5665390000000  0.5316950000000  0.4270780000000 1.0
C      1  0.5120520000000  0.5050670000000  0.5190630000000 1.0
C      1  0.5072870000000  0.5566830000000  0.5956790000000 1.0
C      1  0.4645800000000  0.5581660000000  0.4253840000000 1.0
C      1  0.4753090000000  0.6007190000000  0.4812390000000 1.0
C      1  0.5898820000000  0.4369850000000  0.5246270000000 1.0
C      1  0.5135620000000  0.4556850000000  0.4967590000000 1.0
C      1  0.4755560000000  0.4934460000000  0.5672290000000 1.0
C      1  0.3961970000000  0.4858060000000  0.5114680000000 1.0
C      1  0.4155290000000  0.4177590000000  0.4789150000000 1.0
C      1  0.4823130000000  0.4352890000000  0.5590560000000 1.0
C      1  0.4959780000000  0.5340870000000  0.4452520000000 1.0
C      1  0.4195100000000  0.5044090000000  0.5266510000000 1.0
C      1  0.4372380000000  0.5595590000000  0.4388910000000 1.0
C      1  0.5374390000000  0.5939700000000  0.5481790000000 1.0
C      1  0.5485460000000  0.4877480000000  0.4208440000000 1.0
C      1  0.4274400000000  0.5306910000000  0.4431450000000 1.0
C      1  0.4185450000000  0.5783390000000  0.5068890000000 1.0
C      1  0.5157310000000  0.4751070000000  0.4688390000000 1.0
C      1  0.4633440000000  0.4440610000000  0.4893130000000 1.0
C      1  0.4120820000000  0.4652840000000  0.4909890000000 1.0
C      1  0.5703440000000  0.4468230000000  0.5759280000000 1.0
C      1  0.4133540000000  0.5651010000000  0.4806680000000 1.0
C      1  0.5598400000000  0.4404990000000  0.5306990000000 1.0
C      1  0.5442770000000  0.4338300000000  0.5608870000000 1.0
C      1  0.4996870000000  0.4928530000000  0.4929700000000 1.0
C      1  0.4436930000000  0.5796790000000  0.5641620000000 1.0
C      1  0.4077180000000  0.5318560000000  0.4847740000000 1.0
C      1  0.4858760000000  0.4278710000000  0.4693100000000 1.0
C      1  0.5882850000000  0.5258390000000  0.5491620000000 1.0
C      1  0.4843000000000  0.5586110000000  0.5718300000000 1.0
C      1  0.5078350000000  0.5539350000000  0.5477370000000 1.0
C      1  0.5379810000000  0.4560080000000  0.4181690000000 1.0
C      1  0.4632280000000  0.5296530000000  0.5333120000000 1.0
C      1  0.6094620000000  0.5190110000000  0.5295410000000 1.0
C      1  0.5530750000000  0.4004600000000  0.5058720000000 1.0
C      1  0.4777630000000  0.4904750000000  0.4401140000000 1.0
C      1  0.5789720000000  0.4708510000000  0.4467460000000 1.0
C      1  0.5104480000000  0.5750920000000  0.4687270000000 1.0
C      1  0.4619780000000  0.5714200000000  0.5197460000000 1.0
C      1  0.5236800000000  0.4290220000000  0.4331140000000 1.0
C      1  0.5636350000000  0.5388500000000  0.5049690000000 1.0
C      1  0.6038050000000  0.4884970000000  0.5259600000000 1.0
C      1  0.4584030000000  0.4070810000000  0.5946830000000 1.0
C      1  0.4696700000000  0.4774790000000  0.4886260000000 1.0
C      1  0.5519210000000  0.5653160000000  0.5593890000000 1.0
C      1  0.4616740000000  0.4710790000000  0.4172770000000 1.0
C      1  0.4726330000000  0.4361180000000  0.5293240000000 1.0
C      1  0.4755790000000  0.4415360000000  0.4139650000000 1.0
C      1  0.5948470000000  0.5382170000000  0.4802300000000 1.0
C      1  0.4421830000000  0.4514750000000  0.5740850000000 1.0
C      1  0.4511850000000  0.4215760000000  0.5198110000000 1.0
C      1  0.5391290000000  0.5326810000000  0.4202590000000 1.0
C      1  0.5502930000000  0.5773210000000  0.5214530000000 1.0
C      1  0.4326740000000  0.4676710000000  0.5179440000000 1.0
C      1  0.5330170000000  0.4049960000000  0.5548320000000 1.0
C      1  0.5185980000000  0.4187930000000  0.4712470000000 1.0
C      1  0.5703740000000  0.4753930000000  0.5742210000000 1.0
C      1  0.5070440000000  0.4992410000000  0.6003450000000 1.0
C      1  0.4957540000000  0.5263620000000  0.5921940000000 1.0
C      1  0.4573100000000  0.4106490000000  0.4911940000000 1.0
C      1  0.5127440000000  0.5361290000000  0.5201940000000 1.0
C      1  0.5059620000000  0.5329640000000  0.4127700000000 1.0
C      1  0.4881950000000  0.4010020000000  0.4900310000000 1.0
C      1  0.5484040000000  0.4129530000000  0.4454840000000 1.0
C      1  0.5415190000000  0.5169820000000  0.4941380000000 1.0
C      1  0.4431910000000  0.4189800000000  0.4628380000000 1.0
C      1  0.5345500000000  0.5173580000000  0.5918130000000 1.0
C      1  0.4562410000000  0.5060330000000  0.4815620000000 1.0
C      1  0.4953980000000  0.5427390000000  0.4962080000000 1.0
C      1  0.4481510000000  0.5821440000000  0.4905850000000 1.0
C      1  0.4831480000000  0.5252550000000  0.5606280000000 1.0
C      1  0.4937000000000  0.4141970000000  0.4259160000000 1.0
C      1  0.4923920000000  0.5759550000000  0.5269180000000 1.0
C      1  0.5676930000000  0.4527810000000  0.4247740000000 1.0
C      1  0.5108990000000  0.4838680000000  0.4362960000000 1.0
C      1  0.6034810000000  0.5095460000000  0.4760980000000 1.0
C      1  0.5010160000000  0.5018220000000  0.4091480000000 1.0
C      1  0.4716170000000  0.4975620000000  0.3987480000000 1.0
C      1  0.5786430000000  0.4999610000000  0.4290900000000 1.0
C      1  0.5414100000000  0.5565700000000  0.4885630000000 1.0
C      1  0.4904190000000  0.4549900000000  0.5142480000000 1.0
C      1  0.5418300000000  0.4854140000000  0.5862780000000 1.0
C      1  0.4318360000000  0.5012580000000  0.5645260000000 1.0
C      1  0.5469590000000  0.4732090000000  0.4579610000000 1.0
C      1  0.3960190000000  0.5340400000000  0.5461980000000 1.0
C      1  0.5128220000000  0.5127860000000  0.5521700000000 1.0
C      1  0.4701660000000  0.5844810000000  0.5683120000000 1.0
C      1  0.4619300000000  0.5544800000000  0.4780010000000 1.0
C      1  0.5450080000000  0.4675340000000  0.5398880000000 1.0
C      1  0.5193920000000  0.4870110000000  0.5644930000000 1.0
C      1  0.5407460000000  0.5451290000000  0.5268190000000 1.0
C      1  0.4046350000000  0.4800200000000  0.5436250000000 1.0
C      1  0.4501920000000  0.4483680000000  0.4480790000000 1.0
C      1  0.4235060000000  0.4541790000000  0.5479050000000 1.0
C      1  0.5855740000000  0.4612120000000  0.4788260000000 1.0
C      1  0.5088000000000  0.4252060000000  0.5421330000000 1.0
C      1  0.5450150000000  0.5064810000000  0.4493370000000 1.0
C      1  0.5749360000000  0.4835520000000  0.5435910000000 1.0
C      1  0.5763390000000  0.4889500000000  0.5101340000000 1.0
C      1  0.4742360000000  0.4644590000000  0.4575490000000 1.0
C      1  0.4377240000000  0.5339160000000  0.4753090000000 1.0
C      1  0.4490160000000  0.5027650000000  0.5359220000000 1.0
C      1  0.4601730000000  0.4274820000000  0.5769240000000 1.0
C      1  0.5572530000000  0.5192220000000  0.5402530000000 1.0
C      1  0.5327190000000  0.4275120000000  0.4998240000000 1.0
C      1  0.3998010000000  0.5089390000000  0.5610590000000 1.0
C      1  0.4812800000000  0.5958330000000  0.4520940000000 1.0
C      1  0.5370240000000  0.5820810000000  0.4544630000000 1.0
C      1  0.4979160000000  0.4477480000000  0.4464400000000 1.0
C      1  0.5930760000000  0.5436820000000  0.5137660000000 1.0
C      1  0.5231130000000  0.4501410000000  0.5821350000000 1.0
C      1  0.4110830000000  0.4348970000000  0.4998810000000 1.0
C      1  0.4829210000000  0.5983960000000  0.5480570000000 1.0
C      1  0.5590670000000  0.4919330000000  0.4836290000000 1.0
C      1  0.4684960000000  0.4633160000000  0.5921510000000 1.0
C      1  0.4324170000000  0.4706490000000  0.4347650000000 1.0
C      1  0.4967830000000  0.6071510000000  0.4980660000000 1.0
C      1  0.5446510000000  0.4955190000000  0.5205810000000 1.0
C      1  0.4648410000000  0.4759320000000  0.5222540000000 1.0
C      1  0.5238980000000  0.5982390000000  0.5166080000000 1.0
C      1  0.4993310000000  0.4708000000000  0.5949700000000 1.0
C      1  0.5061480000000  0.4103390000000  0.5123070000000 1.0
C      1  0.4248030000000  0.4294110000000  0.5245980000000 1.0
C      1  0.5322020000000  0.5376240000000  0.5649820000000 1.0
C      1  0.5158070000000  0.5266080000000  0.4790690000000 1.0
C      1  0.6032450000000  0.4597140000000  0.5078440000000 1.0
C      1  0.4059240000000  0.5303870000000  0.5147720000000 1.0
C      1  0.4141030000000  0.4822440000000  0.4614860000000 1.0
C      1  0.5127150000000  0.5706460000000  0.5001710000000 1.0
C      1  0.4507360000000  0.4887650000000  0.5842660000000 1.0
C      1  0.4956270000000  0.3981940000000  0.4558660000000 1.0
C      1  0.5593730000000  0.5088180000000  0.5701300000000 1.0
C      1  0.4828960000000  0.5804110000000  0.4132450000000 1.0
C      1  0.5632510000000  0.5774440000000  0.4625970000000 1.0
C      1  0.4426070000000  0.5551020000000  0.5424630000000 1.0
C      1  0.5442250000000  0.4397810000000  0.4635760000000 1.0
C      1  0.4675400000000  0.5310110000000  0.5016790000000 1.0
C      1  0.5258190000000  0.5582500000000  0.4361200000000 1.0
C      1  0.5044410000000  0.4583340000000  0.4147950000000 1.0
C      1  0.4321020000000  0.5761260000000  0.4609070000000 1.0
C      1  0.4320070000000  0.5337300000000  0.5666900000000 1.0
C      1  0.4146150000000  0.5575700000000  0.5287210000000 1.0
C      1  0.5735130000000  0.5478280000000  0.4562120000000 1.0
C      1  0.5211500000000  0.5752440000000  0.5707860000000 1.0
C      1  0.6097300000000  0.4844200000000  0.4855360000000 1.0
C      1  0.5055870000000  0.5850270000000  0.4305260000000 1.0
C      1  0.5411590000000  0.4678260000000  0.4987530000000 1.0
C      1  0.5141160000000  0.4578080000000  0.5502550000000 1.0
C      1  0.4818470000000  0.4685420000000  0.5507590000000 1.0
END
