TITL C-2847958-8115-380 -0.000409262404835726 125000 -545.882499208976 0 0 98 (C1) n - 1
REM
REM in /home/bkarasulu/work/CARBON/AIRSS/Generating-Clusters/AIREBO/with-SteepDescent/Only-C1/SD-CG-opt/Try1-1.4A-POS3A/HFTN-CG
REM
REM
REM
REM
REM
REM ./C.cell (11c1c37f851c82e70ff6c80c92926a4b)
REM
REM compiler GCC version 9.2.1 20190827 (Red Hat 9.2.1-1)
REM options -cpp -mtune=generic -march=x86-64 -g -O0 -fpre-include=/usr/include/finclude/math-vector-fortran.h
REM seed 477856218 342233719 -832746642 -807628521 855069685 -1490805506 -16589238 -158824966 194315575 1436424177 1155302653 -1613679799 1798011397 -670374914 -575944677 -1964323486 1316232738 1511089564 1806763896 -1238037131 -273091784 1893573499 -136037412 -1616100107 287716684 -1140762811 -1079392377 -1106324698 -1921453563 1026394181 412634345 -926314400 294803228
REM
CELL 1.54180   50.00000   50.00000   50.00000   90.00000   90.00000   90.00000
LATT -1
SFAC C  
C      1  0.4739060000000  0.5105970000000  0.5159350000000 1.0
C      1  0.4817260000000  0.5438430000000  0.4715180000000 1.0
C      1  0.5353180000000  0.4798090000000  0.4252150000000 1.0
C      1  0.4766470000000  0.4639380000000  0.5095530000000 1.0
C      1  0.4456640000000  0.4549440000000  0.5203770000000 1.0
C      1  0.4833280000000  0.5001540000000  0.5442820000000 1.0
C      1  0.5714420000000  0.5297130000000  0.4662990000000 1.0
C      1  0.5518670000000  0.4796330000000  0.4026410000000 1.0
C      1  0.4360940000000  0.5609490000000  0.4907440000000 1.0
C      1  0.5179970000000  0.5360960000000  0.5667710000000 1.0
C      1  0.5092650000000  0.5152900000000  0.3948780000000 1.0
C      1  0.4861240000000  0.5447580000000  0.5681320000000 1.0
C      1  0.4581510000000  0.4382820000000  0.4233590000000 1.0
C      1  0.5167400000000  0.4989450000000  0.5036570000000 1.0
C      1  0.5214260000000  0.4647810000000  0.5404590000000 1.0
C      1  0.4819430000000  0.4651730000000  0.5880690000000 1.0
C      1  0.5768810000000  0.4811540000000  0.4794200000000 1.0
C      1  0.5810890000000  0.5076640000000  0.4867020000000 1.0
C      1  0.4475450000000  0.4357580000000  0.4944080000000 1.0
C      1  0.4317460000000  0.5135690000000  0.4902200000000 1.0
C      1  0.5495650000000  0.4755570000000  0.4510510000000 1.0
C      1  0.5146270000000  0.4467360000000  0.4793430000000 1.0
C      1  0.4995130000000  0.4811530000000  0.5238170000000 1.0
C      1  0.5396120000000  0.5100810000000  0.5632840000000 1.0
C      1  0.4722710000000  0.5698600000000  0.5263470000000 1.0
C      1  0.4886150000000  0.4715120000000  0.4438450000000 1.0
C      1  0.5030700000000  0.5363380000000  0.5071540000000 1.0
C      1  0.4712980000000  0.5524420000000  0.4308670000000 1.0
C      1  0.4868180000000  0.5714870000000  0.5521680000000 1.0
C      1  0.5564730000000  0.4669910000000  0.4997660000000 1.0
C      1  0.5723290000000  0.4571060000000  0.4572980000000 1.0
C      1  0.5426500000000  0.4415850000000  0.4890650000000 1.0
C      1  0.4187810000000  0.4548870000000  0.4640500000000 1.0
C      1  0.4713560000000  0.5769330000000  0.4505380000000 1.0
C      1  0.5088010000000  0.4623550000000  0.4246510000000 1.0
C      1  0.5152520000000  0.5044720000000  0.4268210000000 1.0
C      1  0.5570510000000  0.5537180000000  0.5029450000000 1.0
C      1  0.4769780000000  0.5869560000000  0.5023860000000 1.0
C      1  0.5203970000000  0.5211660000000  0.4519360000000 1.0
C      1  0.4434570000000  0.5182160000000  0.4597550000000 1.0
C      1  0.5311940000000  0.4335080000000  0.5396830000000 1.0
C      1  0.4634560000000  0.5698580000000  0.4803440000000 1.0
C      1  0.4371520000000  0.5563450000000  0.5397350000000 1.0
C      1  0.4726650000000  0.5418530000000  0.5147210000000 1.0
C      1  0.5467120000000  0.5420710000000  0.4464830000000 1.0
C      1  0.5024110000000  0.4738240000000  0.4711110000000 1.0
C      1  0.5426440000000  0.5153140000000  0.4756750000000 1.0
C      1  0.4812710000000  0.4304390000000  0.5413960000000 1.0
C      1  0.4571530000000  0.4654420000000  0.5679300000000 1.0
C      1  0.4660410000000  0.4335060000000  0.4741890000000 1.0
C      1  0.5325260000000  0.4206810000000  0.5127570000000 1.0
C      1  0.5041520000000  0.5928600000000  0.5131760000000 1.0
C      1  0.4366310000000  0.5167780000000  0.5421090000000 1.0
C      1  0.4530390000000  0.5394890000000  0.5613710000000 1.0
C      1  0.5199970000000  0.5607030000000  0.4460590000000 1.0
C      1  0.4979590000000  0.5705250000000  0.4320540000000 1.0
C      1  0.5756860000000  0.5607760000000  0.4817510000000 1.0
C      1  0.4514670000000  0.4905610000000  0.4754670000000 1.0
C      1  0.4164670000000  0.4860870000000  0.4968780000000 1.0
C      1  0.4673310000000  0.5230000000000  0.5860050000000 1.0
C      1  0.5705630000000  0.4901230000000  0.5291940000000 1.0
C      1  0.5341800000000  0.4826920000000  0.4794110000000 1.0
C      1  0.4653060000000  0.4513210000000  0.4470590000000 1.0
C      1  0.4800150000000  0.4913670000000  0.4897390000000 1.0
C      1  0.4859500000000  0.4966600000000  0.5965560000000 1.0
C      1  0.5715170000000  0.4597250000000  0.5275100000000 1.0
C      1  0.5615480000000  0.4412540000000  0.5445290000000 1.0
C      1  0.5047020000000  0.4331390000000  0.5577930000000 1.0
C      1  0.5222710000000  0.4821520000000  0.5681120000000 1.0
C      1  0.5004020000000  0.5074030000000  0.5684700000000 1.0
C      1  0.5113930000000  0.5543140000000  0.4724240000000 1.0
C      1  0.5425010000000  0.4080330000000  0.4670240000000 1.0
C      1  0.4393140000000  0.5354400000000  0.5129960000000 1.0
C      1  0.5263360000000  0.5148480000000  0.5317600000000 1.0
C      1  0.5004590000000  0.5166120000000  0.4795740000000 1.0
C      1  0.4691730000000  0.5254040000000  0.4458470000000 1.0
C      1  0.4853730000000  0.4339010000000  0.5125900000000 1.0
C      1  0.5662140000000  0.5674320000000  0.4547070000000 1.0
C      1  0.5058380000000  0.4550580000000  0.5759730000000 1.0
C      1  0.4846340000000  0.5045580000000  0.4012510000000 1.0
C      1  0.5621110000000  0.4314430000000  0.4665250000000 1.0
C      1  0.5483740000000  0.5408400000000  0.5517430000000 1.0
C      1  0.5664360000000  0.5379490000000  0.5242340000000 1.0
C      1  0.4130160000000  0.5713700000000  0.4845740000000 1.0
C      1  0.4225420000000  0.4740480000000  0.5205370000000 1.0
C      1  0.5240220000000  0.5486850000000  0.5293490000000 1.0
C      1  0.5322960000000  0.5409280000000  0.4910590000000 1.0
C      1  0.4424960000000  0.4656940000000  0.4623760000000 1.0
C      1  0.5421530000000  0.4865800000000  0.5315020000000 1.0
C      1  0.4561710000000  0.4433840000000  0.5481860000000 1.0
C      1  0.4939280000000  0.4232870000000  0.4832100000000 1.0
C      1  0.5216090000000  0.4078090000000  0.4870600000000 1.0
C      1  0.4555000000000  0.4951630000000  0.5549580000000 1.0
C      1  0.4528110000000  0.4923740000000  0.5887390000000 1.0
C      1  0.4181800000000  0.4906370000000  0.5416080000000 1.0
C      1  0.5108360000000  0.5755820000000  0.5351270000000 1.0
C      1  0.5780790000000  0.5132450000000  0.5149570000000 1.0
C      1  0.4819820000000  0.5013240000000  0.4331100000000 1.0
END
