TITL C-2848494-1720-183 -0.00319109434155012 125000 -1086.3155183484 0 0 199 (C1) n - 1
REM
REM in /home/bkarasulu/work/CARBON/AIRSS/Generating-Clusters/AIREBO/with-SteepDescent/Only-C1/SD-CG-opt/Try1-1.4A-POS3A/HFTN-CG
REM
REM
REM
REM
REM
REM ./C.cell (11c1c37f851c82e70ff6c80c92926a4b)
REM
REM compiler GCC version 9.2.1 20190827 (Red Hat 9.2.1-1)
REM options -cpp -mtune=generic -march=x86-64 -g -O0 -fpre-include=/usr/include/finclude/math-vector-fortran.h
REM seed -1989595189 597831305 1093143102 -2003957971 -376972052 325121464 916221595 -1448476809 -1887501447 -659120114 2049482382 -189747972 -316112220 1705063513 -1967371368 1653721555 375977505 -1020800186 1736085508 510397856 915814797 390128266 -2028607469 -1620127095 1183179480 1465534551 1877888250 -10976578 -1006690948 140284740 842001869 2115276656 -22156761
REM
CELL 1.54180   50.00000   50.00000   50.00000   90.00000   90.00000   90.00000
LATT -1
SFAC C  
C      1  0.4200220000000  0.4498980000000  0.4537940000000 1.0
C      1  0.4393310000000  0.5074450000000  0.4761160000000 1.0
C      1  0.5508000000000  0.4614070000000  0.4213210000000 1.0
C      1  0.4959190000000  0.4171200000000  0.4596130000000 1.0
C      1  0.4052720000000  0.4978720000000  0.4397320000000 1.0
C      1  0.4236370000000  0.4903780000000  0.5877240000000 1.0
C      1  0.5255660000000  0.5586720000000  0.4810510000000 1.0
C      1  0.3825880000000  0.4908430000000  0.5132300000000 1.0
C      1  0.4193740000000  0.5666180000000  0.4923140000000 1.0
C      1  0.5796820000000  0.5642360000000  0.4292320000000 1.0
C      1  0.5889980000000  0.5126710000000  0.4503530000000 1.0
C      1  0.5262810000000  0.4845160000000  0.6196830000000 1.0
C      1  0.4896290000000  0.5847570000000  0.4502420000000 1.0
C      1  0.4511120000000  0.5768820000000  0.4846210000000 1.0
C      1  0.4990410000000  0.4214020000000  0.5791190000000 1.0
C      1  0.5652210000000  0.4869170000000  0.5882550000000 1.0
C      1  0.4913730000000  0.4942490000000  0.3861090000000 1.0
C      1  0.5659940000000  0.4054050000000  0.5020720000000 1.0
C      1  0.5879420000000  0.4198280000000  0.5129660000000 1.0
C      1  0.5618900000000  0.5913510000000  0.5131730000000 1.0
C      1  0.4754310000000  0.5570830000000  0.4365050000000 1.0
C      1  0.4080040000000  0.5038410000000  0.5408460000000 1.0
C      1  0.3983180000000  0.4651570000000  0.5019840000000 1.0
C      1  0.5186380000000  0.5696130000000  0.5329630000000 1.0
C      1  0.5076170000000  0.5885680000000  0.4216420000000 1.0
C      1  0.5917340000000  0.5066900000000  0.5400520000000 1.0
C      1  0.4265770000000  0.5380230000000  0.5192790000000 1.0
C      1  0.5030560000000  0.5693130000000  0.5042080000000 1.0
C      1  0.5608600000000  0.5594880000000  0.5227240000000 1.0
C      1  0.5008670000000  0.4546640000000  0.4060300000000 1.0
C      1  0.5476440000000  0.4987300000000  0.6063920000000 1.0
C      1  0.4077460000000  0.5241760000000  0.5593250000000 1.0
C      1  0.4607630000000  0.5362760000000  0.4590440000000 1.0
C      1  0.4398790000000  0.4733430000000  0.3999070000000 1.0
C      1  0.4138220000000  0.5510570000000  0.5462760000000 1.0
C      1  0.4668380000000  0.4806330000000  0.5555710000000 1.0
C      1  0.5294960000000  0.4120310000000  0.4615290000000 1.0
C      1  0.5585730000000  0.5263800000000  0.5152110000000 1.0
C      1  0.5223300000000  0.3827520000000  0.4772630000000 1.0
C      1  0.4788900000000  0.5771770000000  0.5267990000000 1.0
C      1  0.5038540000000  0.4695450000000  0.4516060000000 1.0
C      1  0.4842430000000  0.4850130000000  0.5199880000000 1.0
C      1  0.5114830000000  0.4436760000000  0.5457670000000 1.0
C      1  0.5801250000000  0.4821100000000  0.5304620000000 1.0
C      1  0.4592350000000  0.5015300000000  0.3954380000000 1.0
C      1  0.5101660000000  0.4490770000000  0.5165950000000 1.0
C      1  0.5575350000000  0.4195720000000  0.5575800000000 1.0
C      1  0.4215150000000  0.4564330000000  0.5512970000000 1.0
C      1  0.5279180000000  0.4165310000000  0.5475450000000 1.0
C      1  0.5434030000000  0.4338220000000  0.4118070000000 1.0
C      1  0.4293080000000  0.5383020000000  0.4659420000000 1.0
C      1  0.5397380000000  0.5369090000000  0.4415400000000 1.0
C      1  0.4503950000000  0.6030760000000  0.5373670000000 1.0
C      1  0.4472950000000  0.5335350000000  0.5854900000000 1.0
C      1  0.6120280000000  0.5271830000000  0.5240440000000 1.0
C      1  0.4564740000000  0.4439750000000  0.4930100000000 1.0
C      1  0.4580380000000  0.5252510000000  0.4982470000000 1.0
C      1  0.4098190000000  0.5742380000000  0.5217240000000 1.0
C      1  0.5075370000000  0.5942340000000  0.5483740000000 1.0
C      1  0.4751850000000  0.5540410000000  0.4920770000000 1.0
C      1  0.4823740000000  0.4279590000000  0.4118870000000 1.0
C      1  0.5337230000000  0.5040300000000  0.4352040000000 1.0
C      1  0.5482420000000  0.5698250000000  0.4409170000000 1.0
C      1  0.4341200000000  0.4307340000000  0.4737410000000 1.0
C      1  0.4669760000000  0.4620240000000  0.5947000000000 1.0
C      1  0.5184190000000  0.6111180000000  0.4427510000000 1.0
C      1  0.5524760000000  0.5052410000000  0.4892540000000 1.0
C      1  0.5747850000000  0.5187190000000  0.5660110000000 1.0
C      1  0.4924930000000  0.5337290000000  0.4710030000000 1.0
C      1  0.3989590000000  0.5214560000000  0.4335590000000 1.0
C      1  0.5262380000000  0.5427610000000  0.3970070000000 1.0
C      1  0.4446270000000  0.5496800000000  0.4241030000000 1.0
C      1  0.4096130000000  0.5340470000000  0.4927260000000 1.0
C      1  0.4690780000000  0.4574970000000  0.5304370000000 1.0
C      1  0.5062990000000  0.3783350000000  0.5300060000000 1.0
C      1  0.5539150000000  0.4901050000000  0.4588170000000 1.0
C      1  0.5829510000000  0.5655410000000  0.4596270000000 1.0
C      1  0.4265990000000  0.4206850000000  0.5055130000000 1.0
C      1  0.5040900000000  0.6168050000000  0.4687980000000 1.0
C      1  0.5575550000000  0.5525320000000  0.5539780000000 1.0
C      1  0.5376730000000  0.5197310000000  0.4052890000000 1.0
C      1  0.4818970000000  0.4513190000000  0.5594020000000 1.0
C      1  0.5885090000000  0.5314230000000  0.4998550000000 1.0
C      1  0.4814510000000  0.4778510000000  0.4321650000000 1.0
C      1  0.4676230000000  0.4146370000000  0.5031770000000 1.0
C      1  0.5170400000000  0.4720780000000  0.5584890000000 1.0
C      1  0.4069680000000  0.5710680000000  0.4609710000000 1.0
C      1  0.4826040000000  0.5343820000000  0.4143970000000 1.0
C      1  0.5007050000000  0.4477800000000  0.4846020000000 1.0
C      1  0.5467890000000  0.4428770000000  0.5023380000000 1.0
C      1  0.4629690000000  0.6250020000000  0.5217890000000 1.0
C      1  0.5436120000000  0.4540070000000  0.5832830000000 1.0
C      1  0.5072490000000  0.4785660000000  0.5851060000000 1.0
C      1  0.4607080000000  0.5069530000000  0.5245850000000 1.0
C      1  0.5935800000000  0.4882130000000  0.4631860000000 1.0
C      1  0.5012070000000  0.5186760000000  0.5002340000000 1.0
C      1  0.5120960000000  0.4857180000000  0.4803650000000 1.0
C      1  0.5697540000000  0.5284220000000  0.5916170000000 1.0
C      1  0.4950550000000  0.4087050000000  0.4907680000000 1.0
C      1  0.4752460000000  0.4120850000000  0.5566860000000 1.0
C      1  0.5298240000000  0.4437920000000  0.4736620000000 1.0
C      1  0.4291610000000  0.5959560000000  0.4669810000000 1.0
C      1  0.3855690000000  0.5150180000000  0.5009850000000 1.0
C      1  0.5272130000000  0.5364340000000  0.5067090000000 1.0
C      1  0.5227100000000  0.4355900000000  0.3943110000000 1.0
C      1  0.4265130000000  0.5825170000000  0.5501680000000 1.0
C      1  0.5223060000000  0.5803250000000  0.4577490000000 1.0
C      1  0.5071880000000  0.5465980000000  0.4432180000000 1.0
C      1  0.4608590000000  0.4327110000000  0.5785890000000 1.0
C      1  0.5489350000000  0.5351000000000  0.4733630000000 1.0
C      1  0.4043210000000  0.4695100000000  0.4697580000000 1.0
C      1  0.5014340000000  0.5678870000000  0.5690050000000 1.0
C      1  0.4525870000000  0.4006910000000  0.4364050000000 1.0
C      1  0.4210460000000  0.5168060000000  0.5822330000000 1.0
C      1  0.4676920000000  0.5055860000000  0.4574260000000 1.0
C      1  0.5490250000000  0.5620040000000  0.5794520000000 1.0
C      1  0.5738480000000  0.4625790000000  0.4963150000000 1.0
C      1  0.5153420000000  0.5615730000000  0.4149230000000 1.0
C      1  0.4924170000000  0.5062470000000  0.4170150000000 1.0
C      1  0.5951580000000  0.4386410000000  0.4927940000000 1.0
C      1  0.5956230000000  0.4847660000000  0.4905340000000 1.0
C      1  0.4168170000000  0.4916270000000  0.4926030000000 1.0
C      1  0.4618380000000  0.4258980000000  0.5324600000000 1.0
C      1  0.4524260000000  0.5198500000000  0.5549470000000 1.0
C      1  0.4815360000000  0.4971750000000  0.4825340000000 1.0
C      1  0.5521300000000  0.5072980000000  0.5433380000000 1.0
C      1  0.4823930000000  0.4075720000000  0.4339990000000 1.0
C      1  0.5475230000000  0.5959640000000  0.4903640000000 1.0
C      1  0.5578470000000  0.4311370000000  0.5820480000000 1.0
C      1  0.4146780000000  0.5479270000000  0.4401040000000 1.0
C      1  0.5506840000000  0.4769520000000  0.5591650000000 1.0
C      1  0.4514800000000  0.4248980000000  0.4159940000000 1.0
C      1  0.4334800000000  0.4871320000000  0.4490090000000 1.0
C      1  0.5889690000000  0.5769940000000  0.5176350000000 1.0
C      1  0.5354870000000  0.4650060000000  0.4492430000000 1.0
C      1  0.5076920000000  0.5299940000000  0.6065840000000 1.0
C      1  0.5532990000000  0.4896680000000  0.4023970000000 1.0
C      1  0.6061750000000  0.5598900000000  0.5052010000000 1.0
C      1  0.4283000000000  0.5060710000000  0.5176450000000 1.0
C      1  0.5095190000000  0.3824090000000  0.5036920000000 1.0
C      1  0.4770860000000  0.5975630000000  0.4771990000000 1.0
C      1  0.4996500000000  0.4996780000000  0.6181510000000 1.0
C      1  0.5046460000000  0.3964280000000  0.5565450000000 1.0
C      1  0.4799340000000  0.4471860000000  0.4576900000000 1.0
C      1  0.4860720000000  0.5498630000000  0.5445580000000 1.0
C      1  0.4554380000000  0.4965360000000  0.4280100000000 1.0
C      1  0.5808920000000  0.5357660000000  0.4698480000000 1.0
C      1  0.5168580000000  0.4801990000000  0.5115400000000 1.0
C      1  0.5164180000000  0.5989950000000  0.4943530000000 1.0
C      1  0.4700820000000  0.5766930000000  0.5791000000000 1.0
C      1  0.5249340000000  0.4893200000000  0.3833980000000 1.0
C      1  0.5508370000000  0.4810960000000  0.5131580000000 1.0
C      1  0.4766570000000  0.4665830000000  0.4924410000000 1.0
C      1  0.5883630000000  0.4609320000000  0.5481890000000 1.0
C      1  0.4141780000000  0.4482650000000  0.5185730000000 1.0
C      1  0.4456640000000  0.5607520000000  0.5684150000000 1.0
C      1  0.5821680000000  0.4740270000000  0.4220950000000 1.0
C      1  0.5782380000000  0.4328970000000  0.5382300000000 1.0
C      1  0.5210780000000  0.4207410000000  0.5050340000000 1.0
C      1  0.4696380000000  0.4640400000000  0.4034240000000 1.0
C      1  0.5752440000000  0.4642580000000  0.4527220000000 1.0
C      1  0.4702600000000  0.4887790000000  0.6116590000000 1.0
C      1  0.5165230000000  0.4827450000000  0.4150070000000 1.0
C      1  0.5878330000000  0.5402550000000  0.5444800000000 1.0
C      1  0.4519230000000  0.5098160000000  0.6082000000000 1.0
C      1  0.5109490000000  0.5082760000000  0.4580560000000 1.0
C      1  0.5776700000000  0.5068150000000  0.4188110000000 1.0
C      1  0.5443680000000  0.4059030000000  0.5197440000000 1.0
C      1  0.5519460000000  0.4540610000000  0.5340330000000 1.0
C      1  0.4941500000000  0.5071220000000  0.5854330000000 1.0
C      1  0.4438700000000  0.3962070000000  0.4906640000000 1.0
C      1  0.4414950000000  0.4689770000000  0.5726570000000 1.0
C      1  0.5602810000000  0.5850870000000  0.4688260000000 1.0
C      1  0.5422160000000  0.4143840000000  0.4307490000000 1.0
C      1  0.6113760000000  0.4992130000000  0.5061030000000 1.0
C      1  0.5857690000000  0.4674900000000  0.5758410000000 1.0
C      1  0.4371790000000  0.4509530000000  0.4240060000000 1.0
C      1  0.5203090000000  0.5545830000000  0.5874050000000 1.0
C      1  0.4456110000000  0.5323500000000  0.4001890000000 1.0
C      1  0.4822830000000  0.5079580000000  0.5581040000000 1.0
C      1  0.5115130000000  0.6182790000000  0.5287220000000 1.0
C      1  0.4451980000000  0.5717860000000  0.4499450000000 1.0
C      1  0.5297940000000  0.5417170000000  0.5397610000000 1.0
C      1  0.4763900000000  0.5958560000000  0.5556060000000 1.0
C      1  0.5207950000000  0.4572750000000  0.6054870000000 1.0
C      1  0.3963270000000  0.4762770000000  0.5407210000000 1.0
C      1  0.5026470000000  0.5218720000000  0.5346660000000 1.0
C      1  0.4525500000000  0.4591590000000  0.4524790000000 1.0
C      1  0.5223960000000  0.4970570000000  0.5395250000000 1.0
C      1  0.4526830000000  0.5488870000000  0.5372480000000 1.0
C      1  0.5694540000000  0.5360340000000  0.4248070000000 1.0
C      1  0.5607830000000  0.4142060000000  0.4746700000000 1.0
C      1  0.4303390000000  0.4263590000000  0.5383880000000 1.0
C      1  0.4402930000000  0.4013220000000  0.4607530000000 1.0
C      1  0.5393600000000  0.5290580000000  0.5997480000000 1.0
C      1  0.4881210000000  0.6150880000000  0.5041830000000 1.0
C      1  0.4945510000000  0.4420580000000  0.5969100000000 1.0
C      1  0.5780210000000  0.4365260000000  0.4665990000000 1.0
C      1  0.4493390000000  0.5767680000000  0.5180690000000 1.0
END
