TITL C-2848505-4874-705 0.00147496968414402 125000 -787.655031595301 0 0 148 (C1) n - 1
REM
REM in /home/bkarasulu/work/CARBON/AIRSS/Generating-Clusters/AIREBO/with-SteepDescent/Only-C1/SD-CG-opt/Try1-1.4A-POS3A/HFTN-CG
REM
REM
REM
REM
REM
REM ./C.cell (11c1c37f851c82e70ff6c80c92926a4b)
REM
REM compiler GCC version 9.2.1 20190827 (Red Hat 9.2.1-1)
REM options -cpp -mtune=generic -march=x86-64 -g -O0 -fpre-include=/usr/include/finclude/math-vector-fortran.h
REM seed -928868603 -204523521 -1792411167 -1469305378 -1260553076 1314443309 130860351 -234200191 92401251 377580885 950688066 820863122 2078463345 983902529 698824990 520203194 15850918 -159717520 963682413 326987364 -719351846 -31489341 2053571762 -46255971 433330051 410558714 -601216229 1890478927 -1385955081 -1305700239 454791538 -1049359471 1358881000
REM
CELL 1.54180   50.00000   50.00000   50.00000   90.00000   90.00000   90.00000
LATT -1
SFAC C  
C      1  0.5401150000000  0.5627370000000  0.5309940000000 1.0
C      1  0.5505820000000  0.4226550000000  0.5024350000000 1.0
C      1  0.4641470000000  0.5958540000000  0.4976990000000 1.0
C      1  0.4769720000000  0.5605260000000  0.4439330000000 1.0
C      1  0.4816110000000  0.4772560000000  0.4590730000000 1.0
C      1  0.4503350000000  0.5584410000000  0.5004690000000 1.0
C      1  0.5586290000000  0.4450660000000  0.5850110000000 1.0
C      1  0.5957980000000  0.5369640000000  0.4733320000000 1.0
C      1  0.4900880000000  0.4805010000000  0.5765850000000 1.0
C      1  0.5202350000000  0.4733720000000  0.5133190000000 1.0
C      1  0.4662810000000  0.5176380000000  0.5239300000000 1.0
C      1  0.4401780000000  0.5239450000000  0.4618610000000 1.0
C      1  0.5359100000000  0.4376970000000  0.3991840000000 1.0
C      1  0.4501310000000  0.5005800000000  0.5469390000000 1.0
C      1  0.5144480000000  0.4525160000000  0.4209960000000 1.0
C      1  0.5444170000000  0.5758180000000  0.4664540000000 1.0
C      1  0.5075920000000  0.5699470000000  0.4336180000000 1.0
C      1  0.4595120000000  0.4906090000000  0.5875040000000 1.0
C      1  0.4961920000000  0.5103590000000  0.4883620000000 1.0
C      1  0.5129900000000  0.5132330000000  0.5850150000000 1.0
C      1  0.5433800000000  0.4703760000000  0.4203850000000 1.0
C      1  0.5442660000000  0.5365330000000  0.4147610000000 1.0
C      1  0.5576450000000  0.5828890000000  0.5099280000000 1.0
C      1  0.5913080000000  0.4482400000000  0.5237440000000 1.0
C      1  0.4445190000000  0.5438470000000  0.5283880000000 1.0
C      1  0.4947470000000  0.4388160000000  0.5932180000000 1.0
C      1  0.4783170000000  0.5669890000000  0.5276530000000 1.0
C      1  0.4123340000000  0.4935360000000  0.5361150000000 1.0
C      1  0.4824200000000  0.5092170000000  0.3967590000000 1.0
C      1  0.4626070000000  0.5182950000000  0.4201580000000 1.0
C      1  0.5666790000000  0.4796290000000  0.5242630000000 1.0
C      1  0.5345050000000  0.4046900000000  0.4784350000000 1.0
C      1  0.4895840000000  0.5646110000000  0.4062560000000 1.0
C      1  0.4976470000000  0.4449560000000  0.4824620000000 1.0
C      1  0.5308750000000  0.4182380000000  0.4466300000000 1.0
C      1  0.5778090000000  0.4511170000000  0.4956820000000 1.0
C      1  0.4887470000000  0.6025010000000  0.5131650000000 1.0
C      1  0.4703640000000  0.5763370000000  0.4709380000000 1.0
C      1  0.5523700000000  0.4336980000000  0.5540390000000 1.0
C      1  0.4945940000000  0.4173800000000  0.4628070000000 1.0
C      1  0.5834810000000  0.4770100000000  0.4546960000000 1.0
C      1  0.5396850000000  0.4114910000000  0.5316280000000 1.0
C      1  0.5241560000000  0.5018860000000  0.4564210000000 1.0
C      1  0.4822140000000  0.3993840000000  0.5427680000000 1.0
C      1  0.5738420000000  0.4996230000000  0.4976760000000 1.0
C      1  0.4347450000000  0.4702610000000  0.5467500000000 1.0
C      1  0.5331990000000  0.5577280000000  0.5819300000000 1.0
C      1  0.4421160000000  0.4732880000000  0.4551340000000 1.0
C      1  0.4140650000000  0.5072980000000  0.5065700000000 1.0
C      1  0.5494640000000  0.4351050000000  0.4273410000000 1.0
C      1  0.4250680000000  0.5177050000000  0.4334530000000 1.0
C      1  0.5560520000000  0.5328790000000  0.5100540000000 1.0
C      1  0.5499800000000  0.5284020000000  0.5859780000000 1.0
C      1  0.3988370000000  0.4886240000000  0.4916430000000 1.0
C      1  0.5730950000000  0.5582340000000  0.4647020000000 1.0
C      1  0.5034270000000  0.4438920000000  0.5344530000000 1.0
C      1  0.4850390000000  0.4405920000000  0.4128410000000 1.0
C      1  0.5466330000000  0.4646280000000  0.4937530000000 1.0
C      1  0.5280520000000  0.5171200000000  0.5112040000000 1.0
C      1  0.4222710000000  0.4481070000000  0.5266180000000 1.0
C      1  0.5059770000000  0.4779270000000  0.4827840000000 1.0
C      1  0.5053650000000  0.5425450000000  0.4859990000000 1.0
C      1  0.5423220000000  0.5949830000000  0.4879190000000 1.0
C      1  0.5550130000000  0.4921850000000  0.5676430000000 1.0
C      1  0.5005440000000  0.4165890000000  0.4312750000000 1.0
C      1  0.4493300000000  0.5466720000000  0.5820810000000 1.0
C      1  0.4812930000000  0.5137700000000  0.5754240000000 1.0
C      1  0.5927490000000  0.5240120000000  0.4972970000000 1.0
C      1  0.4084280000000  0.5326410000000  0.4585420000000 1.0
C      1  0.5446440000000  0.5086360000000  0.4827550000000 1.0
C      1  0.5353460000000  0.4740180000000  0.4657770000000 1.0
C      1  0.5398280000000  0.5029840000000  0.4112760000000 1.0
C      1  0.5251220000000  0.4540350000000  0.5545350000000 1.0
C      1  0.4360000000000  0.4775330000000  0.4821380000000 1.0
C      1  0.5217670000000  0.5536750000000  0.4071760000000 1.0
C      1  0.4254560000000  0.5720580000000  0.5283190000000 1.0
C      1  0.4898940000000  0.4733410000000  0.5249580000000 1.0
C      1  0.4591720000000  0.4867020000000  0.4071990000000 1.0
C      1  0.5667060000000  0.5427310000000  0.5399700000000 1.0
C      1  0.4979830000000  0.5054050000000  0.5219640000000 1.0
C      1  0.5877760000000  0.4937740000000  0.5593720000000 1.0
C      1  0.5069410000000  0.4010500000000  0.4970610000000 1.0
C      1  0.4977210000000  0.5882330000000  0.5427660000000 1.0
C      1  0.5204860000000  0.5657500000000  0.5033880000000 1.0
C      1  0.5874730000000  0.4764810000000  0.4824760000000 1.0
C      1  0.5924890000000  0.5432740000000  0.5201260000000 1.0
C      1  0.5947950000000  0.4745500000000  0.5385760000000 1.0
C      1  0.4377980000000  0.5303450000000  0.5573930000000 1.0
C      1  0.5830640000000  0.4281060000000  0.5405210000000 1.0
C      1  0.5087420000000  0.4111940000000  0.5262350000000 1.0
C      1  0.5139500000000  0.4617710000000  0.5832700000000 1.0
C      1  0.4474020000000  0.5519390000000  0.4692560000000 1.0
C      1  0.4818490000000  0.5601410000000  0.4973040000000 1.0
C      1  0.5500750000000  0.4491600000000  0.5238360000000 1.0
C      1  0.4634140000000  0.4503760000000  0.4549120000000 1.0
C      1  0.4725580000000  0.5367650000000  0.5991320000000 1.0
C      1  0.4003120000000  0.5480200000000  0.4802720000000 1.0
C      1  0.5076860000000  0.5247320000000  0.4431380000000 1.0
C      1  0.5270410000000  0.4363220000000  0.4739060000000 1.0
C      1  0.5700120000000  0.5222660000000  0.5614690000000 1.0
C      1  0.5021720000000  0.5453210000000  0.5882320000000 1.0
C      1  0.4367040000000  0.4768570000000  0.5800520000000 1.0
C      1  0.5054820000000  0.4812320000000  0.4368610000000 1.0
C      1  0.4552020000000  0.4445710000000  0.5565450000000 1.0
C      1  0.5280460000000  0.5788010000000  0.5557250000000 1.0
C      1  0.5818200000000  0.5033960000000  0.4457640000000 1.0
C      1  0.5375320000000  0.5033690000000  0.6016880000000 1.0
C      1  0.4297760000000  0.4468130000000  0.5790190000000 1.0
C      1  0.4999450000000  0.5765610000000  0.5746450000000 1.0
C      1  0.5718730000000  0.5581060000000  0.4975190000000 1.0
C      1  0.4568360000000  0.4223970000000  0.4730980000000 1.0
C      1  0.4733200000000  0.4281360000000  0.5331940000000 1.0
C      1  0.4716440000000  0.4340830000000  0.5013890000000 1.0
C      1  0.4219560000000  0.4568640000000  0.4960740000000 1.0
C      1  0.4986150000000  0.4826800000000  0.4035600000000 1.0
C      1  0.5609470000000  0.4346420000000  0.4718840000000 1.0
C      1  0.4614770000000  0.5577740000000  0.4141170000000 1.0
C      1  0.5585570000000  0.4595420000000  0.4488370000000 1.0
C      1  0.5216330000000  0.5518870000000  0.4575370000000 1.0
C      1  0.4394890000000  0.4317940000000  0.5064190000000 1.0
C      1  0.4008560000000  0.5349790000000  0.5053260000000 1.0
C      1  0.4066600000000  0.5763590000000  0.4813760000000 1.0
C      1  0.4768400000000  0.5265530000000  0.4462150000000 1.0
C      1  0.4851440000000  0.5330830000000  0.5476380000000 1.0
C      1  0.4673840000000  0.5571220000000  0.5583260000000 1.0
C      1  0.5438950000000  0.4735220000000  0.5910760000000 1.0
C      1  0.5131070000000  0.5959100000000  0.4984990000000 1.0
C      1  0.5320980000000  0.5341540000000  0.5577390000000 1.0
C      1  0.4458740000000  0.4062000000000  0.4451530000000 1.0
C      1  0.4675090000000  0.4255460000000  0.4348970000000 1.0
C      1  0.4770380000000  0.4683100000000  0.5519520000000 1.0
C      1  0.5631460000000  0.5190000000000  0.4576680000000 1.0
C      1  0.4736660000000  0.4314260000000  0.5818920000000 1.0
C      1  0.5106210000000  0.5160200000000  0.4144980000000 1.0
C      1  0.5144860000000  0.5056620000000  0.5517400000000 1.0
C      1  0.4672260000000  0.5055840000000  0.4712060000000 1.0
C      1  0.4471260000000  0.5050930000000  0.4986500000000 1.0
C      1  0.4108260000000  0.5135700000000  0.5557460000000 1.0
C      1  0.4315310000000  0.5861420000000  0.4995080000000 1.0
C      1  0.4798060000000  0.3994550000000  0.4833260000000 1.0
C      1  0.5147220000000  0.5401320000000  0.5324000000000 1.0
C      1  0.5514520000000  0.5434020000000  0.4435700000000 1.0
C      1  0.4513900000000  0.5805420000000  0.5425940000000 1.0
C      1  0.4682550000000  0.4578530000000  0.3969970000000 1.0
C      1  0.5373340000000  0.4828110000000  0.5411510000000 1.0
C      1  0.4383880000000  0.4889020000000  0.4321310000000 1.0
C      1  0.4384370000000  0.5386240000000  0.4121940000000 1.0
C      1  0.4013310000000  0.5516620000000  0.5268250000000 1.0
END
