TITL C-2847958-8115-146 0.00470491776857679 125000 -155.873192273297 0 0 28 (C1) n - 1
REM
REM in /home/bkarasulu/work/CARBON/AIRSS/Generating-Clusters/AIREBO/with-SteepDescent/Only-C1/SD-CG-opt/Try1-1.4A-POS3A/HFTN-CG
REM
REM
REM
REM
REM
REM ./C.cell (11c1c37f851c82e70ff6c80c92926a4b)
REM
REM compiler GCC version 9.2.1 20190827 (Red Hat 9.2.1-1)
REM options -cpp -mtune=generic -march=x86-64 -g -O0 -fpre-include=/usr/include/finclude/math-vector-fortran.h
REM seed -1957240301 928932519 -1640108849 579412510 57019061 -1336530613 195929776 725357706 1368235130 -322852880 -1443493414 -55658206 1517941648 531786099 -708274600 -1097478970 697654041 -1587197008 44361264 1549239107 -35618299 -342786398 -965202405 1609697490 -1547756062 -1304183657 676178811 2057709033 729136079 -113629333 -1189958494 -268253065 -231637084
REM
CELL 1.54180   50.00000   50.00000   50.00000   90.00000   90.00000   90.00000
LATT -1
SFAC C  
C      1  0.5723710000000  0.5175810000000  0.5880830000000 1.0
C      1  0.6069710000000  0.5102170000000  0.5202720000000 1.0
C      1  0.5651140000000  0.5023200000000  0.4692220000000 1.0
C      1  0.4350210000000  0.4814020000000  0.5818310000000 1.0
C      1  0.5276090000000  0.5044970000000  0.5313190000000 1.0
C      1  0.5326070000000  0.5020740000000  0.5039580000000 1.0
C      1  0.4098820000000  0.4592980000000  0.5396060000000 1.0
C      1  0.5796300000000  0.4905050000000  0.5164000000000 1.0
C      1  0.4641940000000  0.5433590000000  0.4070550000000 1.0
C      1  0.4122740000000  0.4717780000000  0.5143010000000 1.0
C      1  0.5848890000000  0.5120020000000  0.5423850000000 1.0
C      1  0.4858780000000  0.4966220000000  0.4917530000000 1.0
C      1  0.4712240000000  0.5484260000000  0.3814460000000 1.0
C      1  0.4370790000000  0.4814490000000  0.5065430000000 1.0
C      1  0.5593240000000  0.4987620000000  0.4963430000000 1.0
C      1  0.5119800000000  0.5025920000000  0.4846590000000 1.0
C      1  0.4999550000000  0.5197320000000  0.4404250000000 1.0
C      1  0.5184710000000  0.5089400000000  0.4578480000000 1.0
C      1  0.5662110000000  0.5144760000000  0.5620430000000 1.0
C      1  0.5396610000000  0.5153360000000  0.5530730000000 1.0
C      1  0.5827500000000  0.4631220000000  0.5203740000000 1.0
C      1  0.4828900000000  0.5325170000000  0.4244650000000 1.0
C      1  0.3959280000000  0.4362940000000  0.5420690000000 1.0
C      1  0.5450890000000  0.5033530000000  0.4503710000000 1.0
C      1  0.4613470000000  0.4883620000000  0.4980230000000 1.0
C      1  0.4217200000000  0.4713780000000  0.5615890000000 1.0
C      1  0.4393630000000  0.5490800000000  0.4160910000000 1.0
C      1  0.3905660000000  0.4745250000000  0.4984540000000 1.0
END
