TITL C-2848497-6229-21 -0.00245826052431323 125000 -895.184870378568 0 0 165 (C1) n - 1
REM
REM in /home/bkarasulu/work/CARBON/AIRSS/Generating-Clusters/AIREBO/with-SteepDescent/Only-C1/SD-CG-opt/Try1-1.4A-POS3A/HFTN-CG
REM
REM
REM
REM
REM
REM ./C.cell (11c1c37f851c82e70ff6c80c92926a4b)
REM
REM compiler GCC version 9.2.1 20190827 (Red Hat 9.2.1-1)
REM options -cpp -mtune=generic -march=x86-64 -g -O0 -fpre-include=/usr/include/finclude/math-vector-fortran.h
REM seed -724058718 955811461 -1215547611 -433695296 -1139084401 -1396417707 -1836650777 1398329571 1672913322 -396898697 -1733477106 449442665 -2039681780 -279795868 777971909 405056138 -104288177 610813984 391324573 -2050925641 1127065240 486607153 -1859562053 1832300684 -596665507 719990864 -667372413 776864746 1750461247 -560852978 -518061754 -1703440999 -641558271
REM
CELL 1.54180   50.00000   50.00000   50.00000   90.00000   90.00000   90.00000
LATT -1
SFAC C  
C      1  0.4327890000000  0.5457570000000  0.5201450000000 1.0
C      1  0.4085280000000  0.5790500000000  0.4726520000000 1.0
C      1  0.5292890000000  0.4384960000000  0.4587470000000 1.0
C      1  0.4874900000000  0.4472130000000  0.5164420000000 1.0
C      1  0.5340450000000  0.4979600000000  0.4884890000000 1.0
C      1  0.5633860000000  0.5087520000000  0.4937330000000 1.0
C      1  0.5300570000000  0.4725840000000  0.5782400000000 1.0
C      1  0.5109510000000  0.4898440000000  0.5401400000000 1.0
C      1  0.4550700000000  0.5963180000000  0.5331960000000 1.0
C      1  0.5443300000000  0.4014480000000  0.4829450000000 1.0
C      1  0.4652240000000  0.5698690000000  0.4546260000000 1.0
C      1  0.4886930000000  0.5878010000000  0.4492800000000 1.0
C      1  0.5042570000000  0.4842930000000  0.4011530000000 1.0
C      1  0.5461860000000  0.5928620000000  0.4920700000000 1.0
C      1  0.4352060000000  0.5497620000000  0.4709200000000 1.0
C      1  0.4624550000000  0.4368170000000  0.4189730000000 1.0
C      1  0.4212770000000  0.5219550000000  0.5506370000000 1.0
C      1  0.5387100000000  0.4225280000000  0.5532170000000 1.0
C      1  0.5672150000000  0.5748070000000  0.5219380000000 1.0
C      1  0.5202310000000  0.5292650000000  0.4183320000000 1.0
C      1  0.4432080000000  0.5448690000000  0.5634490000000 1.0
C      1  0.4522320000000  0.5657650000000  0.5387850000000 1.0
C      1  0.5981700000000  0.4790460000000  0.4845970000000 1.0
C      1  0.4817620000000  0.5276700000000  0.6015380000000 1.0
C      1  0.5397570000000  0.4537680000000  0.4235700000000 1.0
C      1  0.5442240000000  0.5937030000000  0.5423710000000 1.0
C      1  0.5542550000000  0.5484170000000  0.4646240000000 1.0
C      1  0.4932640000000  0.4065870000000  0.4782470000000 1.0
C      1  0.5597760000000  0.4366210000000  0.4946340000000 1.0
C      1  0.4441180000000  0.5567530000000  0.4325920000000 1.0
C      1  0.5470100000000  0.5039430000000  0.4337310000000 1.0
C      1  0.5216180000000  0.5519240000000  0.4642190000000 1.0
C      1  0.5307740000000  0.5886040000000  0.5148120000000 1.0
C      1  0.4581260000000  0.4341570000000  0.5620880000000 1.0
C      1  0.5602810000000  0.5403150000000  0.5032090000000 1.0
C      1  0.4083820000000  0.5226330000000  0.4826720000000 1.0
C      1  0.4056040000000  0.5014750000000  0.5299190000000 1.0
C      1  0.5334510000000  0.3885390000000  0.5249350000000 1.0
C      1  0.4968290000000  0.5290280000000  0.3999150000000 1.0
C      1  0.5908610000000  0.5369840000000  0.4887050000000 1.0
C      1  0.3925100000000  0.4799260000000  0.4653960000000 1.0
C      1  0.5197190000000  0.5288210000000  0.4891060000000 1.0
C      1  0.4506990000000  0.5072600000000  0.5522990000000 1.0
C      1  0.5848120000000  0.4746500000000  0.4321610000000 1.0
C      1  0.4820300000000  0.4020880000000  0.5256980000000 1.0
C      1  0.5841900000000  0.4792900000000  0.5324280000000 1.0
C      1  0.5494720000000  0.4989660000000  0.5344720000000 1.0
C      1  0.5559530000000  0.3951070000000  0.5075980000000 1.0
C      1  0.4854180000000  0.3817060000000  0.4986940000000 1.0
C      1  0.4832100000000  0.5993370000000  0.5042640000000 1.0
C      1  0.5777710000000  0.4805350000000  0.4632150000000 1.0
C      1  0.4355320000000  0.4558360000000  0.4672380000000 1.0
C      1  0.5048300000000  0.5111350000000  0.5998840000000 1.0
C      1  0.5005970000000  0.4814930000000  0.5886530000000 1.0
C      1  0.5107060000000  0.5710950000000  0.5104140000000 1.0
C      1  0.4149870000000  0.5552280000000  0.5475610000000 1.0
C      1  0.4490910000000  0.4739490000000  0.5033950000000 1.0
C      1  0.4400740000000  0.4792040000000  0.5464970000000 1.0
C      1  0.4879110000000  0.4229140000000  0.4290960000000 1.0
C      1  0.5306590000000  0.5409050000000  0.5650350000000 1.0
C      1  0.4833920000000  0.5415150000000  0.4593360000000 1.0
C      1  0.4827370000000  0.4150560000000  0.5529890000000 1.0
C      1  0.4459820000000  0.5061610000000  0.5030660000000 1.0
C      1  0.4435110000000  0.4856360000000  0.4565000000000 1.0
C      1  0.4985650000000  0.6161350000000  0.5258230000000 1.0
C      1  0.5584810000000  0.5172180000000  0.4621370000000 1.0
C      1  0.5516550000000  0.4925020000000  0.5677820000000 1.0
C      1  0.5345870000000  0.4693490000000  0.5267710000000 1.0
C      1  0.5602570000000  0.4292840000000  0.4475650000000 1.0
C      1  0.5567760000000  0.5236810000000  0.5766660000000 1.0
C      1  0.5485900000000  0.5241430000000  0.4127400000000 1.0
C      1  0.4786440000000  0.4871930000000  0.5138860000000 1.0
C      1  0.5635290000000  0.5576600000000  0.5444980000000 1.0
C      1  0.4735540000000  0.5177050000000  0.4371350000000 1.0
C      1  0.5003150000000  0.4452170000000  0.4495080000000 1.0
C      1  0.4583150000000  0.4574670000000  0.5297960000000 1.0
C      1  0.5918150000000  0.5241420000000  0.5201740000000 1.0
C      1  0.5268000000000  0.4823240000000  0.4244510000000 1.0
C      1  0.5880300000000  0.5589500000000  0.4459770000000 1.0
C      1  0.4766910000000  0.4926530000000  0.4599220000000 1.0
C      1  0.4419630000000  0.5827840000000  0.4760360000000 1.0
C      1  0.5671080000000  0.5691340000000  0.4884110000000 1.0
C      1  0.5111670000000  0.5260390000000  0.4470790000000 1.0
C      1  0.4630790000000  0.5431240000000  0.5850660000000 1.0
C      1  0.4964860000000  0.5872770000000  0.5660490000000 1.0
C      1  0.5879450000000  0.4947490000000  0.5074830000000 1.0
C      1  0.4887240000000  0.5266910000000  0.5592420000000 1.0
C      1  0.5161010000000  0.4986330000000  0.4593420000000 1.0
C      1  0.4102890000000  0.4532240000000  0.5448330000000 1.0
C      1  0.5820970000000  0.4899860000000  0.5574500000000 1.0
C      1  0.4714630000000  0.6062150000000  0.5534950000000 1.0
C      1  0.5482840000000  0.5731280000000  0.5668720000000 1.0
C      1  0.5000280000000  0.4785360000000  0.4815720000000 1.0
C      1  0.5717570000000  0.4497460000000  0.4263700000000 1.0
C      1  0.5619240000000  0.5734390000000  0.4454600000000 1.0
C      1  0.4205440000000  0.4700600000000  0.5694660000000 1.0
C      1  0.5691470000000  0.4467270000000  0.5625080000000 1.0
C      1  0.4997860000000  0.4475050000000  0.5831190000000 1.0
C      1  0.4794430000000  0.4021700000000  0.4505010000000 1.0
C      1  0.4784480000000  0.4351600000000  0.4865500000000 1.0
C      1  0.4157010000000  0.4290530000000  0.4967330000000 1.0
C      1  0.5379120000000  0.5878170000000  0.4455120000000 1.0
C      1  0.5793540000000  0.5314040000000  0.5929660000000 1.0
C      1  0.4991510000000  0.6035300000000  0.4745230000000 1.0
C      1  0.4009300000000  0.4852440000000  0.4347190000000 1.0
C      1  0.4513960000000  0.5977310000000  0.5013140000000 1.0
C      1  0.5121200000000  0.4182930000000  0.5705780000000 1.0
C      1  0.4642720000000  0.4607340000000  0.5720990000000 1.0
C      1  0.5550740000000  0.4221390000000  0.5250630000000 1.0
C      1  0.4590490000000  0.4938770000000  0.4206170000000 1.0
C      1  0.4277990000000  0.5333660000000  0.4420680000000 1.0
C      1  0.5197460000000  0.5682620000000  0.5813610000000 1.0
C      1  0.4382470000000  0.4246140000000  0.4277440000000 1.0
C      1  0.4150410000000  0.4997810000000  0.4686920000000 1.0
C      1  0.4939810000000  0.4467380000000  0.5496080000000 1.0
C      1  0.5316770000000  0.6008560000000  0.4697650000000 1.0
C      1  0.4546590000000  0.4084340000000  0.4687290000000 1.0
C      1  0.4857700000000  0.4775100000000  0.5517790000000 1.0
C      1  0.4358780000000  0.4350720000000  0.5389410000000 1.0
C      1  0.5649700000000  0.4543200000000  0.5298080000000 1.0
C      1  0.4362900000000  0.4254260000000  0.4561690000000 1.0
C      1  0.4941280000000  0.5587660000000  0.4139180000000 1.0
C      1  0.4690580000000  0.5463000000000  0.4225370000000 1.0
C      1  0.5113220000000  0.4037940000000  0.5137120000000 1.0
C      1  0.4658680000000  0.5128430000000  0.5275410000000 1.0
C      1  0.5311410000000  0.5191750000000  0.5985670000000 1.0
C      1  0.5482090000000  0.4663660000000  0.4540210000000 1.0
C      1  0.4215470000000  0.4603770000000  0.4959240000000 1.0
C      1  0.5085300000000  0.4942230000000  0.5094570000000 1.0
C      1  0.4689780000000  0.5120210000000  0.4843450000000 1.0
C      1  0.5854180000000  0.5066220000000  0.4445260000000 1.0
C      1  0.4291060000000  0.5040580000000  0.4318090000000 1.0
C      1  0.5179490000000  0.5213780000000  0.5441440000000 1.0
C      1  0.4633890000000  0.4654160000000  0.4279520000000 1.0
C      1  0.3834460000000  0.4707530000000  0.4910230000000 1.0
C      1  0.4845070000000  0.5034590000000  0.4014310000000 1.0
C      1  0.5739360000000  0.4261590000000  0.4730820000000 1.0
C      1  0.5132180000000  0.6051260000000  0.5465420000000 1.0
C      1  0.4677180000000  0.4499620000000  0.4579640000000 1.0
C      1  0.4995450000000  0.4750650000000  0.4418990000000 1.0
C      1  0.5574450000000  0.4558440000000  0.5826350000000 1.0
C      1  0.5201650000000  0.4247440000000  0.4884120000000 1.0
C      1  0.4871080000000  0.5377810000000  0.4928440000000 1.0
C      1  0.4332030000000  0.4171550000000  0.5148150000000 1.0
C      1  0.5126310000000  0.5703620000000  0.4370700000000 1.0
C      1  0.5186550000000  0.4310810000000  0.4170760000000 1.0
C      1  0.4783120000000  0.5682040000000  0.5170960000000 1.0
C      1  0.4596630000000  0.4112180000000  0.5017180000000 1.0
C      1  0.4902690000000  0.5555120000000  0.5741310000000 1.0
C      1  0.4560190000000  0.5512470000000  0.4958590000000 1.0
C      1  0.4468550000000  0.4808130000000  0.5856710000000 1.0
C      1  0.5674880000000  0.5262390000000  0.5438900000000 1.0
C      1  0.5446920000000  0.4657620000000  0.4857260000000 1.0
C      1  0.5264790000000  0.4515360000000  0.5536420000000 1.0
C      1  0.5053870000000  0.5722550000000  0.4820910000000 1.0
C      1  0.5916750000000  0.4381570000000  0.5186930000000 1.0
C      1  0.5165270000000  0.4560920000000  0.5011350000000 1.0
C      1  0.5360180000000  0.5251290000000  0.5177360000000 1.0
C      1  0.4203390000000  0.5202160000000  0.5093340000000 1.0
C      1  0.4013770000000  0.5501500000000  0.4743090000000 1.0
C      1  0.5939840000000  0.5352990000000  0.4606920000000 1.0
C      1  0.4014110000000  0.4721810000000  0.5198830000000 1.0
C      1  0.6203390000000  0.4655150000000  0.4839180000000 1.0
C      1  0.4751780000000  0.4990920000000  0.5744460000000 1.0
C      1  0.4854870000000  0.5364080000000  0.5267860000000 1.0
END
