TITL C-2848499-1157-590 0.000862025903555367 125000 -526.967765739718 0 0 97 (C1) n - 1
REM
REM in /home/bkarasulu/work/CARBON/AIRSS/Generating-Clusters/AIREBO/with-SteepDescent/Only-C1/SD-CG-opt/Try1-1.4A-POS3A/HFTN-CG
REM
REM
REM
REM
REM
REM ./C.cell (11c1c37f851c82e70ff6c80c92926a4b)
REM
REM compiler GCC version 9.2.1 20190827 (Red Hat 9.2.1-1)
REM options -cpp -mtune=generic -march=x86-64 -g -O0 -fpre-include=/usr/include/finclude/math-vector-fortran.h
REM seed 1525151302 1723317939 1328388146 -1764781437 -117103119 1915436940 -2129355299 -1325874077 -1031688266 -1662398006 -77052306 -1610679144 -902932622 -2032500027 -1744020089 -1351136953 1294961412 -472698727 861074189 1289206634 -434041905 1812261692 422687074 -889111684 -993467155 501814553 1313063906 -1867094481 -1031055808 1395345980 -19479525 -1304126988 -981948722
REM
CELL 1.54180   50.00000   50.00000   50.00000   90.00000   90.00000   90.00000
LATT -1
SFAC C  
C      1  0.5153470000000  0.4413790000000  0.4793760000000 1.0
C      1  0.4902780000000  0.5515010000000  0.4689820000000 1.0
C      1  0.4411160000000  0.5264620000000  0.5308680000000 1.0
C      1  0.5272740000000  0.4731590000000  0.4773990000000 1.0
C      1  0.5406940000000  0.4315530000000  0.5384980000000 1.0
C      1  0.4745060000000  0.5411610000000  0.4221810000000 1.0
C      1  0.4982790000000  0.5032840000000  0.5841220000000 1.0
C      1  0.5899690000000  0.5136650000000  0.5514960000000 1.0
C      1  0.4832760000000  0.4456730000000  0.4898200000000 1.0
C      1  0.5840680000000  0.5567770000000  0.4662020000000 1.0
C      1  0.4987690000000  0.5152470000000  0.5531000000000 1.0
C      1  0.4661340000000  0.5517220000000  0.4480430000000 1.0
C      1  0.4674090000000  0.5086790000000  0.5286710000000 1.0
C      1  0.4894920000000  0.4519320000000  0.5542660000000 1.0
C      1  0.5438430000000  0.4937880000000  0.5759960000000 1.0
C      1  0.4286630000000  0.4971150000000  0.5657470000000 1.0
C      1  0.4295980000000  0.4403380000000  0.4781460000000 1.0
C      1  0.5164970000000  0.5046680000000  0.5302740000000 1.0
C      1  0.5418660000000  0.5774470000000  0.4728470000000 1.0
C      1  0.5188020000000  0.5668890000000  0.4615470000000 1.0
C      1  0.5132350000000  0.5176280000000  0.4554390000000 1.0
C      1  0.4140510000000  0.4720200000000  0.4968570000000 1.0
C      1  0.5443520000000  0.4934080000000  0.4928080000000 1.0
C      1  0.4802660000000  0.4059760000000  0.4933930000000 1.0
C      1  0.4550340000000  0.4531230000000  0.4888260000000 1.0
C      1  0.5123080000000  0.4520270000000  0.4471950000000 1.0
C      1  0.5638020000000  0.5187210000000  0.5045210000000 1.0
C      1  0.5568000000000  0.5168500000000  0.5579430000000 1.0
C      1  0.5046910000000  0.6227430000000  0.5198980000000 1.0
C      1  0.5017520000000  0.4985990000000  0.4323390000000 1.0
C      1  0.4633580000000  0.5423400000000  0.5745650000000 1.0
C      1  0.5401620000000  0.4325990000000  0.4454980000000 1.0
C      1  0.5078070000000  0.4570300000000  0.5762680000000 1.0
C      1  0.4831690000000  0.4229120000000  0.4646880000000 1.0
C      1  0.5428270000000  0.5221470000000  0.5310910000000 1.0
C      1  0.5263130000000  0.5351490000000  0.5064220000000 1.0
C      1  0.4882430000000  0.5772320000000  0.4993900000000 1.0
C      1  0.5197320000000  0.5451600000000  0.4426960000000 1.0
C      1  0.5296620000000  0.4899340000000  0.4204900000000 1.0
C      1  0.5665620000000  0.5523930000000  0.5084680000000 1.0
C      1  0.5350950000000  0.4664260000000  0.5726150000000 1.0
C      1  0.5738790000000  0.5599220000000  0.5333910000000 1.0
C      1  0.5513870000000  0.4975760000000  0.4357840000000 1.0
C      1  0.4170330000000  0.4657370000000  0.5212040000000 1.0
C      1  0.5340900000000  0.4059300000000  0.4527060000000 1.0
C      1  0.6118750000000  0.5152370000000  0.4853540000000 1.0
C      1  0.4747360000000  0.4399840000000  0.4412070000000 1.0
C      1  0.4412940000000  0.4706500000000  0.5386060000000 1.0
C      1  0.4517660000000  0.4799740000000  0.4443270000000 1.0
C      1  0.4617940000000  0.4321350000000  0.4200030000000 1.0
C      1  0.4849140000000  0.4721320000000  0.4456330000000 1.0
C      1  0.5677610000000  0.4748340000000  0.4498610000000 1.0
C      1  0.5657540000000  0.5664850000000  0.4835320000000 1.0
C      1  0.4229540000000  0.5561370000000  0.4730250000000 1.0
C      1  0.5016110000000  0.4310950000000  0.5302620000000 1.0
C      1  0.5853570000000  0.5186320000000  0.4780920000000 1.0
C      1  0.5499820000000  0.4532470000000  0.5528000000000 1.0
C      1  0.5130730000000  0.4084090000000  0.4707100000000 1.0
C      1  0.4662130000000  0.5733290000000  0.4780090000000 1.0
C      1  0.4960560000000  0.4863230000000  0.4744580000000 1.0
C      1  0.4865720000000  0.4781780000000  0.5841410000000 1.0
C      1  0.4194410000000  0.5128900000000  0.5458170000000 1.0
C      1  0.4422000000000  0.5584630000000  0.5190400000000 1.0
C      1  0.5262950000000  0.4619120000000  0.4192070000000 1.0
C      1  0.4558140000000  0.5165150000000  0.4800150000000 1.0
C      1  0.4642810000000  0.5411290000000  0.5016860000000 1.0
C      1  0.5764570000000  0.5058130000000  0.4550440000000 1.0
C      1  0.4424400000000  0.4975940000000  0.4259460000000 1.0
C      1  0.5881310000000  0.4670630000000  0.5155800000000 1.0
C      1  0.4842560000000  0.5187140000000  0.4159330000000 1.0
C      1  0.4661380000000  0.5108780000000  0.5616250000000 1.0
C      1  0.4914970000000  0.5340030000000  0.5816790000000 1.0
C      1  0.4410830000000  0.5354700000000  0.4583540000000 1.0
C      1  0.4690620000000  0.4478080000000  0.5314370000000 1.0
C      1  0.5293230000000  0.5192030000000  0.4842560000000 1.0
C      1  0.4501760000000  0.4869950000000  0.4888450000000 1.0
C      1  0.3934450000000  0.5153970000000  0.5375160000000 1.0
C      1  0.4923340000000  0.5158500000000  0.5136790000000 1.0
C      1  0.4665400000000  0.4786150000000  0.5172580000000 1.0
C      1  0.5773310000000  0.5433030000000  0.5596560000000 1.0
C      1  0.5496470000000  0.4566420000000  0.4604850000000 1.0
C      1  0.5815600000000  0.5573600000000  0.5830180000000 1.0
C      1  0.4972010000000  0.4727840000000  0.5037570000000 1.0
C      1  0.4955580000000  0.6000180000000  0.5105750000000 1.0
C      1  0.5588190000000  0.4730590000000  0.5318820000000 1.0
C      1  0.4294700000000  0.5201890000000  0.4343010000000 1.0
C      1  0.4896890000000  0.5192830000000  0.4799220000000 1.0
C      1  0.4533500000000  0.5503290000000  0.5490760000000 1.0
C      1  0.5804970000000  0.4983970000000  0.5259820000000 1.0
C      1  0.5282830000000  0.4759730000000  0.5171860000000 1.0
C      1  0.3690220000000  0.5157860000000  0.5280160000000 1.0
C      1  0.4967210000000  0.5489620000000  0.5082720000000 1.0
C      1  0.4567780000000  0.4789540000000  0.5677730000000 1.0
C      1  0.4292770000000  0.4722620000000  0.4664280000000 1.0
C      1  0.5248990000000  0.4425270000000  0.5119970000000 1.0
C      1  0.4396530000000  0.5704080000000  0.4903030000000 1.0
C      1  0.4901290000000  0.4066510000000  0.5163570000000 1.0
END
