TITL C-2847947-6848-288 0.00146887574725752 125000 -222.764980969233 0 0 40 (C1) n - 1
REM
REM in /home/bkarasulu/work/CARBON/AIRSS/Generating-Clusters/AIREBO/with-SteepDescent/Only-C1/SD-CG-opt/Try1-1.4A-POS3A/HFTN-CG
REM
REM
REM
REM
REM
REM ./C.cell (11c1c37f851c82e70ff6c80c92926a4b)
REM
REM compiler GCC version 9.2.1 20190827 (Red Hat 9.2.1-1)
REM options -cpp -mtune=generic -march=x86-64 -g -O0 -fpre-include=/usr/include/finclude/math-vector-fortran.h
REM seed -460475837 -365662994 -1513353720 -106077805 1194150010 -1660059704 1833969171 -475861253 1664732748 -1745199862 14062551 -2009675872 262312605 247357986 -1373079830 187207498 -631769820 -455268452 -1963959113 775778919 -1660366171 -711496795 -811603524 2030537440 -305889546 1766328701 358684257 2123252262 1416387796 1853249759 -2111958199 -1444089244 303819070
REM
CELL 1.54180   50.00000   50.00000   50.00000   90.00000   90.00000   90.00000
LATT -1
SFAC C  
C      1  0.4977810000000  0.5138570000000  0.5321850000000 1.0
C      1  0.4396300000000  0.5473570000000  0.4725140000000 1.0
C      1  0.5166070000000  0.4456870000000  0.4600350000000 1.0
C      1  0.4518220000000  0.5308780000000  0.4546160000000 1.0
C      1  0.4976350000000  0.5176240000000  0.3903450000000 1.0
C      1  0.4689260000000  0.5089180000000  0.4569220000000 1.0
C      1  0.4316590000000  0.5352970000000  0.5214750000000 1.0
C      1  0.5521710000000  0.4269940000000  0.4915120000000 1.0
C      1  0.4265460000000  0.4748950000000  0.5289550000000 1.0
C      1  0.5068680000000  0.4282690000000  0.5222160000000 1.0
C      1  0.5365090000000  0.5332770000000  0.5559560000000 1.0
C      1  0.4722430000000  0.5268740000000  0.5465010000000 1.0
C      1  0.5394320000000  0.4856090000000  0.5413500000000 1.0
C      1  0.4486600000000  0.5187190000000  0.5358650000000 1.0
C      1  0.5082640000000  0.5495980000000  0.4910920000000 1.0
C      1  0.5317790000000  0.5602020000000  0.5016290000000 1.0
C      1  0.4919640000000  0.5070690000000  0.4136540000000 1.0
C      1  0.5452690000000  0.4432250000000  0.4694340000000 1.0
C      1  0.5576050000000  0.5951890000000  0.5224420000000 1.0
C      1  0.5199040000000  0.5073070000000  0.5517260000000 1.0
C      1  0.4967710000000  0.4575840000000  0.4849790000000 1.0
C      1  0.5506510000000  0.5523790000000  0.5435970000000 1.0
C      1  0.4879260000000  0.4975500000000  0.4392740000000 1.0
C      1  0.4275660000000  0.5457590000000  0.4967870000000 1.0
C      1  0.5016060000000  0.4744370000000  0.4492010000000 1.0
C      1  0.4973080000000  0.5611470000000  0.4692910000000 1.0
C      1  0.4929860000000  0.4509900000000  0.5138920000000 1.0
C      1  0.5458910000000  0.4725320000000  0.4746660000000 1.0
C      1  0.4771420000000  0.4687560000000  0.5265710000000 1.0
C      1  0.4987580000000  0.5270380000000  0.5022740000000 1.0
C      1  0.5556600000000  0.4662970000000  0.5328330000000 1.0
C      1  0.5578150000000  0.4422980000000  0.5197090000000 1.0
C      1  0.5334970000000  0.4217890000000  0.5176420000000 1.0
C      1  0.4690400000000  0.4672470000000  0.4770010000000 1.0
C      1  0.5086650000000  0.4985190000000  0.5765220000000 1.0
C      1  0.4506560000000  0.4883250000000  0.5272880000000 1.0
C      1  0.5190660000000  0.4817510000000  0.4762730000000 1.0
C      1  0.4663680000000  0.4939390000000  0.4805070000000 1.0
C      1  0.4742130000000  0.5044170000000  0.5087530000000 1.0
C      1  0.5471420000000  0.5704020000000  0.5225170000000 1.0
END
