TITL C-2848504-8560-281 -0.000951989270769022 125000 -998.857145668343 0 0 187 (C1) n - 1
REM
REM in /home/bkarasulu/work/CARBON/AIRSS/Generating-Clusters/AIREBO/with-SteepDescent/Only-C1/SD-CG-opt/Try1-1.4A-POS3A/HFTN-CG
REM
REM
REM
REM
REM
REM ./C.cell (11c1c37f851c82e70ff6c80c92926a4b)
REM
REM compiler GCC version 9.2.1 20190827 (Red Hat 9.2.1-1)
REM options -cpp -mtune=generic -march=x86-64 -g -O0 -fpre-include=/usr/include/finclude/math-vector-fortran.h
REM seed -1441213610 -2001306280 216421377 97167095 -679879462 -1583476180 13833647 -445956856 13718855 -1540861755 -1138097213 -587323806 -463729962 506273126 -1628424490 -613997360 -1641843217 2085755925 -317580260 204247069 -1233858576 -823991022 -886470241 625433627 -372786137 84513309 468281457 911846674 -1165669106 -1639635419 537627293 -101812304 -2087203990
REM
CELL 1.54180   50.00000   50.00000   50.00000   90.00000   90.00000   90.00000
LATT -1
SFAC C  
C      1  0.4665560000000  0.5266840000000  0.5633710000000 1.0
C      1  0.5538140000000  0.4382510000000  0.4275020000000 1.0
C      1  0.4630420000000  0.5934690000000  0.5380610000000 1.0
C      1  0.4981000000000  0.4537750000000  0.5673770000000 1.0
C      1  0.4228580000000  0.5800350000000  0.5167830000000 1.0
C      1  0.5287420000000  0.5058450000000  0.4738260000000 1.0
C      1  0.5429950000000  0.5507730000000  0.5341130000000 1.0
C      1  0.4554720000000  0.4627560000000  0.5903680000000 1.0
C      1  0.5231150000000  0.4633820000000  0.3903510000000 1.0
C      1  0.4478290000000  0.4502070000000  0.5631710000000 1.0
C      1  0.4976730000000  0.5200450000000  0.5584980000000 1.0
C      1  0.5347950000000  0.5334850000000  0.4924870000000 1.0
C      1  0.5648860000000  0.4716140000000  0.4895970000000 1.0
C      1  0.5936260000000  0.5294070000000  0.5454160000000 1.0
C      1  0.5639650000000  0.5386660000000  0.4293040000000 1.0
C      1  0.5444410000000  0.5827330000000  0.5275570000000 1.0
C      1  0.4585960000000  0.5302930000000  0.5079740000000 1.0
C      1  0.5630380000000  0.5319450000000  0.5541130000000 1.0
C      1  0.4883580000000  0.5292070000000  0.4081310000000 1.0
C      1  0.5571010000000  0.4826640000000  0.4502100000000 1.0
C      1  0.5308870000000  0.6201840000000  0.5239760000000 1.0
C      1  0.5735400000000  0.4400960000000  0.4473130000000 1.0
C      1  0.5357100000000  0.4029690000000  0.5240040000000 1.0
C      1  0.5999670000000  0.5170040000000  0.5064000000000 1.0
C      1  0.5441500000000  0.5036520000000  0.4335270000000 1.0
C      1  0.4189530000000  0.5379970000000  0.5421120000000 1.0
C      1  0.5076770000000  0.5040950000000  0.4064960000000 1.0
C      1  0.5242150000000  0.5636720000000  0.5781450000000 1.0
C      1  0.5330680000000  0.5837040000000  0.4412370000000 1.0
C      1  0.5429750000000  0.5312470000000  0.5984550000000 1.0
C      1  0.4937560000000  0.5415420000000  0.6282290000000 1.0
C      1  0.4597540000000  0.4931460000000  0.5409870000000 1.0
C      1  0.5061960000000  0.4973300000000  0.5391680000000 1.0
C      1  0.5643370000000  0.4605640000000  0.5810220000000 1.0
C      1  0.4967220000000  0.5975930000000  0.4619130000000 1.0
C      1  0.4555250000000  0.4328930000000  0.4305560000000 1.0
C      1  0.5240520000000  0.4438420000000  0.5519200000000 1.0
C      1  0.5029550000000  0.3976480000000  0.4603340000000 1.0
C      1  0.4536110000000  0.5120730000000  0.4653820000000 1.0
C      1  0.4132970000000  0.5252800000000  0.4658180000000 1.0
C      1  0.4945410000000  0.5008760000000  0.5864040000000 1.0
C      1  0.5249960000000  0.4866340000000  0.5809690000000 1.0
C      1  0.4594360000000  0.4975980000000  0.4361890000000 1.0
C      1  0.4638600000000  0.4605520000000  0.4744700000000 1.0
C      1  0.4067070000000  0.5551420000000  0.4740110000000 1.0
C      1  0.4398940000000  0.4458820000000  0.4864270000000 1.0
C      1  0.4751130000000  0.4789950000000  0.5678490000000 1.0
C      1  0.5610480000000  0.5660510000000  0.4472810000000 1.0
C      1  0.5352850000000  0.4187680000000  0.4311730000000 1.0
C      1  0.4243290000000  0.4888010000000  0.5764400000000 1.0
C      1  0.4982980000000  0.4140030000000  0.5104910000000 1.0
C      1  0.5660280000000  0.5121730000000  0.4080700000000 1.0
C      1  0.5558810000000  0.5730300000000  0.5758130000000 1.0
C      1  0.5443110000000  0.4097540000000  0.5830220000000 1.0
C      1  0.4200080000000  0.4823380000000  0.4213720000000 1.0
C      1  0.4786630000000  0.5800470000000  0.5652080000000 1.0
C      1  0.5848100000000  0.5001250000000  0.5317330000000 1.0
C      1  0.5457800000000  0.5042210000000  0.5975170000000 1.0
C      1  0.5929860000000  0.5629330000000  0.5397940000000 1.0
C      1  0.5404210000000  0.4632120000000  0.4196200000000 1.0
C      1  0.4357840000000  0.4179440000000  0.5053760000000 1.0
C      1  0.5115510000000  0.5920170000000  0.4252440000000 1.0
C      1  0.4568850000000  0.5974070000000  0.4588040000000 1.0
C      1  0.4743770000000  0.6139300000000  0.4810640000000 1.0
C      1  0.5113790000000  0.5517260000000  0.4538880000000 1.0
C      1  0.6159940000000  0.4989660000000  0.4851330000000 1.0
C      1  0.4828370000000  0.5205390000000  0.4400500000000 1.0
C      1  0.4281740000000  0.4238760000000  0.4665820000000 1.0
C      1  0.5544670000000  0.4068250000000  0.5505900000000 1.0
C      1  0.4931410000000  0.4487570000000  0.4718620000000 1.0
C      1  0.5979060000000  0.5332140000000  0.4627960000000 1.0
C      1  0.5040760000000  0.5023640000000  0.4520930000000 1.0
C      1  0.5359200000000  0.4024170000000  0.4702700000000 1.0
C      1  0.5664440000000  0.5791090000000  0.5498210000000 1.0
C      1  0.4067110000000  0.5584570000000  0.5233710000000 1.0
C      1  0.5191550000000  0.5435150000000  0.5544470000000 1.0
C      1  0.5490090000000  0.4242880000000  0.5010950000000 1.0
C      1  0.4703780000000  0.4021100000000  0.5509530000000 1.0
C      1  0.5703200000000  0.4913430000000  0.5890860000000 1.0
C      1  0.4954890000000  0.4286690000000  0.5895680000000 1.0
C      1  0.5591110000000  0.5444430000000  0.5809110000000 1.0
C      1  0.4984070000000  0.5544390000000  0.4261940000000 1.0
C      1  0.4274360000000  0.5163870000000  0.4217280000000 1.0
C      1  0.4653640000000  0.5259390000000  0.3913780000000 1.0
C      1  0.5349070000000  0.4836550000000  0.5480640000000 1.0
C      1  0.4755170000000  0.3958730000000  0.5228080000000 1.0
C      1  0.4719530000000  0.4880320000000  0.4914570000000 1.0
C      1  0.5054200000000  0.5829930000000  0.5639360000000 1.0
C      1  0.4800800000000  0.4786240000000  0.6076630000000 1.0
C      1  0.4110870000000  0.5100950000000  0.5309580000000 1.0
C      1  0.4564250000000  0.5637350000000  0.4802650000000 1.0
C      1  0.4793770000000  0.5881980000000  0.4356260000000 1.0
C      1  0.4361040000000  0.4618020000000  0.5335880000000 1.0
C      1  0.5368510000000  0.4669780000000  0.4709210000000 1.0
C      1  0.4507180000000  0.4246070000000  0.5349150000000 1.0
C      1  0.5256110000000  0.4314570000000  0.5949770000000 1.0
C      1  0.4219120000000  0.4716540000000  0.4933610000000 1.0
C      1  0.5456000000000  0.5844760000000  0.4938130000000 1.0
C      1  0.4735820000000  0.5556600000000  0.5340720000000 1.0
C      1  0.5820510000000  0.4456260000000  0.4858670000000 1.0
C      1  0.5187900000000  0.4731560000000  0.4427820000000 1.0
C      1  0.4352730000000  0.4916990000000  0.5173970000000 1.0
C      1  0.4512020000000  0.5019200000000  0.5755380000000 1.0
C      1  0.3955660000000  0.4679300000000  0.5125430000000 1.0
C      1  0.5337470000000  0.5297300000000  0.4527470000000 1.0
C      1  0.5135410000000  0.5572040000000  0.5009400000000 1.0
C      1  0.4342210000000  0.5491400000000  0.5703870000000 1.0
C      1  0.5164210000000  0.5465410000000  0.6036480000000 1.0
C      1  0.5181170000000  0.3927010000000  0.4968090000000 1.0
C      1  0.4152070000000  0.4782470000000  0.5547840000000 1.0
C      1  0.4155520000000  0.5617600000000  0.4417890000000 1.0
C      1  0.4934280000000  0.4092290000000  0.5643030000000 1.0
C      1  0.4329650000000  0.5096070000000  0.4885790000000 1.0
C      1  0.5814140000000  0.4232710000000  0.5424790000000 1.0
C      1  0.4154680000000  0.4416500000000  0.5186830000000 1.0
C      1  0.5068950000000  0.5189540000000  0.5056920000000 1.0
C      1  0.4799910000000  0.5094950000000  0.5242060000000 1.0
C      1  0.4717070000000  0.4333690000000  0.5096380000000 1.0
C      1  0.4888410000000  0.4347810000000  0.4250680000000 1.0
C      1  0.5159280000000  0.5955630000000  0.5377470000000 1.0
C      1  0.5465450000000  0.5456150000000  0.4030800000000 1.0
C      1  0.5720840000000  0.5492160000000  0.5188470000000 1.0
C      1  0.5576870000000  0.5200160000000  0.5090130000000 1.0
C      1  0.4500010000000  0.5015290000000  0.4037310000000 1.0
C      1  0.4684340000000  0.4258030000000  0.3998300000000 1.0
C      1  0.5089390000000  0.4288280000000  0.4492900000000 1.0
C      1  0.4082620000000  0.5015880000000  0.4455910000000 1.0
C      1  0.4378310000000  0.5444120000000  0.4303950000000 1.0
C      1  0.4867400000000  0.3842180000000  0.4865830000000 1.0
C      1  0.4886280000000  0.5528480000000  0.4791580000000 1.0
C      1  0.4171420000000  0.4719070000000  0.4596180000000 1.0
C      1  0.5965760000000  0.4694270000000  0.5321680000000 1.0
C      1  0.4883910000000  0.5844660000000  0.4917380000000 1.0
C      1  0.5345600000000  0.4579530000000  0.5946390000000 1.0
C      1  0.5979190000000  0.4835380000000  0.4687530000000 1.0
C      1  0.5240260000000  0.5272630000000  0.3902440000000 1.0
C      1  0.4307090000000  0.5776990000000  0.4655200000000 1.0
C      1  0.4933680000000  0.4784430000000  0.4219510000000 1.0
C      1  0.5556630000000  0.5566560000000  0.4788160000000 1.0
C      1  0.4640050000000  0.4640840000000  0.5142580000000 1.0
C      1  0.4087750000000  0.4406180000000  0.4544570000000 1.0
C      1  0.5468480000000  0.5113450000000  0.5359610000000 1.0
C      1  0.5679710000000  0.4833740000000  0.5560730000000 1.0
C      1  0.5170650000000  0.5565970000000  0.4008080000000 1.0
C      1  0.6164450000000  0.5772000000000  0.5380720000000 1.0
C      1  0.5663660000000  0.4186290000000  0.4723970000000 1.0
C      1  0.5556650000000  0.4526730000000  0.5148770000000 1.0
C      1  0.5664730000000  0.5233990000000  0.4596250000000 1.0
C      1  0.5237730000000  0.4837240000000  0.4974790000000 1.0
C      1  0.3869630000000  0.4934270000000  0.5234990000000 1.0
C      1  0.4497970000000  0.5316690000000  0.5379860000000 1.0
C      1  0.4937970000000  0.4543350000000  0.3979710000000 1.0
C      1  0.5859600000000  0.5837580000000  0.4448380000000 1.0
C      1  0.4595950000000  0.5412420000000  0.4545690000000 1.0
C      1  0.5094160000000  0.4414070000000  0.5007990000000 1.0
C      1  0.3923780000000  0.5482930000000  0.5020340000000 1.0
C      1  0.5515860000000  0.4374160000000  0.5649990000000 1.0
C      1  0.5845180000000  0.5423640000000  0.4897540000000 1.0
C      1  0.4500770000000  0.5782740000000  0.5105120000000 1.0
C      1  0.3825920000000  0.5210440000000  0.5051550000000 1.0
C      1  0.5155210000000  0.4146320000000  0.5465620000000 1.0
C      1  0.4799090000000  0.5205150000000  0.4852210000000 1.0
C      1  0.5456570000000  0.6149670000000  0.5040040000000 1.0
C      1  0.5232200000000  0.5786810000000  0.4709220000000 1.0
C      1  0.4919540000000  0.4697280000000  0.5314020000000 1.0
C      1  0.5391980000000  0.4922060000000  0.4018880000000 1.0
C      1  0.4986550000000  0.4800260000000  0.4765300000000 1.0
C      1  0.5305310000000  0.4356720000000  0.4749100000000 1.0
C      1  0.4900650000000  0.5830470000000  0.5224510000000 1.0
C      1  0.3993870000000  0.5044310000000  0.4871520000000 1.0
C      1  0.5021810000000  0.5446460000000  0.5274710000000 1.0
C      1  0.5805100000000  0.4478150000000  0.5310390000000 1.0
C      1  0.4560990000000  0.3920460000000  0.4991750000000 1.0
C      1  0.4770120000000  0.4447650000000  0.6080500000000 1.0
C      1  0.5241240000000  0.4619370000000  0.5235840000000 1.0
C      1  0.4662970000000  0.5539090000000  0.5807130000000 1.0
C      1  0.5763030000000  0.5034570000000  0.4858640000000 1.0
C      1  0.4487340000000  0.4127470000000  0.4513770000000 1.0
C      1  0.5814680000000  0.4676070000000  0.4524730000000 1.0
C      1  0.4862690000000  0.5319300000000  0.5976750000000 1.0
C      1  0.4689910000000  0.4682680000000  0.4433710000000 1.0
C      1  0.4678810000000  0.4767550000000  0.3994980000000 1.0
C      1  0.4382350000000  0.4600310000000  0.4356110000000 1.0
C      1  0.4688720000000  0.3967350000000  0.4605030000000 1.0
C      1  0.4655690000000  0.5621470000000  0.4218910000000 1.0
C      1  0.4440970000000  0.5692350000000  0.5489080000000 1.0
C      1  0.4751580000000  0.4447700000000  0.5472510000000 1.0
END
