TITL C-2848500-1637-424 0.00212425196879637 125000 -735.706007812254 0 0 138 (C1) n - 1
REM
REM in /home/bkarasulu/work/CARBON/AIRSS/Generating-Clusters/AIREBO/with-SteepDescent/Only-C1/SD-CG-opt/Try1-1.4A-POS3A/HFTN-CG
REM
REM
REM
REM
REM
REM ./C.cell (11c1c37f851c82e70ff6c80c92926a4b)
REM
REM compiler GCC version 9.2.1 20190827 (Red Hat 9.2.1-1)
REM options -cpp -mtune=generic -march=x86-64 -g -O0 -fpre-include=/usr/include/finclude/math-vector-fortran.h
REM seed -1241106964 -1507220026 1846647102 1080572595 -1791702331 1673049580 300581247 -674994855 1468738011 -1124846098 -79194455 1656782359 1854484343 1725398355 1983343597 -50318163 977138619 262588499 -1111204367 -1135621038 38129043 354461853 267134429 1353116351 398659309 1528375582 1747793394 -12042887 573135656 2087830834 -1523296607 -1187749682 1026319594
REM
CELL 1.54180   50.00000   50.00000   50.00000   90.00000   90.00000   90.00000
LATT -1
SFAC C  
C      1  0.5098660000000  0.6062040000000  0.4567990000000 1.0
C      1  0.4939090000000  0.4844330000000  0.5053680000000 1.0
C      1  0.5665130000000  0.5346560000000  0.4457680000000 1.0
C      1  0.5630520000000  0.5116330000000  0.4213550000000 1.0
C      1  0.4965120000000  0.4535680000000  0.4711770000000 1.0
C      1  0.5213100000000  0.5197320000000  0.5774060000000 1.0
C      1  0.5211610000000  0.6076770000000  0.4892310000000 1.0
C      1  0.5231250000000  0.4735530000000  0.5805410000000 1.0
C      1  0.4364310000000  0.4162100000000  0.5502280000000 1.0
C      1  0.4653140000000  0.6001090000000  0.5063970000000 1.0
C      1  0.5710600000000  0.5745680000000  0.4826740000000 1.0
C      1  0.5756820000000  0.4668410000000  0.5090560000000 1.0
C      1  0.4946210000000  0.4301770000000  0.5830450000000 1.0
C      1  0.5185190000000  0.4845500000000  0.4469540000000 1.0
C      1  0.4294140000000  0.4679390000000  0.5725440000000 1.0
C      1  0.5755320000000  0.5647500000000  0.4504300000000 1.0
C      1  0.5478940000000  0.4174980000000  0.5317380000000 1.0
C      1  0.4440140000000  0.4527670000000  0.5931460000000 1.0
C      1  0.4842950000000  0.4674880000000  0.5735690000000 1.0
C      1  0.4409410000000  0.5693160000000  0.4714960000000 1.0
C      1  0.4531430000000  0.5481490000000  0.5345960000000 1.0
C      1  0.4474860000000  0.5520800000000  0.4441400000000 1.0
C      1  0.5154220000000  0.5543120000000  0.4279980000000 1.0
C      1  0.5770020000000  0.4649490000000  0.4461320000000 1.0
C      1  0.5863870000000  0.4755420000000  0.4779310000000 1.0
C      1  0.4128080000000  0.4806780000000  0.5151810000000 1.0
C      1  0.4493050000000  0.4843480000000  0.4965110000000 1.0
C      1  0.4843820000000  0.4023230000000  0.4884090000000 1.0
C      1  0.5753390000000  0.5488500000000  0.5305560000000 1.0
C      1  0.5340270000000  0.4400760000000  0.4247430000000 1.0
C      1  0.5792060000000  0.5495450000000  0.4970530000000 1.0
C      1  0.5677940000000  0.4477090000000  0.4719590000000 1.0
C      1  0.5023910000000  0.5010020000000  0.4666860000000 1.0
C      1  0.4884370000000  0.5369840000000  0.5918440000000 1.0
C      1  0.4704130000000  0.4466840000000  0.4857040000000 1.0
C      1  0.4976440000000  0.5182060000000  0.5036000000000 1.0
C      1  0.5863340000000  0.4862110000000  0.5517870000000 1.0
C      1  0.5522750000000  0.4887990000000  0.5719390000000 1.0
C      1  0.5339960000000  0.4480380000000  0.5102200000000 1.0
C      1  0.5779730000000  0.4980150000000  0.5228430000000 1.0
C      1  0.4783010000000  0.4850230000000  0.5478770000000 1.0
C      1  0.5037360000000  0.4955640000000  0.5357900000000 1.0
C      1  0.5411080000000  0.5466880000000  0.5712760000000 1.0
C      1  0.4058770000000  0.4996300000000  0.4933060000000 1.0
C      1  0.4273460000000  0.4654170000000  0.4578100000000 1.0
C      1  0.4129130000000  0.4229280000000  0.5098100000000 1.0
C      1  0.5608350000000  0.4668620000000  0.5396680000000 1.0
C      1  0.4466910000000  0.4619780000000  0.4357560000000 1.0
C      1  0.5441700000000  0.4229380000000  0.4924190000000 1.0
C      1  0.4142470000000  0.4947630000000  0.5592580000000 1.0
C      1  0.5387660000000  0.4448810000000  0.5437910000000 1.0
C      1  0.4186620000000  0.4311000000000  0.5361270000000 1.0
C      1  0.4854690000000  0.5415970000000  0.4378750000000 1.0
C      1  0.4913120000000  0.5515920000000  0.5053860000000 1.0
C      1  0.5244850000000  0.5023220000000  0.4216540000000 1.0
C      1  0.4617640000000  0.5756460000000  0.5526600000000 1.0
C      1  0.4975000000000  0.6011490000000  0.5143880000000 1.0
C      1  0.5141350000000  0.5257910000000  0.5447230000000 1.0
C      1  0.4435820000000  0.5004300000000  0.4156070000000 1.0
C      1  0.4057870000000  0.5198150000000  0.5175040000000 1.0
C      1  0.4886210000000  0.4465150000000  0.5471370000000 1.0
C      1  0.5575440000000  0.4930130000000  0.4472930000000 1.0
C      1  0.5873220000000  0.5078280000000  0.5691560000000 1.0
C      1  0.4580650000000  0.4900890000000  0.4511670000000 1.0
C      1  0.5137720000000  0.4327120000000  0.4511800000000 1.0
C      1  0.5511510000000  0.5055650000000  0.5423710000000 1.0
C      1  0.4228340000000  0.5077330000000  0.4337840000000 1.0
C      1  0.4723750000000  0.5634020000000  0.4832300000000 1.0
C      1  0.5975950000000  0.5021040000000  0.4765910000000 1.0
C      1  0.5337410000000  0.5717040000000  0.5241170000000 1.0
C      1  0.5349710000000  0.5576560000000  0.4855290000000 1.0
C      1  0.5057450000000  0.4212480000000  0.5038810000000 1.0
C      1  0.4686240000000  0.5118300000000  0.5803380000000 1.0
C      1  0.4831710000000  0.5440440000000  0.5622490000000 1.0
C      1  0.3983950000000  0.5081880000000  0.5424850000000 1.0
C      1  0.5257340000000  0.4043770000000  0.5226170000000 1.0
C      1  0.4523720000000  0.5714480000000  0.5095220000000 1.0
C      1  0.4976900000000  0.5040310000000  0.4079830000000 1.0
C      1  0.5198490000000  0.4134540000000  0.4739170000000 1.0
C      1  0.4831810000000  0.5323430000000  0.5322110000000 1.0
C      1  0.4743450000000  0.4873540000000  0.4221530000000 1.0
C      1  0.5506790000000  0.5100520000000  0.4729980000000 1.0
C      1  0.5317340000000  0.4818200000000  0.5303900000000 1.0
C      1  0.5474260000000  0.4767740000000  0.6038600000000 1.0
C      1  0.4931940000000  0.4647830000000  0.4392470000000 1.0
C      1  0.4433110000000  0.4825140000000  0.5272650000000 1.0
C      1  0.5903900000000  0.5234720000000  0.5149080000000 1.0
C      1  0.5478820000000  0.5228600000000  0.5131240000000 1.0
C      1  0.4764810000000  0.4877270000000  0.4763580000000 1.0
C      1  0.4570820000000  0.4101080000000  0.4936770000000 1.0
C      1  0.4552630000000  0.5223040000000  0.3994180000000 1.0
C      1  0.4883940000000  0.6019000000000  0.4822110000000 1.0
C      1  0.5430270000000  0.5871890000000  0.4975930000000 1.0
C      1  0.4850740000000  0.4094000000000  0.5676820000000 1.0
C      1  0.4195140000000  0.5357740000000  0.4395170000000 1.0
C      1  0.5131500000000  0.5585840000000  0.5821180000000 1.0
C      1  0.4481890000000  0.4964520000000  0.5578970000000 1.0
C      1  0.4226170000000  0.5400000000000  0.4726880000000 1.0
C      1  0.4234970000000  0.5410820000000  0.5195190000000 1.0
C      1  0.4662280000000  0.4209320000000  0.5450770000000 1.0
C      1  0.5064950000000  0.5315990000000  0.4605610000000 1.0
C      1  0.4459790000000  0.5301730000000  0.5616500000000 1.0
C      1  0.5255620000000  0.5276520000000  0.4876770000000 1.0
C      1  0.4608440000000  0.5236150000000  0.4538990000000 1.0
C      1  0.4711130000000  0.4479230000000  0.5929300000000 1.0
C      1  0.5175760000000  0.4475820000000  0.5650700000000 1.0
C      1  0.5197380000000  0.5808770000000  0.4099310000000 1.0
C      1  0.5787770000000  0.5244820000000  0.4758540000000 1.0
C      1  0.5423190000000  0.4690900000000  0.4648880000000 1.0
C      1  0.4744850000000  0.5713170000000  0.4502070000000 1.0
C      1  0.4395620000000  0.4558630000000  0.4828970000000 1.0
C      1  0.4841310000000  0.5964500000000  0.4429300000000 1.0
C      1  0.4815440000000  0.5283880000000  0.4084410000000 1.0
C      1  0.4956360000000  0.4519720000000  0.5154330000000 1.0
C      1  0.4216510000000  0.5632600000000  0.4974680000000 1.0
C      1  0.5253940000000  0.5840170000000  0.4416250000000 1.0
C      1  0.4986610000000  0.4971540000000  0.5796810000000 1.0
C      1  0.5201780000000  0.4698480000000  0.4894320000000 1.0
C      1  0.4409630000000  0.5125360000000  0.4792050000000 1.0
C      1  0.5423020000000  0.5445730000000  0.5373610000000 1.0
C      1  0.5410200000000  0.4933130000000  0.5008250000000 1.0
C      1  0.4953940000000  0.5736430000000  0.5572460000000 1.0
C      1  0.4332350000000  0.4260640000000  0.4905480000000 1.0
C      1  0.5004410000000  0.4376690000000  0.4200450000000 1.0
C      1  0.5427250000000  0.5088440000000  0.5992850000000 1.0
C      1  0.4182390000000  0.4938240000000  0.4621860000000 1.0
C      1  0.5010810000000  0.3852410000000  0.4711130000000 1.0
C      1  0.5485940000000  0.4840870000000  0.4093980000000 1.0
C      1  0.4691860000000  0.4309310000000  0.5158550000000 1.0
C      1  0.5730140000000  0.4186720000000  0.4757640000000 1.0
C      1  0.5541260000000  0.4600290000000  0.4231360000000 1.0
C      1  0.5660660000000  0.5269050000000  0.5642420000000 1.0
C      1  0.4210240000000  0.4601240000000  0.5405350000000 1.0
C      1  0.5456620000000  0.5745010000000  0.4599140000000 1.0
C      1  0.4680200000000  0.4438130000000  0.4301460000000 1.0
C      1  0.5042460000000  0.5745320000000  0.5269270000000 1.0
C      1  0.5696170000000  0.4335020000000  0.5123610000000 1.0
C      1  0.5375520000000  0.5332890000000  0.4274360000000 1.0
END
