TITL C-2848509-3138-121 -0.000366943407181603 125000 -427.034501981722 0 0 81 (C1) n - 1
REM
REM in /home/bkarasulu/work/CARBON/AIRSS/Generating-Clusters/AIREBO/with-SteepDescent/Only-C1/SD-CG-opt/Try1-1.4A-POS3A/HFTN-CG
REM
REM
REM
REM
REM
REM ./C.cell (11c1c37f851c82e70ff6c80c92926a4b)
REM
REM compiler GCC version 9.2.1 20190827 (Red Hat 9.2.1-1)
REM options -cpp -mtune=generic -march=x86-64 -g -O0 -fpre-include=/usr/include/finclude/math-vector-fortran.h
REM seed -681421638 -1776165073 -188659462 -1956446532 473117736 -663694117 67283093 328522857 1848598588 1286146828 979629631 1877127227 1006860291 -867619300 -1345567457 275652548 -1182279464 2058669538 -446237901 2093855805 -708543484 -141581181 354973270 1358572181 -1028575575 515921808 -1847024032 1612292383 -1643873320 -1217798216 -1583817876 -232401656 -238540954
REM
CELL 1.54180   50.00000   50.00000   50.00000   90.00000   90.00000   90.00000
LATT -1
SFAC C  
C      1  0.5163460000000  0.4232730000000  0.5151950000000 1.0
C      1  0.5533560000000  0.5302500000000  0.5517930000000 1.0
C      1  0.4519030000000  0.5639970000000  0.4986500000000 1.0
C      1  0.4897460000000  0.4415100000000  0.5041960000000 1.0
C      1  0.4660070000000  0.4655490000000  0.5081300000000 1.0
C      1  0.5147760000000  0.5150730000000  0.5822210000000 1.0
C      1  0.5009420000000  0.5354020000000  0.4870270000000 1.0
C      1  0.4601570000000  0.5230320000000  0.4306450000000 1.0
C      1  0.5453440000000  0.5756950000000  0.5056630000000 1.0
C      1  0.5672150000000  0.5039340000000  0.5047730000000 1.0
C      1  0.4466520000000  0.5243530000000  0.4613650000000 1.0
C      1  0.4850010000000  0.4481440000000  0.4585800000000 1.0
C      1  0.4283040000000  0.4784330000000  0.5056300000000 1.0
C      1  0.5132740000000  0.4876730000000  0.5145010000000 1.0
C      1  0.4268630000000  0.5269090000000  0.5178060000000 1.0
C      1  0.4680150000000  0.4672790000000  0.5420470000000 1.0
C      1  0.4526310000000  0.5508610000000  0.4734320000000 1.0
C      1  0.5747410000000  0.5373810000000  0.4592730000000 1.0
C      1  0.4611070000000  0.4902420000000  0.4336790000000 1.0
C      1  0.5012770000000  0.4765420000000  0.4682310000000 1.0
C      1  0.5406020000000  0.4991760000000  0.5221140000000 1.0
C      1  0.5726550000000  0.5307960000000  0.5238050000000 1.0
C      1  0.5217890000000  0.5478420000000  0.4261050000000 1.0
C      1  0.5505390000000  0.5454450000000  0.5020080000000 1.0
C      1  0.4967150000000  0.5157760000000  0.5145640000000 1.0
C      1  0.5479510000000  0.4820330000000  0.5505470000000 1.0
C      1  0.4944130000000  0.4305890000000  0.5636890000000 1.0
C      1  0.5191380000000  0.4420550000000  0.5684180000000 1.0
C      1  0.4718610000000  0.5854990000000  0.4951680000000 1.0
C      1  0.5045650000000  0.4878710000000  0.5723520000000 1.0
C      1  0.5167820000000  0.5473240000000  0.4593840000000 1.0
C      1  0.4727930000000  0.4360020000000  0.5467680000000 1.0
C      1  0.5168170000000  0.4602480000000  0.5007990000000 1.0
C      1  0.4741780000000  0.5419160000000  0.5574680000000 1.0
C      1  0.4381140000000  0.4463110000000  0.5110150000000 1.0
C      1  0.4585550000000  0.5264420000000  0.5094730000000 1.0
C      1  0.5457820000000  0.5366630000000  0.4726810000000 1.0
C      1  0.4786440000000  0.5585530000000  0.4633730000000 1.0
C      1  0.4183500000000  0.4713360000000  0.5350400000000 1.0
C      1  0.5721150000000  0.4727300000000  0.5292440000000 1.0
C      1  0.4564720000000  0.4966890000000  0.4983280000000 1.0
C      1  0.5759920000000  0.4901340000000  0.4765510000000 1.0
C      1  0.5329660000000  0.5310500000000  0.5245940000000 1.0
C      1  0.5022770000000  0.5401770000000  0.5375890000000 1.0
C      1  0.4363750000000  0.4668640000000  0.5519080000000 1.0
C      1  0.4581170000000  0.4265020000000  0.5234560000000 1.0
C      1  0.5316310000000  0.4613410000000  0.4702120000000 1.0
C      1  0.4722090000000  0.5140370000000  0.5380930000000 1.0
C      1  0.4778860000000  0.5531760000000  0.5177600000000 1.0
C      1  0.5637210000000  0.4546290000000  0.5093200000000 1.0
C      1  0.4161170000000  0.5078600000000  0.4996600000000 1.0
C      1  0.5271080000000  0.5193730000000  0.4271670000000 1.0
C      1  0.5194890000000  0.5824770000000  0.5075420000000 1.0
C      1  0.4884390000000  0.5358710000000  0.4444970000000 1.0
C      1  0.4725170000000  0.3905390000000  0.4871570000000 1.0
C      1  0.4266930000000  0.5029150000000  0.4723990000000 1.0
C      1  0.4730210000000  0.4925010000000  0.5646770000000 1.0
C      1  0.4894830000000  0.5218160000000  0.4140560000000 1.0
C      1  0.5919500000000  0.5177700000000  0.4677680000000 1.0
C      1  0.4676220000000  0.4980280000000  0.4662320000000 1.0
C      1  0.4336450000000  0.4770110000000  0.4660140000000 1.0
C      1  0.4973740000000  0.5780980000000  0.5259610000000 1.0
C      1  0.5983250000000  0.5155910000000  0.4973460000000 1.0
C      1  0.4635050000000  0.4648780000000  0.4742240000000 1.0
C      1  0.4734060000000  0.4730700000000  0.4171120000000 1.0
C      1  0.4993230000000  0.5695880000000  0.4870270000000 1.0
C      1  0.5123390000000  0.4593320000000  0.4417410000000 1.0
C      1  0.5278330000000  0.4677490000000  0.5668090000000 1.0
C      1  0.5002510000000  0.5072450000000  0.4695210000000 1.0
C      1  0.4746280000000  0.4121180000000  0.5029080000000 1.0
C      1  0.5617730000000  0.4629690000000  0.4821390000000 1.0
C      1  0.5542110000000  0.4898360000000  0.4538440000000 1.0
C      1  0.4424490000000  0.5288330000000  0.5453120000000 1.0
C      1  0.5313610000000  0.5104940000000  0.4561500000000 1.0
C      1  0.5734840000000  0.5035670000000  0.5441600000000 1.0
C      1  0.5103850000000  0.5007520000000  0.4116010000000 1.0
C      1  0.5018840000000  0.4743860000000  0.4172370000000 1.0
C      1  0.5397930000000  0.4407450000000  0.5148050000000 1.0
C      1  0.4643470000000  0.5189180000000  0.5769380000000 1.0
C      1  0.5233740000000  0.5328850000000  0.5632430000000 1.0
C      1  0.5002070000000  0.4780440000000  0.5400910000000 1.0
END
