TITL C-2847950-6905-590 -0.000762952513510639 125000 -472.18584336135 0 0 88 (C1) n - 1
REM
REM in /home/bkarasulu/work/CARBON/AIRSS/Generating-Clusters/AIREBO/with-SteepDescent/Only-C1/SD-CG-opt/Try1-1.4A-POS3A/HFTN-CG
REM
REM
REM
REM
REM
REM ./C.cell (11c1c37f851c82e70ff6c80c92926a4b)
REM
REM compiler GCC version 9.2.1 20190827 (Red Hat 9.2.1-1)
REM options -cpp -mtune=generic -march=x86-64 -g -O0 -fpre-include=/usr/include/finclude/math-vector-fortran.h
REM seed -1143130232 480601030 -161868228 -622212196 -1054423735 521724693 -1961313638 -147421992 1977460544 188696437 1323153470 -1388250832 1115702943 1948018443 1210964629 428389494 -572485032 79843821 1913702101 999985654 -2024053989 -186618141 1733685349 -300163574 2142586018 34792181 -361709480 -104393558 -1576975597 2032927182 1174117442 1182108167 -434765
REM
CELL 1.54180   50.00000   50.00000   50.00000   90.00000   90.00000   90.00000
LATT -1
SFAC C  
C      1  0.4963710000000  0.5290540000000  0.5003220000000 1.0
C      1  0.5610870000000  0.5462620000000  0.4777660000000 1.0
C      1  0.4498860000000  0.4926490000000  0.4662720000000 1.0
C      1  0.5091050000000  0.5698070000000  0.5323550000000 1.0
C      1  0.4237930000000  0.4968490000000  0.5272730000000 1.0
C      1  0.4931030000000  0.5456950000000  0.5502090000000 1.0
C      1  0.5477230000000  0.4107250000000  0.4861750000000 1.0
C      1  0.5383540000000  0.5190800000000  0.5707270000000 1.0
C      1  0.4295670000000  0.5136110000000  0.4819400000000 1.0
C      1  0.4139710000000  0.4685870000000  0.4875950000000 1.0
C      1  0.4543320000000  0.5151310000000  0.5656730000000 1.0
C      1  0.5606370000000  0.5414280000000  0.5576990000000 1.0
C      1  0.4578120000000  0.5167910000000  0.4970330000000 1.0
C      1  0.5076310000000  0.4306970000000  0.5472890000000 1.0
C      1  0.5607500000000  0.4721560000000  0.5039960000000 1.0
C      1  0.4963990000000  0.4596800000000  0.5837520000000 1.0
C      1  0.4762990000000  0.4271870000000  0.5448010000000 1.0
C      1  0.4377370000000  0.5240690000000  0.5384370000000 1.0
C      1  0.4438580000000  0.5485140000000  0.5181400000000 1.0
C      1  0.4909160000000  0.4648590000000  0.4333710000000 1.0
C      1  0.5063760000000  0.4630660000000  0.5366970000000 1.0
C      1  0.4668950000000  0.4729590000000  0.4220930000000 1.0
C      1  0.5230840000000  0.4175130000000  0.4987560000000 1.0
C      1  0.5469740000000  0.5271180000000  0.4356860000000 1.0
C      1  0.5252830000000  0.5240500000000  0.4187070000000 1.0
C      1  0.5263240000000  0.4313760000000  0.5226540000000 1.0
C      1  0.5043560000000  0.5759220000000  0.4769930000000 1.0
C      1  0.5899040000000  0.5072850000000  0.4857380000000 1.0
C      1  0.4795320000000  0.5257300000000  0.5712450000000 1.0
C      1  0.5330830000000  0.4841020000000  0.5359080000000 1.0
C      1  0.4116800000000  0.4955260000000  0.4987170000000 1.0
C      1  0.5151480000000  0.4482710000000  0.4387870000000 1.0
C      1  0.5423700000000  0.5656810000000  0.5071830000000 1.0
C      1  0.5216120000000  0.5027600000000  0.4544230000000 1.0
C      1  0.4501990000000  0.4874370000000  0.5693910000000 1.0
C      1  0.5602630000000  0.4678170000000  0.4567940000000 1.0
C      1  0.4296110000000  0.4764760000000  0.5521650000000 1.0
C      1  0.5107940000000  0.5159270000000  0.5701890000000 1.0
C      1  0.4978770000000  0.4076030000000  0.4553430000000 1.0
C      1  0.5298350000000  0.4636490000000  0.4926640000000 1.0
C      1  0.5612750000000  0.5620760000000  0.5306240000000 1.0
C      1  0.5758650000000  0.4873420000000  0.5304200000000 1.0
C      1  0.4525440000000  0.5471120000000  0.4628100000000 1.0
C      1  0.4719880000000  0.4875770000000  0.4991930000000 1.0
C      1  0.4998370000000  0.5186390000000  0.5318190000000 1.0
C      1  0.5701400000000  0.4266040000000  0.4818360000000 1.0
C      1  0.4769510000000  0.5676780000000  0.4750080000000 1.0
C      1  0.5618320000000  0.5089930000000  0.5482880000000 1.0
C      1  0.4526390000000  0.5740110000000  0.5342590000000 1.0
C      1  0.4959090000000  0.4234970000000  0.4818720000000 1.0
C      1  0.5546690000000  0.4990180000000  0.4506380000000 1.0
C      1  0.5179190000000  0.4477660000000  0.5717070000000 1.0
C      1  0.5577590000000  0.5004640000000  0.4845300000000 1.0
C      1  0.5480130000000  0.5504610000000  0.4527650000000 1.0
C      1  0.4649360000000  0.4372790000000  0.4848740000000 1.0
C      1  0.4977870000000  0.4917980000000  0.5525920000000 1.0
C      1  0.4920980000000  0.5039070000000  0.4810300000000 1.0
C      1  0.4487480000000  0.4892880000000  0.4333210000000 1.0
C      1  0.5116760000000  0.4203910000000  0.4353790000000 1.0
C      1  0.4990020000000  0.4777280000000  0.4604430000000 1.0
C      1  0.5003300000000  0.4553430000000  0.4836360000000 1.0
C      1  0.5243350000000  0.4944940000000  0.4863910000000 1.0
C      1  0.5318790000000  0.5505010000000  0.5425090000000 1.0
C      1  0.5338320000000  0.5177820000000  0.5311120000000 1.0
C      1  0.4751960000000  0.5117920000000  0.4526020000000 1.0
C      1  0.5489400000000  0.5265910000000  0.5023020000000 1.0
C      1  0.5151350000000  0.5799890000000  0.5027340000000 1.0
C      1  0.4782610000000  0.5745250000000  0.5434790000000 1.0
C      1  0.4953910000000  0.5250420000000  0.4286520000000 1.0
C      1  0.4065380000000  0.5621880000000  0.4832070000000 1.0
C      1  0.4750320000000  0.4722430000000  0.5633350000000 1.0
C      1  0.4863050000000  0.4638520000000  0.5119640000000 1.0
C      1  0.4479070000000  0.4664180000000  0.4878510000000 1.0
C      1  0.4685170000000  0.5458490000000  0.4328200000000 1.0
C      1  0.4704430000000  0.5470080000000  0.4983040000000 1.0
C      1  0.5740270000000  0.4546690000000  0.4792920000000 1.0
C      1  0.5329760000000  0.4568550000000  0.4594010000000 1.0
C      1  0.4674280000000  0.4542770000000  0.5382930000000 1.0
C      1  0.4982370000000  0.5545920000000  0.4438480000000 1.0
C      1  0.5403840000000  0.4618910000000  0.5605950000000 1.0
C      1  0.4317920000000  0.5458010000000  0.4874230000000 1.0
C      1  0.5141630000000  0.5319220000000  0.4630270000000 1.0
C      1  0.4432420000000  0.4695810000000  0.5213960000000 1.0
C      1  0.5254770000000  0.5688810000000  0.4538280000000 1.0
C      1  0.4453750000000  0.5224180000000  0.4401880000000 1.0
C      1  0.5464250000000  0.4533780000000  0.5284640000000 1.0
C      1  0.4671440000000  0.5147200000000  0.5278660000000 1.0
C      1  0.5231660000000  0.5426700000000  0.4911160000000 1.0
END
