TITL C-2847944-5688-222 -0.00122858377053747 125000 -787.165745349927 0 0 148 (C1) n - 1
REM
REM in /home/bkarasulu/work/CARBON/AIRSS/Generating-Clusters/AIREBO/with-SteepDescent/Only-C1/SD-CG-opt/Try1-1.4A-POS3A/HFTN-CG
REM
REM
REM
REM
REM
REM ./C.cell (11c1c37f851c82e70ff6c80c92926a4b)
REM
REM compiler GCC version 9.2.1 20190827 (Red Hat 9.2.1-1)
REM options -cpp -mtune=generic -march=x86-64 -g -O0 -fpre-include=/usr/include/finclude/math-vector-fortran.h
REM seed 2031021023 1438118883 824995059 -991669763 97398859 -56623513 -932821566 1034816521 1462354425 -1890696839 -1448783129 1600969150 -1724958238 -1280861471 1421171963 411009952 -1946209852 -607292950 -407196069 -452225286 -811461044 -477982346 -927137112 1189452083 -1784239929 1046589685 -1595579343 -2041749898 1470935229 -2097303335 148948423 -228640661 1876745688
REM
CELL 1.54180   50.00000   50.00000   50.00000   90.00000   90.00000   90.00000
LATT -1
SFAC C  
C      1  0.5063540000000  0.4299360000000  0.5005200000000 1.0
C      1  0.5572680000000  0.5741260000000  0.4902700000000 1.0
C      1  0.4866680000000  0.4739490000000  0.4520400000000 1.0
C      1  0.4542300000000  0.4215130000000  0.4897500000000 1.0
C      1  0.5799150000000  0.5069890000000  0.4262580000000 1.0
C      1  0.5263960000000  0.5715370000000  0.4650180000000 1.0
C      1  0.5336920000000  0.5485430000000  0.5148750000000 1.0
C      1  0.4373310000000  0.4650370000000  0.4435690000000 1.0
C      1  0.5026860000000  0.5373370000000  0.5065230000000 1.0
C      1  0.5721190000000  0.5707400000000  0.5366360000000 1.0
C      1  0.5442110000000  0.5430730000000  0.4595040000000 1.0
C      1  0.5496800000000  0.4670010000000  0.4941000000000 1.0
C      1  0.4790670000000  0.5108800000000  0.4327380000000 1.0
C      1  0.5507560000000  0.4997780000000  0.5586890000000 1.0
C      1  0.5949260000000  0.4420870000000  0.4614110000000 1.0
C      1  0.5017890000000  0.5712510000000  0.5088860000000 1.0
C      1  0.5887320000000  0.4462950000000  0.5184040000000 1.0
C      1  0.5243260000000  0.5103540000000  0.5096200000000 1.0
C      1  0.5215690000000  0.5101910000000  0.5435720000000 1.0
C      1  0.4571850000000  0.4906500000000  0.4491160000000 1.0
C      1  0.5056160000000  0.4492590000000  0.4627460000000 1.0
C      1  0.4213770000000  0.5606530000000  0.5262480000000 1.0
C      1  0.4771550000000  0.4323370000000  0.4709610000000 1.0
C      1  0.5433000000000  0.4204800000000  0.5152530000000 1.0
C      1  0.5143290000000  0.4881270000000  0.4859090000000 1.0
C      1  0.4572870000000  0.4150850000000  0.5421840000000 1.0
C      1  0.5324260000000  0.5414770000000  0.5450990000000 1.0
C      1  0.4273150000000  0.4291570000000  0.5443300000000 1.0
C      1  0.4676120000000  0.4581580000000  0.5245830000000 1.0
C      1  0.5697630000000  0.4838740000000  0.4484210000000 1.0
C      1  0.5012930000000  0.5724350000000  0.5616810000000 1.0
C      1  0.4057960000000  0.4854530000000  0.4834030000000 1.0
C      1  0.4858440000000  0.4400790000000  0.5870140000000 1.0
C      1  0.5566880000000  0.4830260000000  0.4179000000000 1.0
C      1  0.5452210000000  0.5870030000000  0.5444950000000 1.0
C      1  0.5318360000000  0.5582800000000  0.4242160000000 1.0
C      1  0.5581070000000  0.5644530000000  0.4370020000000 1.0
C      1  0.4311490000000  0.5135120000000  0.4106530000000 1.0
C      1  0.4142170000000  0.5180590000000  0.5271650000000 1.0
C      1  0.5077210000000  0.4290470000000  0.5631510000000 1.0
C      1  0.5219410000000  0.5202720000000  0.4482940000000 1.0
C      1  0.4259360000000  0.5537140000000  0.5524360000000 1.0
C      1  0.3992210000000  0.4768220000000  0.5116250000000 1.0
C      1  0.5271640000000  0.4096070000000  0.5431380000000 1.0
C      1  0.4087430000000  0.5168970000000  0.4787230000000 1.0
C      1  0.5545210000000  0.5609600000000  0.5611580000000 1.0
C      1  0.5976260000000  0.4739630000000  0.5092930000000 1.0
C      1  0.5316490000000  0.4213700000000  0.4851900000000 1.0
C      1  0.5031390000000  0.4632100000000  0.5068250000000 1.0
C      1  0.4301110000000  0.4907470000000  0.5145960000000 1.0
C      1  0.5395050000000  0.4490430000000  0.4670640000000 1.0
C      1  0.4228620000000  0.4959780000000  0.4294410000000 1.0
C      1  0.5127990000000  0.6009000000000  0.4745610000000 1.0
C      1  0.4940830000000  0.5656240000000  0.4761690000000 1.0
C      1  0.4313480000000  0.5110520000000  0.4576890000000 1.0
C      1  0.4323840000000  0.4407300000000  0.4917950000000 1.0
C      1  0.5371610000000  0.4419130000000  0.5394390000000 1.0
C      1  0.5334020000000  0.5897200000000  0.4979400000000 1.0
C      1  0.4823680000000  0.5639420000000  0.5348320000000 1.0
C      1  0.5440450000000  0.5289500000000  0.4890860000000 1.0
C      1  0.5001720000000  0.4869140000000  0.5310360000000 1.0
C      1  0.4716910000000  0.4924200000000  0.5708330000000 1.0
C      1  0.5603240000000  0.5202510000000  0.5238020000000 1.0
C      1  0.4600440000000  0.4411300000000  0.5639130000000 1.0
C      1  0.5122730000000  0.4938530000000  0.3941700000000 1.0
C      1  0.4972130000000  0.4465990000000  0.5359840000000 1.0
C      1  0.4461420000000  0.5317990000000  0.5549140000000 1.0
C      1  0.4553640000000  0.5492180000000  0.4989010000000 1.0
C      1  0.4826850000000  0.4061570000000  0.5607500000000 1.0
C      1  0.4788590000000  0.5358370000000  0.4822940000000 1.0
C      1  0.5254140000000  0.4806190000000  0.4424960000000 1.0
C      1  0.4713280000000  0.4593270000000  0.4103950000000 1.0
C      1  0.5780540000000  0.4809090000000  0.5347070000000 1.0
C      1  0.4453530000000  0.5101400000000  0.5708530000000 1.0
C      1  0.5196680000000  0.5489360000000  0.5735170000000 1.0
C      1  0.5153200000000  0.4750550000000  0.5727480000000 1.0
C      1  0.4863570000000  0.6042660000000  0.4690490000000 1.0
C      1  0.4427180000000  0.5283720000000  0.5155740000000 1.0
C      1  0.4173560000000  0.5707780000000  0.4940400000000 1.0
C      1  0.5831950000000  0.4511110000000  0.5481370000000 1.0
C      1  0.5307660000000  0.5049880000000  0.4192260000000 1.0
C      1  0.5005030000000  0.4647190000000  0.5990730000000 1.0
C      1  0.4679310000000  0.4253790000000  0.4406030000000 1.0
C      1  0.5665950000000  0.5518250000000  0.5127340000000 1.0
C      1  0.4400090000000  0.4433190000000  0.5200210000000 1.0
C      1  0.5068360000000  0.5749300000000  0.4374110000000 1.0
C      1  0.5429860000000  0.5054710000000  0.5906710000000 1.0
C      1  0.5834110000000  0.5059150000000  0.5523460000000 1.0
C      1  0.4989470000000  0.5126730000000  0.5690200000000 1.0
C      1  0.4748990000000  0.5603320000000  0.5738910000000 1.0
C      1  0.4840470000000  0.5372300000000  0.5872780000000 1.0
C      1  0.4530290000000  0.5306490000000  0.4233670000000 1.0
C      1  0.4379830000000  0.5665490000000  0.4673330000000 1.0
C      1  0.4859360000000  0.4631370000000  0.5620090000000 1.0
C      1  0.5205620000000  0.5358660000000  0.4114950000000 1.0
C      1  0.4013920000000  0.4734660000000  0.5413530000000 1.0
C      1  0.5612320000000  0.4406720000000  0.5600630000000 1.0
C      1  0.4919890000000  0.5356700000000  0.4133600000000 1.0
C      1  0.5214350000000  0.5240800000000  0.5907830000000 1.0
C      1  0.5282740000000  0.4709270000000  0.5415640000000 1.0
C      1  0.4643790000000  0.4084580000000  0.5123520000000 1.0
C      1  0.5255110000000  0.4101280000000  0.4570920000000 1.0
C      1  0.5158330000000  0.5856170000000  0.5363370000000 1.0
C      1  0.4736240000000  0.4563280000000  0.4920200000000 1.0
C      1  0.4521100000000  0.5708190000000  0.5602470000000 1.0
C      1  0.4923350000000  0.4069950000000  0.5102150000000 1.0
C      1  0.4544830000000  0.4461990000000  0.4278270000000 1.0
C      1  0.4105070000000  0.5469900000000  0.4629880000000 1.0
C      1  0.5122110000000  0.6099340000000  0.5135100000000 1.0
C      1  0.5465960000000  0.4734240000000  0.5793400000000 1.0
C      1  0.5717810000000  0.5247500000000  0.4511900000000 1.0
C      1  0.4041450000000  0.4997930000000  0.5512650000000 1.0
C      1  0.4836640000000  0.4894790000000  0.4074130000000 1.0
C      1  0.5354340000000  0.4412830000000  0.5791000000000 1.0
C      1  0.4491560000000  0.5775380000000  0.5040320000000 1.0
C      1  0.6038610000000  0.4690330000000  0.4626190000000 1.0
C      1  0.4539920000000  0.5612500000000  0.4377980000000 1.0
C      1  0.5643600000000  0.4392220000000  0.5016310000000 1.0
C      1  0.4188130000000  0.5023660000000  0.5753940000000 1.0
C      1  0.5706740000000  0.4344750000000  0.4703960000000 1.0
C      1  0.5661170000000  0.5761420000000  0.4641380000000 1.0
C      1  0.5924700000000  0.5240080000000  0.5005550000000 1.0
C      1  0.4745730000000  0.5046420000000  0.4895580000000 1.0
C      1  0.4697140000000  0.5358710000000  0.5337300000000 1.0
C      1  0.4540150000000  0.4810970000000  0.4920140000000 1.0
C      1  0.4565790000000  0.5330000000000  0.4571030000000 1.0
C      1  0.5481790000000  0.4886470000000  0.5204370000000 1.0
C      1  0.5019720000000  0.4661640000000  0.4235700000000 1.0
C      1  0.5327530000000  0.4274470000000  0.4302810000000 1.0
C      1  0.4662150000000  0.5835120000000  0.4684430000000 1.0
C      1  0.5933490000000  0.4839270000000  0.4842230000000 1.0
C      1  0.4570390000000  0.4863710000000  0.5314550000000 1.0
C      1  0.4955210000000  0.5044930000000  0.4627610000000 1.0
C      1  0.5018670000000  0.5441460000000  0.4509740000000 1.0
C      1  0.4472670000000  0.4721830000000  0.5585760000000 1.0
C      1  0.5697080000000  0.5082350000000  0.4808150000000 1.0
C      1  0.4815320000000  0.5617430000000  0.4219310000000 1.0
C      1  0.5003230000000  0.4248840000000  0.4396390000000 1.0
C      1  0.4297510000000  0.4675120000000  0.4747250000000 1.0
C      1  0.5463020000000  0.4550810000000  0.4342790000000 1.0
C      1  0.4575490000000  0.5841890000000  0.5310600000000 1.0
C      1  0.5083480000000  0.3908720000000  0.5268890000000 1.0
C      1  0.6026540000000  0.4846140000000  0.4373970000000 1.0
C      1  0.4070280000000  0.5403280000000  0.5029490000000 1.0
C      1  0.5915280000000  0.5263930000000  0.5309360000000 1.0
C      1  0.4777530000000  0.5073810000000  0.5214990000000 1.0
C      1  0.4209500000000  0.4562870000000  0.5527010000000 1.0
C      1  0.5442180000000  0.4886280000000  0.4696750000000 1.0
END
