TITL C-2847950-6905-91 -0.00362576860335914 125000 -1062.76582785414 0 0 199 (C1) n - 1
REM
REM in /home/bkarasulu/work/CARBON/AIRSS/Generating-Clusters/AIREBO/with-SteepDescent/Only-C1/SD-CG-opt/Try1-1.4A-POS3A/HFTN-CG
REM
REM
REM
REM
REM
REM ./C.cell (11c1c37f851c82e70ff6c80c92926a4b)
REM
REM compiler GCC version 9.2.1 20190827 (Red Hat 9.2.1-1)
REM options -cpp -mtune=generic -march=x86-64 -g -O0 -fpre-include=/usr/include/finclude/math-vector-fortran.h
REM seed -988665324 1351480532 -237319776 2121906458 -1984188772 304540328 -288671761 -745937734 622124433 -433246626 1600175729 1197490130 968689911 1396227829 695576253 1675359734 239729858 1508780205 36588824 732772128 -920306018 -1956119925 -1883188072 978094480 1373297565 1147462016 1692957848 227027446 -824752297 1718814373 1156584882 1992032704 -1604969272
REM
CELL 1.54180   50.00000   50.00000   50.00000   90.00000   90.00000   90.00000
LATT -1
SFAC C  
C      1  0.4976450000000  0.5618030000000  0.4699780000000 1.0
C      1  0.5359290000000  0.4343210000000  0.4677480000000 1.0
C      1  0.4204700000000  0.4275460000000  0.5224730000000 1.0
C      1  0.5738470000000  0.4934880000000  0.4974140000000 1.0
C      1  0.5663410000000  0.5450670000000  0.5662790000000 1.0
C      1  0.4829610000000  0.4312690000000  0.5105810000000 1.0
C      1  0.5357840000000  0.4773710000000  0.5587280000000 1.0
C      1  0.4670540000000  0.4881900000000  0.4599820000000 1.0
C      1  0.5384580000000  0.4535820000000  0.5372990000000 1.0
C      1  0.5421920000000  0.3843000000000  0.4697090000000 1.0
C      1  0.4387290000000  0.5756940000000  0.5107600000000 1.0
C      1  0.3828950000000  0.5060290000000  0.4932240000000 1.0
C      1  0.4711290000000  0.5860770000000  0.4328070000000 1.0
C      1  0.4487330000000  0.4188180000000  0.5633370000000 1.0
C      1  0.5923100000000  0.5021630000000  0.4475880000000 1.0
C      1  0.4798140000000  0.4442270000000  0.5981170000000 1.0
C      1  0.5132970000000  0.5702190000000  0.4409540000000 1.0
C      1  0.4133290000000  0.5403590000000  0.5343420000000 1.0
C      1  0.5133970000000  0.5178400000000  0.6135160000000 1.0
C      1  0.5230590000000  0.4669960000000  0.3879160000000 1.0
C      1  0.3987950000000  0.5287150000000  0.4802600000000 1.0
C      1  0.5890240000000  0.5556230000000  0.5161350000000 1.0
C      1  0.4853520000000  0.6055380000000  0.5194830000000 1.0
C      1  0.5836860000000  0.5221780000000  0.5130750000000 1.0
C      1  0.5130960000000  0.4744650000000  0.4195730000000 1.0
C      1  0.4668430000000  0.5334010000000  0.6194830000000 1.0
C      1  0.4580970000000  0.4623220000000  0.4124450000000 1.0
C      1  0.4321260000000  0.4783970000000  0.4117480000000 1.0
C      1  0.3951750000000  0.4756350000000  0.5022730000000 1.0
C      1  0.3769800000000  0.5100300000000  0.5220570000000 1.0
C      1  0.4156610000000  0.5444480000000  0.4327880000000 1.0
C      1  0.5249110000000  0.4748830000000  0.4516540000000 1.0
C      1  0.5164520000000  0.5758490000000  0.5551270000000 1.0
C      1  0.5437310000000  0.5843900000000  0.4363470000000 1.0
C      1  0.5089820000000  0.4481400000000  0.5245370000000 1.0
C      1  0.5696090000000  0.5478960000000  0.4520630000000 1.0
C      1  0.4099090000000  0.5872660000000  0.5140170000000 1.0
C      1  0.4058920000000  0.5570430000000  0.4976840000000 1.0
C      1  0.4325150000000  0.5213630000000  0.4809660000000 1.0
C      1  0.4585380000000  0.4289240000000  0.4202210000000 1.0
C      1  0.5064120000000  0.5046510000000  0.4879500000000 1.0
C      1  0.5804870000000  0.4898550000000  0.4168680000000 1.0
C      1  0.5213980000000  0.4057840000000  0.4795580000000 1.0
C      1  0.4512130000000  0.5292910000000  0.4226520000000 1.0
C      1  0.5427550000000  0.5492930000000  0.5905360000000 1.0
C      1  0.5198220000000  0.5929040000000  0.5029690000000 1.0
C      1  0.5911540000000  0.4385840000000  0.4968610000000 1.0
C      1  0.5435230000000  0.5027050000000  0.4734130000000 1.0
C      1  0.4536440000000  0.4703900000000  0.5837600000000 1.0
C      1  0.5143400000000  0.5520170000000  0.4151290000000 1.0
C      1  0.4730400000000  0.5529820000000  0.4335390000000 1.0
C      1  0.4133880000000  0.5289310000000  0.4099610000000 1.0
C      1  0.5345410000000  0.5066150000000  0.4440990000000 1.0
C      1  0.5797690000000  0.5358540000000  0.4821930000000 1.0
C      1  0.6077650000000  0.5634770000000  0.4888300000000 1.0
C      1  0.5169980000000  0.6022480000000  0.4294430000000 1.0
C      1  0.4890910000000  0.5271360000000  0.4423360000000 1.0
C      1  0.4992720000000  0.3970680000000  0.4360540000000 1.0
C      1  0.5498880000000  0.4512700000000  0.5754220000000 1.0
C      1  0.4630760000000  0.5333540000000  0.5344080000000 1.0
C      1  0.3932550000000  0.4708070000000  0.5567590000000 1.0
C      1  0.5481790000000  0.5804400000000  0.4890310000000 1.0
C      1  0.5648980000000  0.4469510000000  0.5341270000000 1.0
C      1  0.4162730000000  0.5304200000000  0.5726970000000 1.0
C      1  0.4480460000000  0.5317330000000  0.5638810000000 1.0
C      1  0.5656210000000  0.5175840000000  0.4430120000000 1.0
C      1  0.4889620000000  0.5137480000000  0.5764810000000 1.0
C      1  0.5091470000000  0.5186010000000  0.3940150000000 1.0
C      1  0.4536450000000  0.4364690000000  0.5866980000000 1.0
C      1  0.4491590000000  0.5633010000000  0.5382810000000 1.0
C      1  0.5406610000000  0.5267060000000  0.6084300000000 1.0
C      1  0.5131240000000  0.4179690000000  0.4211350000000 1.0
C      1  0.5850050000000  0.4688980000000  0.5473490000000 1.0
C      1  0.4637040000000  0.5342600000000  0.4919350000000 1.0
C      1  0.4043490000000  0.4572700000000  0.5269710000000 1.0
C      1  0.5591360000000  0.5072850000000  0.5957890000000 1.0
C      1  0.5435630000000  0.4875520000000  0.5028340000000 1.0
C      1  0.4421610000000  0.4499340000000  0.5163340000000 1.0
C      1  0.3756520000000  0.4786730000000  0.4743730000000 1.0
C      1  0.5385340000000  0.4278730000000  0.4344500000000 1.0
C      1  0.4703260000000  0.4094660000000  0.4885310000000 1.0
C      1  0.5059620000000  0.4739580000000  0.5025900000000 1.0
C      1  0.5024090000000  0.5952450000000  0.4738580000000 1.0
C      1  0.5406620000000  0.4546040000000  0.4211940000000 1.0
C      1  0.5243050000000  0.4538370000000  0.5889220000000 1.0
C      1  0.4954380000000  0.5442790000000  0.4990790000000 1.0
C      1  0.4774650000000  0.6013900000000  0.4936120000000 1.0
C      1  0.4895230000000  0.3796220000000  0.5092320000000 1.0
C      1  0.4346030000000  0.4948560000000  0.5021780000000 1.0
C      1  0.5312890000000  0.4919270000000  0.5287500000000 1.0
C      1  0.5569890000000  0.5965220000000  0.5154930000000 1.0
C      1  0.5575660000000  0.5943160000000  0.4623440000000 1.0
C      1  0.4537650000000  0.5052200000000  0.5241570000000 1.0
C      1  0.4144420000000  0.4685760000000  0.4298910000000 1.0
C      1  0.5784750000000  0.4271580000000  0.5196190000000 1.0
C      1  0.4713710000000  0.3967430000000  0.5525960000000 1.0
C      1  0.4346710000000  0.5420600000000  0.5078660000000 1.0
C      1  0.5113470000000  0.3985460000000  0.5075860000000 1.0
C      1  0.5318950000000  0.5003300000000  0.5797890000000 1.0
C      1  0.4904500000000  0.4938070000000  0.4360070000000 1.0
C      1  0.4640870000000  0.5632610000000  0.4646460000000 1.0
C      1  0.4217090000000  0.5609570000000  0.5589570000000 1.0
C      1  0.6090900000000  0.4603640000000  0.5034860000000 1.0
C      1  0.4890460000000  0.5530420000000  0.3969680000000 1.0
C      1  0.5665310000000  0.4190360000000  0.4470300000000 1.0
C      1  0.4756340000000  0.4725190000000  0.6101030000000 1.0
C      1  0.3842790000000  0.5492750000000  0.5227580000000 1.0
C      1  0.5171650000000  0.5216830000000  0.4266070000000 1.0
C      1  0.4329400000000  0.4687890000000  0.5568190000000 1.0
C      1  0.4966410000000  0.5301450000000  0.5300400000000 1.0
C      1  0.4320550000000  0.5056390000000  0.4086020000000 1.0
C      1  0.6176690000000  0.4829230000000  0.4895710000000 1.0
C      1  0.4465710000000  0.5725730000000  0.5766550000000 1.0
C      1  0.4587660000000  0.4423420000000  0.4697910000000 1.0
C      1  0.4749630000000  0.4732340000000  0.4886410000000 1.0
C      1  0.5818950000000  0.5734110000000  0.4688230000000 1.0
C      1  0.4630510000000  0.4092970000000  0.4478000000000 1.0
C      1  0.4418580000000  0.5398670000000  0.4540100000000 1.0
C      1  0.4997690000000  0.4964380000000  0.5268450000000 1.0
C      1  0.4616370000000  0.5145750000000  0.5966970000000 1.0
C      1  0.5214020000000  0.4794240000000  0.5993280000000 1.0
C      1  0.4527930000000  0.5849720000000  0.4845830000000 1.0
C      1  0.5312770000000  0.4642090000000  0.4833010000000 1.0
C      1  0.4896820000000  0.5943660000000  0.5452420000000 1.0
C      1  0.6245590000000  0.5408850000000  0.5058200000000 1.0
C      1  0.4372130000000  0.4984500000000  0.5829890000000 1.0
C      1  0.6256180000000  0.5157200000000  0.4948540000000 1.0
C      1  0.5315320000000  0.6107960000000  0.4657110000000 1.0
C      1  0.6115640000000  0.5870530000000  0.4653930000000 1.0
C      1  0.5610300000000  0.5616220000000  0.4255390000000 1.0
C      1  0.5138070000000  0.4149170000000  0.5299650000000 1.0
C      1  0.4662860000000  0.5855260000000  0.5556810000000 1.0
C      1  0.4225710000000  0.5747480000000  0.4727900000000 1.0
C      1  0.4412090000000  0.4650430000000  0.4870140000000 1.0
C      1  0.4998050000000  0.4880920000000  0.6161610000000 1.0
C      1  0.5922690000000  0.4372460000000  0.4370490000000 1.0
C      1  0.4917620000000  0.5549610000000  0.5517090000000 1.0
C      1  0.4666930000000  0.4593560000000  0.4446090000000 1.0
C      1  0.4672850000000  0.4258130000000  0.5357000000000 1.0
C      1  0.4718530000000  0.5509580000000  0.5745300000000 1.0
C      1  0.4894160000000  0.4417650000000  0.4264280000000 1.0
C      1  0.4439760000000  0.4063900000000  0.5098200000000 1.0
C      1  0.5567390000000  0.4693620000000  0.4437870000000 1.0
C      1  0.5756970000000  0.5709610000000  0.5503540000000 1.0
C      1  0.5504010000000  0.4809880000000  0.4032530000000 1.0
C      1  0.4820400000000  0.4806170000000  0.4059900000000 1.0
C      1  0.5564530000000  0.5575600000000  0.5257040000000 1.0
C      1  0.4091110000000  0.4844230000000  0.4724480000000 1.0
C      1  0.4198640000000  0.4221390000000  0.5537510000000 1.0
C      1  0.4591800000000  0.4556490000000  0.5448420000000 1.0
C      1  0.4865320000000  0.4881830000000  0.5539310000000 1.0
C      1  0.4073000000000  0.4984040000000  0.5680060000000 1.0
C      1  0.4899190000000  0.6024830000000  0.4436930000000 1.0
C      1  0.4409250000000  0.4135040000000  0.4724030000000 1.0
C      1  0.5267550000000  0.5487660000000  0.5116550000000 1.0
C      1  0.5884760000000  0.4687830000000  0.4423560000000 1.0
C      1  0.4223570000000  0.4555650000000  0.4602930000000 1.0
C      1  0.4195800000000  0.4871260000000  0.5316950000000 1.0
C      1  0.4909460000000  0.4567980000000  0.5521240000000 1.0
C      1  0.6113220000000  0.4636490000000  0.5318660000000 1.0
C      1  0.5462150000000  0.5167460000000  0.5465630000000 1.0
C      1  0.4370470000000  0.4954780000000  0.4614620000000 1.0
C      1  0.4108060000000  0.4465970000000  0.5649500000000 1.0
C      1  0.6152410000000  0.5461450000000  0.5356060000000 1.0
C      1  0.5167830000000  0.5611180000000  0.5857850000000 1.0
C      1  0.5698010000000  0.4391580000000  0.4727310000000 1.0
C      1  0.5002110000000  0.4444060000000  0.5786450000000 1.0
C      1  0.5028670000000  0.4049720000000  0.5531920000000 1.0
C      1  0.4885700000000  0.4440610000000  0.4803570000000 1.0
C      1  0.5372100000000  0.5493930000000  0.5500350000000 1.0
C      1  0.5810480000000  0.5077720000000  0.5800720000000 1.0
C      1  0.4925170000000  0.5398260000000  0.5981310000000 1.0
C      1  0.5565920000000  0.5134450000000  0.4115160000000 1.0
C      1  0.4655310000000  0.3882370000000  0.5223380000000 1.0
C      1  0.4927960000000  0.4065390000000  0.4641390000000 1.0
C      1  0.5738610000000  0.4972620000000  0.5506670000000 1.0
C      1  0.5975480000000  0.5075320000000  0.4774810000000 1.0
C      1  0.5505130000000  0.5493890000000  0.4871570000000 1.0
C      1  0.5458650000000  0.5425070000000  0.4083030000000 1.0
C      1  0.6068720000000  0.5213010000000  0.5743840000000 1.0
C      1  0.5822100000000  0.4706740000000  0.4757280000000 1.0
C      1  0.5814280000000  0.5886050000000  0.5259300000000 1.0
C      1  0.4334130000000  0.4280610000000  0.4431210000000 1.0
C      1  0.4047610000000  0.5537980000000  0.4580950000000 1.0
C      1  0.3894620000000  0.4499970000000  0.4683170000000 1.0
C      1  0.4827540000000  0.5157850000000  0.4730390000000 1.0
C      1  0.5048590000000  0.4434040000000  0.3961660000000 1.0
C      1  0.5064940000000  0.4461700000000  0.4555120000000 1.0
C      1  0.5138390000000  0.5181680000000  0.5568560000000 1.0
C      1  0.4833530000000  0.5064840000000  0.3899220000000 1.0
C      1  0.5312080000000  0.5970600000000  0.5329490000000 1.0
C      1  0.5884980000000  0.5282600000000  0.5466220000000 1.0
C      1  0.5764330000000  0.4504460000000  0.5721650000000 1.0
C      1  0.4717530000000  0.5318000000000  0.3988430000000 1.0
C      1  0.5629120000000  0.3900940000000  0.4565510000000 1.0
C      1  0.4005030000000  0.5120180000000  0.5384940000000 1.0
C      1  0.5292020000000  0.5243970000000  0.4912090000000 1.0
C      1  0.5784560000000  0.4009330000000  0.5253310000000 1.0
C      1  0.4576630000000  0.5001150000000  0.5558740000000 1.0
END
