TITL C-2848499-1157-121 0.00112347402194678 125000 -608.206024630402 0 0 111 (C1) n - 1
REM
REM in /home/bkarasulu/work/CARBON/AIRSS/Generating-Clusters/AIREBO/with-SteepDescent/Only-C1/SD-CG-opt/Try1-1.4A-POS3A/HFTN-CG
REM
REM
REM
REM
REM
REM ./C.cell (11c1c37f851c82e70ff6c80c92926a4b)
REM
REM compiler GCC version 9.2.1 20190827 (Red Hat 9.2.1-1)
REM options -cpp -mtune=generic -march=x86-64 -g -O0 -fpre-include=/usr/include/finclude/math-vector-fortran.h
REM seed -926413838 1858247774 -1652499508 679531993 -1318828362 527512460 -1891761319 -253586027 548899415 1735270338 -1018967240 -1213166475 -499048025 1707461869 -1222630087 -583306029 -129805631 -389655907 658180390 -362241209 1155956774 385107034 -566382988 20631715 -41474632 -1847037959 1770995892 -962089362 -2117758416 -848300374 279925854 -212594032 -1607706318
REM
CELL 1.54180   50.00000   50.00000   50.00000   90.00000   90.00000   90.00000
LATT -1
SFAC C  
C      1  0.4267760000000  0.4667010000000  0.4759330000000 1.0
C      1  0.4202780000000  0.4633940000000  0.5085290000000 1.0
C      1  0.5600290000000  0.5178400000000  0.5544150000000 1.0
C      1  0.4620310000000  0.4210350000000  0.4951120000000 1.0
C      1  0.4853990000000  0.4045840000000  0.4765410000000 1.0
C      1  0.5005420000000  0.4178140000000  0.4533270000000 1.0
C      1  0.5053240000000  0.5107340000000  0.4554110000000 1.0
C      1  0.4594470000000  0.5808570000000  0.5041570000000 1.0
C      1  0.5405220000000  0.5484600000000  0.5710830000000 1.0
C      1  0.4861730000000  0.4686850000000  0.5541420000000 1.0
C      1  0.5016780000000  0.5792450000000  0.5406710000000 1.0
C      1  0.5813710000000  0.5388160000000  0.5061520000000 1.0
C      1  0.4669840000000  0.5201700000000  0.5232610000000 1.0
C      1  0.5585540000000  0.5445370000000  0.4467870000000 1.0
C      1  0.4742290000000  0.5766690000000  0.5278380000000 1.0
C      1  0.4361180000000  0.5602210000000  0.5020860000000 1.0
C      1  0.5053650000000  0.4590750000000  0.4350000000000 1.0
C      1  0.5067680000000  0.4778040000000  0.5297350000000 1.0
C      1  0.4678100000000  0.4997220000000  0.4702840000000 1.0
C      1  0.5400530000000  0.5326740000000  0.4277580000000 1.0
C      1  0.4629700000000  0.5413600000000  0.5002770000000 1.0
C      1  0.4546230000000  0.5265500000000  0.4571770000000 1.0
C      1  0.5144840000000  0.5599670000000  0.5769470000000 1.0
C      1  0.4744200000000  0.5460400000000  0.4373490000000 1.0
C      1  0.5458210000000  0.4846380000000  0.4312590000000 1.0
C      1  0.5130630000000  0.5150700000000  0.5473970000000 1.0
C      1  0.4305450000000  0.5400160000000  0.4770520000000 1.0
C      1  0.4974840000000  0.5866270000000  0.4935890000000 1.0
C      1  0.4520980000000  0.4525760000000  0.5033620000000 1.0
C      1  0.4492810000000  0.4842530000000  0.4909000000000 1.0
C      1  0.5420350000000  0.5414530000000  0.5378400000000 1.0
C      1  0.4894900000000  0.4390780000000  0.5661700000000 1.0
C      1  0.5772320000000  0.4141050000000  0.5251880000000 1.0
C      1  0.5060730000000  0.5437550000000  0.4613350000000 1.0
C      1  0.4972380000000  0.4951900000000  0.5643430000000 1.0
C      1  0.4707760000000  0.5469130000000  0.5439370000000 1.0
C      1  0.4264360000000  0.5280800000000  0.5648710000000 1.0
C      1  0.4341810000000  0.4594250000000  0.4501430000000 1.0
C      1  0.4740870000000  0.5779990000000  0.4489740000000 1.0
C      1  0.5489870000000  0.5242640000000  0.5865940000000 1.0
C      1  0.5201910000000  0.5708730000000  0.4496620000000 1.0
C      1  0.5392220000000  0.5004840000000  0.5989770000000 1.0
C      1  0.5703770000000  0.4658840000000  0.5404890000000 1.0
C      1  0.5099540000000  0.5596110000000  0.5071670000000 1.0
C      1  0.4416080000000  0.4817000000000  0.4326190000000 1.0
C      1  0.4772830000000  0.4697660000000  0.5152390000000 1.0
C      1  0.4776210000000  0.4426650000000  0.4746770000000 1.0
C      1  0.4707000000000  0.4772810000000  0.4286150000000 1.0
C      1  0.5483240000000  0.5079990000000  0.4162460000000 1.0
C      1  0.4841310000000  0.4495060000000  0.4143260000000 1.0
C      1  0.5292920000000  0.5163910000000  0.4788690000000 1.0
C      1  0.5067390000000  0.5400140000000  0.4282090000000 1.0
C      1  0.3958500000000  0.5265990000000  0.5105780000000 1.0
C      1  0.5655750000000  0.5000180000000  0.4759680000000 1.0
C      1  0.4740840000000  0.4310160000000  0.5885650000000 1.0
C      1  0.4343730000000  0.5084860000000  0.4278420000000 1.0
C      1  0.5342300000000  0.4583550000000  0.4326500000000 1.0
C      1  0.5704870000000  0.5295830000000  0.4752630000000 1.0
C      1  0.4840420000000  0.4195850000000  0.5417750000000 1.0
C      1  0.5287000000000  0.4366940000000  0.4582840000000 1.0
C      1  0.5288560000000  0.5086350000000  0.5179810000000 1.0
C      1  0.4544340000000  0.4391080000000  0.4506540000000 1.0
C      1  0.5468660000000  0.5703980000000  0.4558760000000 1.0
C      1  0.5298280000000  0.4086950000000  0.5271650000000 1.0
C      1  0.5548550000000  0.3986360000000  0.5296330000000 1.0
C      1  0.4922900000000  0.4998300000000  0.4310150000000 1.0
C      1  0.4792300000000  0.4289480000000  0.4362100000000 1.0
C      1  0.6113530000000  0.5449460000000  0.5065510000000 1.0
C      1  0.4264610000000  0.4550290000000  0.5402820000000 1.0
C      1  0.4901370000000  0.5160750000000  0.4853590000000 1.0
C      1  0.5392300000000  0.4903890000000  0.4604030000000 1.0
C      1  0.4993810000000  0.4341370000000  0.4994620000000 1.0
C      1  0.5737980000000  0.5129480000000  0.5237030000000 1.0
C      1  0.4405380000000  0.5041570000000  0.5125960000000 1.0
C      1  0.5363680000000  0.4934210000000  0.5541910000000 1.0
C      1  0.4137480000000  0.5058830000000  0.5554020000000 1.0
C      1  0.4200290000000  0.5236470000000  0.5011380000000 1.0
C      1  0.4357880000000  0.4723470000000  0.5670340000000 1.0
C      1  0.4225350000000  0.4878060000000  0.5326420000000 1.0
C      1  0.4899390000000  0.5479740000000  0.4869510000000 1.0
C      1  0.5560400000000  0.4928340000000  0.5049830000000 1.0
C      1  0.5573440000000  0.4486040000000  0.4730360000000 1.0
C      1  0.5228200000000  0.4681910000000  0.4696640000000 1.0
C      1  0.4388750000000  0.5486210000000  0.5505570000000 1.0
C      1  0.4942670000000  0.5175530000000  0.4079130000000 1.0
C      1  0.5321360000000  0.5710270000000  0.5281510000000 1.0
C      1  0.5532520000000  0.4589350000000  0.5051830000000 1.0
C      1  0.5042000000000  0.4175510000000  0.5223980000000 1.0
C      1  0.4607520000000  0.4139930000000  0.5275940000000 1.0
C      1  0.5302440000000  0.4797220000000  0.5807650000000 1.0
C      1  0.5760370000000  0.4415810000000  0.5236330000000 1.0
C      1  0.4971870000000  0.4731170000000  0.4908270000000 1.0
C      1  0.5164500000000  0.4566450000000  0.5771860000000 1.0
C      1  0.5850540000000  0.4891250000000  0.5425440000000 1.0
C      1  0.5378350000000  0.4709020000000  0.5330390000000 1.0
C      1  0.4998210000000  0.5870300000000  0.4386950000000 1.0
C      1  0.5892780000000  0.5047810000000  0.5674760000000 1.0
C      1  0.4242660000000  0.5608630000000  0.5307470000000 1.0
C      1  0.5629800000000  0.5661310000000  0.5152660000000 1.0
C      1  0.4214430000000  0.5246740000000  0.4497580000000 1.0
C      1  0.4720650000000  0.5849420000000  0.4770700000000 1.0
C      1  0.5032630000000  0.5426880000000  0.5348210000000 1.0
C      1  0.5735280000000  0.4700830000000  0.4629360000000 1.0
C      1  0.4519690000000  0.5299710000000  0.4174430000000 1.0
C      1  0.4952750000000  0.5054330000000  0.5135660000000 1.0
C      1  0.4844910000000  0.4722060000000  0.4592850000000 1.0
C      1  0.4877480000000  0.5535670000000  0.5726470000000 1.0
C      1  0.4571770000000  0.4695560000000  0.5427070000000 1.0
C      1  0.5550570000000  0.5586310000000  0.4838750000000 1.0
C      1  0.5222360000000  0.4540970000000  0.4986500000000 1.0
C      1  0.5416900000000  0.5350300000000  0.5043880000000 1.0
END
