TITL C-2847945-6269-201 0.00103307814173656 125000 -978.777767668907 0 0 184 (C1) n - 1
REM
REM in /home/bkarasulu/work/CARBON/AIRSS/Generating-Clusters/AIREBO/with-SteepDescent/Only-C1/SD-CG-opt/Try1-1.4A-POS3A/HFTN-CG
REM
REM
REM
REM
REM
REM ./C.cell (11c1c37f851c82e70ff6c80c92926a4b)
REM
REM compiler GCC version 9.2.1 20190827 (Red Hat 9.2.1-1)
REM options -cpp -mtune=generic -march=x86-64 -g -O0 -fpre-include=/usr/include/finclude/math-vector-fortran.h
REM seed -56624273 1242081276 -1302808679 781585492 1895367944 1183130760 70029130 2032299651 2009740247 1168839852 1615363828 -1174806811 -206773160 1722149506 1379842471 -1543183120 -834907876 1011809481 -202677458 -820794313 -1656642606 691467602 614100082 337555003 109843308 -1854680215 -2082336472 -477362912 2028064709 451469860 -2049931791 -1130527967 -714681151
REM
CELL 1.54180   50.00000   50.00000   50.00000   90.00000   90.00000   90.00000
LATT -1
SFAC C  
C      1  0.4946510000000  0.5388960000000  0.5910300000000 1.0
C      1  0.5452840000000  0.5192560000000  0.4528580000000 1.0
C      1  0.5580300000000  0.5934180000000  0.4758780000000 1.0
C      1  0.5485330000000  0.4206090000000  0.4280020000000 1.0
C      1  0.5507720000000  0.5020990000000  0.5009750000000 1.0
C      1  0.5444600000000  0.4849130000000  0.4724830000000 1.0
C      1  0.4701440000000  0.4831770000000  0.3859860000000 1.0
C      1  0.4890460000000  0.4744690000000  0.4337670000000 1.0
C      1  0.5774910000000  0.5212650000000  0.5036490000000 1.0
C      1  0.4200620000000  0.5831840000000  0.4740440000000 1.0
C      1  0.5550950000000  0.4465140000000  0.4162520000000 1.0
C      1  0.5526750000000  0.4164780000000  0.4567990000000 1.0
C      1  0.5503800000000  0.5550480000000  0.4793930000000 1.0
C      1  0.3961620000000  0.5286810000000  0.5476760000000 1.0
C      1  0.4136330000000  0.4592510000000  0.4754030000000 1.0
C      1  0.4337490000000  0.5203400000000  0.4155440000000 1.0
C      1  0.5563400000000  0.5250630000000  0.4139540000000 1.0
C      1  0.4603080000000  0.4260970000000  0.5933310000000 1.0
C      1  0.5131080000000  0.6033070000000  0.5181420000000 1.0
C      1  0.5958880000000  0.5583810000000  0.5308000000000 1.0
C      1  0.4991980000000  0.4319190000000  0.4864170000000 1.0
C      1  0.5218580000000  0.4955670000000  0.5170410000000 1.0
C      1  0.5605000000000  0.5585430000000  0.5664390000000 1.0
C      1  0.4573940000000  0.4440000000000  0.5399340000000 1.0
C      1  0.4626290000000  0.4958360000000  0.4322130000000 1.0
C      1  0.5399830000000  0.4689140000000  0.4457100000000 1.0
C      1  0.4702530000000  0.5078710000000  0.5094550000000 1.0
C      1  0.6051910000000  0.5018880000000  0.4644980000000 1.0
C      1  0.5022710000000  0.4945040000000  0.5763650000000 1.0
C      1  0.5922250000000  0.4349790000000  0.4649840000000 1.0
C      1  0.5171350000000  0.4447920000000  0.4529570000000 1.0
C      1  0.4950520000000  0.5805900000000  0.4911130000000 1.0
C      1  0.5619690000000  0.5707170000000  0.4546600000000 1.0
C      1  0.5009350000000  0.5920910000000  0.5804780000000 1.0
C      1  0.5014720000000  0.5151150000000  0.4980920000000 1.0
C      1  0.4758180000000  0.5489840000000  0.5275220000000 1.0
C      1  0.3981350000000  0.5199750000000  0.4335980000000 1.0
C      1  0.4350950000000  0.5560350000000  0.5089630000000 1.0
C      1  0.6129690000000  0.4395370000000  0.5170370000000 1.0
C      1  0.5337740000000  0.4363980000000  0.5705640000000 1.0
C      1  0.5344070000000  0.4301420000000  0.5260910000000 1.0
C      1  0.4652980000000  0.4063830000000  0.5704270000000 1.0
C      1  0.5416760000000  0.4973420000000  0.4271100000000 1.0
C      1  0.4613980000000  0.5066480000000  0.4012490000000 1.0
C      1  0.4441950000000  0.5133480000000  0.4543430000000 1.0
C      1  0.5269510000000  0.4605490000000  0.4154340000000 1.0
C      1  0.4951360000000  0.5125780000000  0.6128180000000 1.0
C      1  0.5843210000000  0.4643900000000  0.5045910000000 1.0
C      1  0.4596140000000  0.5256630000000  0.5723000000000 1.0
C      1  0.4244240000000  0.5364850000000  0.5860500000000 1.0
C      1  0.4157510000000  0.4184480000000  0.5200970000000 1.0
C      1  0.5714110000000  0.4160190000000  0.5216960000000 1.0
C      1  0.5074320000000  0.4709920000000  0.4973430000000 1.0
C      1  0.5711800000000  0.5108290000000  0.5866960000000 1.0
C      1  0.5153010000000  0.5639850000000  0.5678380000000 1.0
C      1  0.4653230000000  0.5860560000000  0.4464480000000 1.0
C      1  0.4940220000000  0.5053050000000  0.4587040000000 1.0
C      1  0.6021940000000  0.5596360000000  0.4758290000000 1.0
C      1  0.5224300000000  0.5096580000000  0.4743120000000 1.0
C      1  0.5738740000000  0.4673720000000  0.5316840000000 1.0
C      1  0.5235770000000  0.5933460000000  0.5550310000000 1.0
C      1  0.6120840000000  0.4564860000000  0.5359670000000 1.0
C      1  0.5532630000000  0.5415700000000  0.5068930000000 1.0
C      1  0.5118940000000  0.5524220000000  0.4887680000000 1.0
C      1  0.5149690000000  0.4175520000000  0.4327150000000 1.0
C      1  0.5793550000000  0.5736140000000  0.5143060000000 1.0
C      1  0.5221690000000  0.3871420000000  0.5128080000000 1.0
C      1  0.4765920000000  0.5726300000000  0.5722690000000 1.0
C      1  0.4288890000000  0.4547200000000  0.4246430000000 1.0
C      1  0.3854610000000  0.5572020000000  0.4984920000000 1.0
C      1  0.4386850000000  0.4736930000000  0.4933000000000 1.0
C      1  0.5510630000000  0.5787650000000  0.5468100000000 1.0
C      1  0.5149150000000  0.5169830000000  0.3910490000000 1.0
C      1  0.4137220000000  0.4808370000000  0.5243970000000 1.0
C      1  0.4646240000000  0.5725630000000  0.5054540000000 1.0
C      1  0.4468680000000  0.4732990000000  0.5262210000000 1.0
C      1  0.4458840000000  0.4310740000000  0.4422110000000 1.0
C      1  0.4907960000000  0.5450950000000  0.5578050000000 1.0
C      1  0.4392400000000  0.4469740000000  0.5882940000000 1.0
C      1  0.5608510000000  0.4393900000000  0.5414440000000 1.0
C      1  0.4619010000000  0.5205610000000  0.5399910000000 1.0
C      1  0.5867330000000  0.4835620000000  0.5783100000000 1.0
C      1  0.5253570000000  0.5460670000000  0.4581940000000 1.0
C      1  0.4274820000000  0.4693570000000  0.5690210000000 1.0
C      1  0.5083600000000  0.5510730000000  0.5223970000000 1.0
C      1  0.5102260000000  0.4242380000000  0.5492580000000 1.0
C      1  0.4656980000000  0.4578170000000  0.5698920000000 1.0
C      1  0.5748630000000  0.4727100000000  0.4265680000000 1.0
C      1  0.4578780000000  0.4001620000000  0.5455020000000 1.0
C      1  0.5125550000000  0.4867780000000  0.6204960000000 1.0
C      1  0.5251100000000  0.4171750000000  0.4711310000000 1.0
C      1  0.4769340000000  0.4427280000000  0.4351010000000 1.0
C      1  0.5543850000000  0.4808340000000  0.5884360000000 1.0
C      1  0.5904380000000  0.4959060000000  0.4382300000000 1.0
C      1  0.5278940000000  0.4441680000000  0.4999930000000 1.0
C      1  0.3994610000000  0.4789980000000  0.4966980000000 1.0
C      1  0.4337940000000  0.4166570000000  0.4987150000000 1.0
C      1  0.5946870000000  0.4824710000000  0.5493300000000 1.0
C      1  0.4855830000000  0.6001940000000  0.4651240000000 1.0
C      1  0.4083220000000  0.5746920000000  0.4994100000000 1.0
C      1  0.5164420000000  0.5905240000000  0.4589050000000 1.0
C      1  0.4654600000000  0.5534500000000  0.4640930000000 1.0
C      1  0.5943660000000  0.5354710000000  0.5470770000000 1.0
C      1  0.5460560000000  0.4007470000000  0.5169560000000 1.0
C      1  0.4983030000000  0.4608480000000  0.5794860000000 1.0
C      1  0.5192850000000  0.5343310000000  0.6122320000000 1.0
C      1  0.6069630000000  0.4805480000000  0.4850540000000 1.0
C      1  0.4935020000000  0.5386020000000  0.4518390000000 1.0
C      1  0.4907490000000  0.4277620000000  0.5769170000000 1.0
C      1  0.5431360000000  0.4773310000000  0.5363080000000 1.0
C      1  0.5558050000000  0.4823580000000  0.4000360000000 1.0
C      1  0.4529090000000  0.5997150000000  0.5214500000000 1.0
C      1  0.4354880000000  0.5054090000000  0.5835230000000 1.0
C      1  0.5032000000000  0.4731090000000  0.4646640000000 1.0
C      1  0.5337440000000  0.5368220000000  0.3981480000000 1.0
C      1  0.4990370000000  0.4825140000000  0.5386110000000 1.0
C      1  0.5806520000000  0.5393430000000  0.5707300000000 1.0
C      1  0.4780490000000  0.3866320000000  0.5290720000000 1.0
C      1  0.5505900000000  0.4612280000000  0.5641740000000 1.0
C      1  0.3965420000000  0.5039240000000  0.4825000000000 1.0
C      1  0.4656430000000  0.5836620000000  0.5438300000000 1.0
C      1  0.4908280000000  0.4502300000000  0.5397180000000 1.0
C      1  0.5281030000000  0.5886720000000  0.4913520000000 1.0
C      1  0.4076970000000  0.5107980000000  0.5312890000000 1.0
C      1  0.5677720000000  0.5502750000000  0.4324000000000 1.0
C      1  0.5056730000000  0.3933330000000  0.5352870000000 1.0
C      1  0.5506550000000  0.5083890000000  0.5416120000000 1.0
C      1  0.4501570000000  0.4706880000000  0.4446450000000 1.0
C      1  0.5562840000000  0.4394180000000  0.4816620000000 1.0
C      1  0.5761630000000  0.5236730000000  0.4485470000000 1.0
C      1  0.4468590000000  0.4929250000000  0.5539970000000 1.0
C      1  0.4534410000000  0.5718440000000  0.4239370000000 1.0
C      1  0.5928430000000  0.5292990000000  0.4768330000000 1.0
C      1  0.4862600000000  0.4074970000000  0.5034750000000 1.0
C      1  0.4782590000000  0.4771600000000  0.5137010000000 1.0
C      1  0.5067570000000  0.6230520000000  0.4547710000000 1.0
C      1  0.4845650000000  0.5470520000000  0.4227100000000 1.0
C      1  0.4975300000000  0.3969270000000  0.4505770000000 1.0
C      1  0.4364890000000  0.5616420000000  0.5424870000000 1.0
C      1  0.4515270000000  0.5822780000000  0.4756090000000 1.0
C      1  0.4345580000000  0.5463300000000  0.4763690000000 1.0
C      1  0.4888600000000  0.5210040000000  0.4076500000000 1.0
C      1  0.5020360000000  0.5147010000000  0.5491820000000 1.0
C      1  0.4687200000000  0.4076450000000  0.4519250000000 1.0
C      1  0.4153570000000  0.5592170000000  0.4537260000000 1.0
C      1  0.5357740000000  0.5464390000000  0.5765750000000 1.0
C      1  0.5440280000000  0.5220130000000  0.5985600000000 1.0
C      1  0.4239570000000  0.4884950000000  0.4206080000000 1.0
C      1  0.5346400000000  0.5556160000000  0.4268980000000 1.0
C      1  0.5238040000000  0.4710140000000  0.5996380000000 1.0
C      1  0.4564750000000  0.4807790000000  0.5932090000000 1.0
C      1  0.3924370000000  0.5300870000000  0.4946960000000 1.0
C      1  0.5081070000000  0.3931250000000  0.4828240000000 1.0
C      1  0.5855120000000  0.4325270000000  0.4982280000000 1.0
C      1  0.4677500000000  0.5055720000000  0.4756120000000 1.0
C      1  0.5305900000000  0.5140360000000  0.5676350000000 1.0
C      1  0.4537400000000  0.5397180000000  0.4350770000000 1.0
C      1  0.4129600000000  0.5472710000000  0.5605500000000 1.0
C      1  0.5302880000000  0.5280110000000  0.5242170000000 1.0
C      1  0.5226150000000  0.4863200000000  0.3936650000000 1.0
C      1  0.4985600000000  0.5807970000000  0.5357120000000 1.0
C      1  0.5013240000000  0.4417540000000  0.4143430000000 1.0
C      1  0.5471230000000  0.5729780000000  0.5149860000000 1.0
C      1  0.4104860000000  0.4722180000000  0.4472530000000 1.0
C      1  0.4748910000000  0.5045830000000  0.5895380000000 1.0
C      1  0.4587350000000  0.4188900000000  0.5170360000000 1.0
C      1  0.5840490000000  0.5789570000000  0.4869270000000 1.0
C      1  0.4118410000000  0.5029580000000  0.4556320000000 1.0
C      1  0.5688700000000  0.4524740000000  0.4528930000000 1.0
C      1  0.4532240000000  0.4578270000000  0.4708370000000 1.0
C      1  0.5079490000000  0.5019790000000  0.4272730000000 1.0
C      1  0.4138660000000  0.5440430000000  0.4297520000000 1.0
C      1  0.5070480000000  0.5707900000000  0.4328050000000 1.0
C      1  0.4395830000000  0.5059230000000  0.4949060000000 1.0
C      1  0.5739180000000  0.4856540000000  0.4844810000000 1.0
C      1  0.4497150000000  0.5563450000000  0.5729290000000 1.0
C      1  0.4760270000000  0.4362740000000  0.4679540000000 1.0
C      1  0.4320640000000  0.4315960000000  0.4734130000000 1.0
C      1  0.4213910000000  0.5249360000000  0.5076460000000 1.0
C      1  0.4818040000000  0.5402180000000  0.4896820000000 1.0
C      1  0.4924680000000  0.4710280000000  0.3994760000000 1.0
C      1  0.4123760000000  0.4600470000000  0.5474350000000 1.0
C      1  0.5838130000000  0.5102160000000  0.5341320000000 1.0
C      1  0.4243190000000  0.4360780000000  0.5401690000000 1.0
END
