TITL C-2848505-4874-673 -0.00283434908109339 125000 -200.599560739331 0 0 40 (C1) n - 1
REM
REM in /home/bkarasulu/work/CARBON/AIRSS/Generating-Clusters/AIREBO/with-SteepDescent/Only-C1/SD-CG-opt/Try1-1.4A-POS3A/HFTN-CG
REM
REM
REM
REM
REM
REM ./C.cell (11c1c37f851c82e70ff6c80c92926a4b)
REM
REM compiler GCC version 9.2.1 20190827 (Red Hat 9.2.1-1)
REM options -cpp -mtune=generic -march=x86-64 -g -O0 -fpre-include=/usr/include/finclude/math-vector-fortran.h
REM seed -2143020869 1671140128 -2083728962 38599147 1589904865 -197922410 1157186409 -842746660 1950379436 -1826338593 -866273354 -2012562399 1230346674 -69836224 -626871572 -2020002787 1930763489 -1709127272 -673282461 12926517 -506648380 278992786 -1185920548 -645841822 1209340745 925599718 -1560189672 1599393991 -48307950 1944900850 836726879 1461520894 -224492740
REM
CELL 1.54180   50.00000   50.00000   50.00000   90.00000   90.00000   90.00000
LATT -1
SFAC C  
C      1  0.5350940000000  0.5098570000000  0.5540700000000 1.0
C      1  0.4498370000000  0.5193760000000  0.4710640000000 1.0
C      1  0.4995260000000  0.5048210000000  0.4761090000000 1.0
C      1  0.4702070000000  0.4980030000000  0.4602550000000 1.0
C      1  0.5295490000000  0.5103160000000  0.4911140000000 1.0
C      1  0.5482410000000  0.4918720000000  0.4561120000000 1.0
C      1  0.5329670000000  0.5383860000000  0.5099920000000 1.0
C      1  0.5254870000000  0.4470670000000  0.5036380000000 1.0
C      1  0.5431020000000  0.4848960000000  0.5465710000000 1.0
C      1  0.5402200000000  0.4696530000000  0.5250250000000 1.0
C      1  0.4433830000000  0.5231030000000  0.5290910000000 1.0
C      1  0.4946250000000  0.5527030000000  0.4707050000000 1.0
C      1  0.4571110000000  0.5142990000000  0.5751590000000 1.0
C      1  0.4888220000000  0.5122580000000  0.5367720000000 1.0
C      1  0.5532790000000  0.5552780000000  0.4958440000000 1.0
C      1  0.4899940000000  0.5145750000000  0.5049800000000 1.0
C      1  0.5040150000000  0.5440900000000  0.5745360000000 1.0
C      1  0.4409220000000  0.5022370000000  0.5060340000000 1.0
C      1  0.4732410000000  0.5004880000000  0.4319700000000 1.0
C      1  0.5604290000000  0.4985410000000  0.4830640000000 1.0
C      1  0.5147600000000  0.5414510000000  0.4569760000000 1.0
C      1  0.4979800000000  0.4656260000000  0.5484570000000 1.0
C      1  0.5088670000000  0.5441960000000  0.5234410000000 1.0
C      1  0.4589900000000  0.4518690000000  0.4954380000000 1.0
C      1  0.5345780000000  0.4672870000000  0.4589080000000 1.0
C      1  0.4929560000000  0.4492960000000  0.4980240000000 1.0
C      1  0.5178730000000  0.4801620000000  0.5016480000000 1.0
C      1  0.4980680000000  0.4836370000000  0.5290760000000 1.0
C      1  0.4838540000000  0.5465220000000  0.5004990000000 1.0
C      1  0.4617100000000  0.5171210000000  0.5483920000000 1.0
C      1  0.4549510000000  0.5328320000000  0.4996690000000 1.0
C      1  0.5416970000000  0.4453460000000  0.4752470000000 1.0
C      1  0.5102950000000  0.5295310000000  0.5517120000000 1.0
C      1  0.4593860000000  0.4672780000000  0.4675670000000 1.0
C      1  0.5070650000000  0.4739140000000  0.4698850000000 1.0
C      1  0.5429060000000  0.5353040000000  0.4715680000000 1.0
C      1  0.4846440000000  0.4609120000000  0.4546330000000 1.0
C      1  0.4746970000000  0.4226340000000  0.5004450000000 1.0
C      1  0.5347690000000  0.5165000000000  0.4452370000000 1.0
C      1  0.4399020000000  0.4767630000000  0.5010730000000 1.0
END
