TITL C-2847956-8218-724 0.00525204398556911 125000 -1020.02770488118 0 0 192 (C1) n - 1
REM
REM in /home/bkarasulu/work/CARBON/AIRSS/Generating-Clusters/AIREBO/with-SteepDescent/Only-C1/SD-CG-opt/Try1-1.4A-POS3A/HFTN-CG
REM
REM
REM
REM
REM
REM ./C.cell (11c1c37f851c82e70ff6c80c92926a4b)
REM
REM compiler GCC version 9.2.1 20190827 (Red Hat 9.2.1-1)
REM options -cpp -mtune=generic -march=x86-64 -g -O0 -fpre-include=/usr/include/finclude/math-vector-fortran.h
REM seed 4861502 -1405519550 -376537737 -800350172 -1572130626 -1167336193 1472425795 -1821912558 470927568 -683606835 -172583524 -2030871061 -145705362 -1306773464 1350993062 -1359103533 1587041447 225078501 -1087046138 -827345450 1632162046 -478131138 -220869291 230476753 982890547 1664481449 1430504349 1486326204 1802464470 -1964264494 -1350568666 -1261447511 51997394
REM
CELL 1.54180   50.00000   50.00000   50.00000   90.00000   90.00000   90.00000
LATT -1
SFAC C  
C      1  0.5443350000000  0.5723350000000  0.4327230000000 1.0
C      1  0.4846460000000  0.5990340000000  0.5476240000000 1.0
C      1  0.5308500000000  0.4925590000000  0.4491360000000 1.0
C      1  0.4046920000000  0.5556800000000  0.5585520000000 1.0
C      1  0.5601890000000  0.5781670000000  0.5323550000000 1.0
C      1  0.4488570000000  0.4683680000000  0.4971310000000 1.0
C      1  0.5539410000000  0.5238620000000  0.5671650000000 1.0
C      1  0.5473990000000  0.5987640000000  0.5090330000000 1.0
C      1  0.4175890000000  0.4550650000000  0.5671700000000 1.0
C      1  0.5304180000000  0.5040630000000  0.5393370000000 1.0
C      1  0.5304740000000  0.4571020000000  0.5927870000000 1.0
C      1  0.3941230000000  0.4703510000000  0.4656380000000 1.0
C      1  0.5089030000000  0.3906260000000  0.5289730000000 1.0
C      1  0.5226530000000  0.4691700000000  0.4691370000000 1.0
C      1  0.5249370000000  0.4334970000000  0.5397350000000 1.0
C      1  0.4528050000000  0.4401430000000  0.3939700000000 1.0
C      1  0.4608200000000  0.6021890000000  0.5263630000000 1.0
C      1  0.4058720000000  0.5408550000000  0.4450900000000 1.0
C      1  0.5348390000000  0.5806890000000  0.4845770000000 1.0
C      1  0.4096550000000  0.5283350000000  0.5004090000000 1.0
C      1  0.4541280000000  0.4393030000000  0.5692340000000 1.0
C      1  0.5000990000000  0.5119910000000  0.4663640000000 1.0
C      1  0.5085400000000  0.4493170000000  0.4470850000000 1.0
C      1  0.5607360000000  0.5122500000000  0.5359320000000 1.0
C      1  0.5209380000000  0.6123300000000  0.5180290000000 1.0
C      1  0.4947810000000  0.3813100000000  0.5054370000000 1.0
C      1  0.5131910000000  0.6030010000000  0.4730320000000 1.0
C      1  0.5127840000000  0.6075480000000  0.5438060000000 1.0
C      1  0.4964100000000  0.5088990000000  0.3842330000000 1.0
C      1  0.5311880000000  0.5231860000000  0.4640890000000 1.0
C      1  0.4020790000000  0.4916720000000  0.5671020000000 1.0
C      1  0.4623970000000  0.4908820000000  0.3946410000000 1.0
C      1  0.5815830000000  0.5572810000000  0.4646730000000 1.0
C      1  0.5633230000000  0.5004840000000  0.4707890000000 1.0
C      1  0.4930080000000  0.4785400000000  0.3867390000000 1.0
C      1  0.4380720000000  0.4789860000000  0.5563650000000 1.0
C      1  0.5013950000000  0.5320460000000  0.5703020000000 1.0
C      1  0.5953390000000  0.5421000000000  0.4989530000000 1.0
C      1  0.5313040000000  0.4627180000000  0.5328780000000 1.0
C      1  0.4255210000000  0.4589090000000  0.4609200000000 1.0
C      1  0.6136160000000  0.4748420000000  0.4732950000000 1.0
C      1  0.5559330000000  0.5747820000000  0.4584880000000 1.0
C      1  0.4849160000000  0.5700040000000  0.5610170000000 1.0
C      1  0.4685280000000  0.5200280000000  0.6082090000000 1.0
C      1  0.4628740000000  0.4503050000000  0.6125300000000 1.0
C      1  0.4530690000000  0.4737060000000  0.5281760000000 1.0
C      1  0.4857000000000  0.5396770000000  0.4275990000000 1.0
C      1  0.4512450000000  0.5568490000000  0.5440960000000 1.0
C      1  0.4256600000000  0.4221080000000  0.5694130000000 1.0
C      1  0.4452730000000  0.5053860000000  0.5985710000000 1.0
C      1  0.4232970000000  0.4849090000000  0.5929800000000 1.0
C      1  0.5384590000000  0.4932780000000  0.4011220000000 1.0
C      1  0.5833960000000  0.4376360000000  0.5473760000000 1.0
C      1  0.4560450000000  0.5002090000000  0.4839880000000 1.0
C      1  0.5402480000000  0.4148420000000  0.4163770000000 1.0
C      1  0.4563680000000  0.5434780000000  0.4108080000000 1.0
C      1  0.6029700000000  0.5199870000000  0.5441810000000 1.0
C      1  0.5960940000000  0.4476960000000  0.4843430000000 1.0
C      1  0.5211870000000  0.5601010000000  0.5079700000000 1.0
C      1  0.5408300000000  0.4832940000000  0.4896770000000 1.0
C      1  0.5198240000000  0.4680680000000  0.4007100000000 1.0
C      1  0.6001120000000  0.5768190000000  0.5500440000000 1.0
C      1  0.5010530000000  0.6124060000000  0.4970980000000 1.0
C      1  0.4392630000000  0.5760780000000  0.5230900000000 1.0
C      1  0.4260420000000  0.5006590000000  0.4270580000000 1.0
C      1  0.4755360000000  0.5407110000000  0.5879930000000 1.0
C      1  0.5668630000000  0.4312740000000  0.4907170000000 1.0
C      1  0.4855430000000  0.4579480000000  0.5111000000000 1.0
C      1  0.4875800000000  0.5302580000000  0.4994150000000 1.0
C      1  0.5743230000000  0.4696110000000  0.4734970000000 1.0
C      1  0.5935650000000  0.5727110000000  0.4896380000000 1.0
C      1  0.4721780000000  0.5908660000000  0.4526930000000 1.0
C      1  0.4980370000000  0.4676270000000  0.4248250000000 1.0
C      1  0.4308420000000  0.5324500000000  0.4251670000000 1.0
C      1  0.4075980000000  0.4617180000000  0.5270540000000 1.0
C      1  0.4114660000000  0.5842550000000  0.5099450000000 1.0
C      1  0.5324920000000  0.5446650000000  0.5647840000000 1.0
C      1  0.4162620000000  0.4696150000000  0.4989170000000 1.0
C      1  0.4989190000000  0.4965890000000  0.4381610000000 1.0
C      1  0.5000230000000  0.5103500000000  0.5964560000000 1.0
C      1  0.4741120000000  0.6039980000000  0.5000750000000 1.0
C      1  0.3981880000000  0.5665660000000  0.5358140000000 1.0
C      1  0.5863640000000  0.4601360000000  0.4317490000000 1.0
C      1  0.4515700000000  0.5541510000000  0.5763210000000 1.0
C      1  0.5805850000000  0.4728280000000  0.5555880000000 1.0
C      1  0.5614120000000  0.4910860000000  0.4174220000000 1.0
C      1  0.5218020000000  0.4336260000000  0.5071790000000 1.0
C      1  0.5287310000000  0.4298590000000  0.5722230000000 1.0
C      1  0.4334650000000  0.4178720000000  0.5137720000000 1.0
C      1  0.4828600000000  0.5487680000000  0.5345390000000 1.0
C      1  0.5797000000000  0.5906850000000  0.5074040000000 1.0
C      1  0.6001570000000  0.4306340000000  0.5121370000000 1.0
C      1  0.3951710000000  0.4858250000000  0.5385060000000 1.0
C      1  0.4405870000000  0.5251030000000  0.4569030000000 1.0
C      1  0.4926670000000  0.4327740000000  0.4698700000000 1.0
C      1  0.4571010000000  0.4013330000000  0.5317990000000 1.0
C      1  0.5277580000000  0.4907130000000  0.5975830000000 1.0
C      1  0.5167540000000  0.3985460000000  0.4769400000000 1.0
C      1  0.4622900000000  0.4816430000000  0.4421420000000 1.0
C      1  0.5171410000000  0.5601940000000  0.4682690000000 1.0
C      1  0.4280190000000  0.4373110000000  0.5390540000000 1.0
C      1  0.5190570000000  0.5012970000000  0.5074100000000 1.0
C      1  0.4616330000000  0.5041280000000  0.5363030000000 1.0
C      1  0.5351570000000  0.3989690000000  0.5226060000000 1.0
C      1  0.3888630000000  0.5053300000000  0.5144120000000 1.0
C      1  0.5114490000000  0.5397110000000  0.6092970000000 1.0
C      1  0.5506330000000  0.5068520000000  0.5934140000000 1.0
C      1  0.5642350000000  0.5303890000000  0.4272880000000 1.0
C      1  0.5339520000000  0.5303670000000  0.4975000000000 1.0
C      1  0.5412940000000  0.4011190000000  0.4946220000000 1.0
C      1  0.6079000000000  0.4665600000000  0.5357290000000 1.0
C      1  0.6042640000000  0.4799710000000  0.4441150000000 1.0
C      1  0.5718630000000  0.4392990000000  0.5747810000000 1.0
C      1  0.5832020000000  0.5535520000000  0.5351410000000 1.0
C      1  0.4696470000000  0.5231280000000  0.3900580000000 1.0
C      1  0.4457770000000  0.6035660000000  0.5553890000000 1.0
C      1  0.5546670000000  0.4652760000000  0.5725560000000 1.0
C      1  0.5260020000000  0.4783560000000  0.5596060000000 1.0
C      1  0.5494830000000  0.4140690000000  0.5494190000000 1.0
C      1  0.5647530000000  0.5347450000000  0.5118920000000 1.0
C      1  0.4432950000000  0.5533780000000  0.4756730000000 1.0
C      1  0.4662920000000  0.4642140000000  0.4153870000000 1.0
C      1  0.5823050000000  0.5335680000000  0.5619880000000 1.0
C      1  0.3920640000000  0.5569230000000  0.5048490000000 1.0
C      1  0.5240460000000  0.5158680000000  0.3902820000000 1.0
C      1  0.5020970000000  0.4631070000000  0.5784010000000 1.0
C      1  0.3909060000000  0.4872540000000  0.4891430000000 1.0
C      1  0.5283380000000  0.5428650000000  0.3980040000000 1.0
C      1  0.6130910000000  0.5407250000000  0.5251680000000 1.0
C      1  0.5043450000000  0.5572990000000  0.4052800000000 1.0
C      1  0.5209180000000  0.5597240000000  0.5912720000000 1.0
C      1  0.5484890000000  0.4554660000000  0.5059980000000 1.0
C      1  0.5156840000000  0.5805560000000  0.5645640000000 1.0
C      1  0.4242030000000  0.5403670000000  0.5685050000000 1.0
C      1  0.4006790000000  0.5319420000000  0.4678070000000 1.0
C      1  0.4799680000000  0.4141630000000  0.4459100000000 1.0
C      1  0.5923240000000  0.4855080000000  0.4975780000000 1.0
C      1  0.4888160000000  0.4968820000000  0.4924640000000 1.0
C      1  0.5313220000000  0.4418210000000  0.4120570000000 1.0
C      1  0.5701260000000  0.4183310000000  0.5227290000000 1.0
C      1  0.4874990000000  0.5638770000000  0.5046610000000 1.0
C      1  0.5815990000000  0.5046710000000  0.4412010000000 1.0
C      1  0.4284190000000  0.4568930000000  0.4056130000000 1.0
C      1  0.4868460000000  0.4049310000000  0.5483710000000 1.0
C      1  0.4603270000000  0.5096110000000  0.5683750000000 1.0
C      1  0.4128680000000  0.5679000000000  0.4801700000000 1.0
C      1  0.4271130000000  0.5017000000000  0.4960290000000 1.0
C      1  0.5178410000000  0.5433840000000  0.4401930000000 1.0
C      1  0.5796640000000  0.4567520000000  0.5195070000000 1.0
C      1  0.5322730000000  0.5658700000000  0.5387330000000 1.0
C      1  0.4567150000000  0.5851590000000  0.5725460000000 1.0
C      1  0.4815280000000  0.4398890000000  0.5860770000000 1.0
C      1  0.4621600000000  0.5718880000000  0.4287820000000 1.0
C      1  0.4614110000000  0.5274600000000  0.5189830000000 1.0
C      1  0.4927930000000  0.5427860000000  0.4711370000000 1.0
C      1  0.4280730000000  0.5108440000000  0.5630800000000 1.0
C      1  0.4953890000000  0.4144310000000  0.4976720000000 1.0
C      1  0.4650390000000  0.5783600000000  0.4835120000000 1.0
C      1  0.4331200000000  0.4848810000000  0.4047510000000 1.0
C      1  0.4319050000000  0.4340150000000  0.4834010000000 1.0
C      1  0.5082780000000  0.5278600000000  0.5384420000000 1.0
C      1  0.4802290000000  0.4870630000000  0.5815250000000 1.0
C      1  0.5046140000000  0.4766380000000  0.5258630000000 1.0
C      1  0.4384110000000  0.5447950000000  0.5082130000000 1.0
C      1  0.5612830000000  0.5328440000000  0.4605560000000 1.0
C      1  0.4858040000000  0.4286340000000  0.5270510000000 1.0
C      1  0.4856580000000  0.4853080000000  0.5479770000000 1.0
C      1  0.4643580000000  0.4652710000000  0.4670150000000 1.0
C      1  0.4700460000000  0.5514790000000  0.4547670000000 1.0
C      1  0.5886820000000  0.4940890000000  0.5303060000000 1.0
C      1  0.5064000000000  0.3993070000000  0.4492360000000 1.0
C      1  0.4354230000000  0.4913940000000  0.4584030000000 1.0
C      1  0.5130390000000  0.5760220000000  0.4319270000000 1.0
C      1  0.6248580000000  0.5034170000000  0.4829050000000 1.0
C      1  0.4629210000000  0.4376790000000  0.4958160000000 1.0
C      1  0.4527860000000  0.4187600000000  0.4413150000000 1.0
C      1  0.4989200000000  0.4165150000000  0.5747070000000 1.0
C      1  0.5503340000000  0.5504000000000  0.4152020000000 1.0
C      1  0.5497240000000  0.4187000000000  0.4666290000000 1.0
C      1  0.4927750000000  0.4654210000000  0.4801280000000 1.0
C      1  0.4693020000000  0.5131480000000  0.4411610000000 1.0
C      1  0.5567980000000  0.4710580000000  0.4445180000000 1.0
C      1  0.4626200000000  0.4056790000000  0.5001520000000 1.0
C      1  0.5347810000000  0.4038740000000  0.4417200000000 1.0
C      1  0.4520800000000  0.4683810000000  0.5854930000000 1.0
C      1  0.4345930000000  0.4108810000000  0.4608970000000 1.0
C      1  0.6102700000000  0.5257270000000  0.4788050000000 1.0
C      1  0.5999860000000  0.5311270000000  0.4520980000000 1.0
C      1  0.4434550000000  0.4473130000000  0.4341000000000 1.0
C      1  0.4610820000000  0.4452130000000  0.5396740000000 1.0
C      1  0.4997230000000  0.5958210000000  0.4498830000000 1.0
C      1  0.5405670000000  0.4431880000000  0.4447510000000 1.0
END
