TITL C-2848499-1157-415 0.00271437843487136 125000 -356.296986500747 0 0 68 (C1) n - 1
REM
REM in /home/bkarasulu/work/CARBON/AIRSS/Generating-Clusters/AIREBO/with-SteepDescent/Only-C1/SD-CG-opt/Try1-1.4A-POS3A/HFTN-CG
REM
REM
REM
REM
REM
REM ./C.cell (11c1c37f851c82e70ff6c80c92926a4b)
REM
REM compiler GCC version 9.2.1 20190827 (Red Hat 9.2.1-1)
REM options -cpp -mtune=generic -march=x86-64 -g -O0 -fpre-include=/usr/include/finclude/math-vector-fortran.h
REM seed -1075799072 1048113494 290960497 -451355311 691139201 1897518148 -805315888 56582270 467854434 2120042808 1535965142 1960365775 317053045 963166315 1937933721 1394525600 739146551 594985815 -803001145 992203845 -1938103459 973688567 497494862 1746484762 -1484365750 -1735338555 1292276541 1698713645 -85869580 -875449759 163603318 -1159344436 356828191
REM
CELL 1.54180   50.00000   50.00000   50.00000   90.00000   90.00000   90.00000
LATT -1
SFAC C  
C      1  0.4911830000000  0.4871940000000  0.5170800000000 1.0
C      1  0.4874900000000  0.4508240000000  0.4399760000000 1.0
C      1  0.4551180000000  0.4538670000000  0.5154070000000 1.0
C      1  0.4955320000000  0.4830040000000  0.4324980000000 1.0
C      1  0.4294780000000  0.5161570000000  0.4651680000000 1.0
C      1  0.4693010000000  0.5657730000000  0.5372820000000 1.0
C      1  0.4508030000000  0.5258360000000  0.4509620000000 1.0
C      1  0.5649690000000  0.4612470000000  0.4594290000000 1.0
C      1  0.5324790000000  0.4808630000000  0.4892560000000 1.0
C      1  0.4938760000000  0.5131060000000  0.5021030000000 1.0
C      1  0.4578180000000  0.5336650000000  0.5397310000000 1.0
C      1  0.4865860000000  0.5458920000000  0.5074040000000 1.0
C      1  0.4561540000000  0.5778320000000  0.5158390000000 1.0
C      1  0.5612280000000  0.4794610000000  0.5369130000000 1.0
C      1  0.4573830000000  0.5075930000000  0.5174980000000 1.0
C      1  0.5559150000000  0.5605120000000  0.4797150000000 1.0
C      1  0.4735080000000  0.5240900000000  0.5676240000000 1.0
C      1  0.4655290000000  0.4778880000000  0.5319430000000 1.0
C      1  0.4146970000000  0.4832520000000  0.4973950000000 1.0
C      1  0.5173150000000  0.4566170000000  0.4292380000000 1.0
C      1  0.4842620000000  0.4608330000000  0.4704540000000 1.0
C      1  0.5234750000000  0.5106020000000  0.4945370000000 1.0
C      1  0.5119020000000  0.5354810000000  0.4613000000000 1.0
C      1  0.5556160000000  0.5067820000000  0.4537010000000 1.0
C      1  0.5491290000000  0.4932620000000  0.5653740000000 1.0
C      1  0.4999650000000  0.5653080000000  0.5319020000000 1.0
C      1  0.4920970000000  0.5084820000000  0.4626470000000 1.0
C      1  0.4630240000000  0.4298200000000  0.4840230000000 1.0
C      1  0.5330000000000  0.5640810000000  0.4983110000000 1.0
C      1  0.5218690000000  0.4826850000000  0.5310130000000 1.0
C      1  0.5367130000000  0.4893140000000  0.4414980000000 1.0
C      1  0.4914700000000  0.4658460000000  0.5503620000000 1.0
C      1  0.4859060000000  0.5419470000000  0.4427820000000 1.0
C      1  0.5170820000000  0.4447410000000  0.5426380000000 1.0
C      1  0.4981410000000  0.5072990000000  0.5840710000000 1.0
C      1  0.5378110000000  0.4645010000000  0.5549290000000 1.0
C      1  0.4995960000000  0.5413380000000  0.5636030000000 1.0
C      1  0.4668280000000  0.5038730000000  0.4849380000000 1.0
C      1  0.5788050000000  0.4946300000000  0.4927250000000 1.0
C      1  0.5117510000000  0.4552610000000  0.5131950000000 1.0
C      1  0.5447830000000  0.4499920000000  0.4847800000000 1.0
C      1  0.4293490000000  0.5138720000000  0.4995510000000 1.0
C      1  0.5428740000000  0.5296150000000  0.4740830000000 1.0
C      1  0.4266600000000  0.4873050000000  0.4701320000000 1.0
C      1  0.5374270000000  0.4416030000000  0.4526600000000 1.0
C      1  0.4292610000000  0.4354890000000  0.5276420000000 1.0
C      1  0.5287320000000  0.5634860000000  0.5268790000000 1.0
C      1  0.4753600000000  0.5103670000000  0.4331090000000 1.0
C      1  0.5277390000000  0.5362330000000  0.5660860000000 1.0
C      1  0.5358720000000  0.4348210000000  0.5128180000000 1.0
C      1  0.5750590000000  0.4892560000000  0.4655010000000 1.0
C      1  0.5394830000000  0.5110830000000  0.5241640000000 1.0
C      1  0.5389960000000  0.5393560000000  0.5402490000000 1.0
C      1  0.5596280000000  0.4786350000000  0.5096790000000 1.0
C      1  0.4484280000000  0.4435040000000  0.4681280000000 1.0
C      1  0.4596990000000  0.5573670000000  0.4899830000000 1.0
C      1  0.5100870000000  0.5538210000000  0.4863380000000 1.0
C      1  0.5017070000000  0.4983660000000  0.5534900000000 1.0
C      1  0.5620670000000  0.5174870000000  0.5006050000000 1.0
C      1  0.4615820000000  0.5523430000000  0.4604870000000 1.0
C      1  0.5505870000000  0.4617290000000  0.4286210000000 1.0
C      1  0.4393130000000  0.5418770000000  0.5123560000000 1.0
C      1  0.4960540000000  0.5257250000000  0.5336030000000 1.0
C      1  0.4549930000000  0.4760060000000  0.4703270000000 1.0
C      1  0.5115090000000  0.4800960000000  0.4623760000000 1.0
C      1  0.4851430000000  0.4484870000000  0.5003350000000 1.0
C      1  0.5309660000000  0.5099170000000  0.5781500000000 1.0
C      1  0.4218400000000  0.4614010000000  0.5114040000000 1.0
END
