TITL C-2847944-5688-686 0.00106960639866605 125000 -213.079298110897 0 0 37 (C1) n - 1
REM
REM in /home/bkarasulu/work/CARBON/AIRSS/Generating-Clusters/AIREBO/with-SteepDescent/Only-C1/SD-CG-opt/Try1-1.4A-POS3A/HFTN-CG
REM
REM
REM
REM
REM
REM ./C.cell (11c1c37f851c82e70ff6c80c92926a4b)
REM
REM compiler GCC version 9.2.1 20190827 (Red Hat 9.2.1-1)
REM options -cpp -mtune=generic -march=x86-64 -g -O0 -fpre-include=/usr/include/finclude/math-vector-fortran.h
REM seed 1204289442 1800364166 1148351933 -588841833 494973408 -818480560 -684841065 -2015981370 -771649338 -1497159255 488824618 1477534651 -746710231 192433511 -736926814 -1435951043 2119016637 -970362403 -100103119 89994453 407069435 -748097736 694647272 -2058930134 801057768 438003053 -989883942 895447265 -485867700 -273101580 -11087173 2054466298 880227146
REM
CELL 1.54180   50.00000   50.00000   50.00000   90.00000   90.00000   90.00000
LATT -1
SFAC C  
C      1  0.4948070000000  0.5201360000000  0.5807690000000 1.0
C      1  0.5127890000000  0.4475100000000  0.5007960000000 1.0
C      1  0.5382790000000  0.5089440000000  0.5301350000000 1.0
C      1  0.5135120000000  0.5668040000000  0.5079990000000 1.0
C      1  0.4710120000000  0.4591380000000  0.5289270000000 1.0
C      1  0.5144810000000  0.4720740000000  0.4510490000000 1.0
C      1  0.5361850000000  0.4688120000000  0.5005820000000 1.0
C      1  0.5266400000000  0.5208720000000  0.4281410000000 1.0
C      1  0.4773860000000  0.5273510000000  0.5386150000000 1.0
C      1  0.4504130000000  0.5118200000000  0.5134950000000 1.0
C      1  0.4976730000000  0.5496790000000  0.4943860000000 1.0
C      1  0.5256960000000  0.5328320000000  0.5401710000000 1.0
C      1  0.5107750000000  0.5297730000000  0.4760270000000 1.0
C      1  0.5267390000000  0.4936250000000  0.5101840000000 1.0
C      1  0.4853170000000  0.4825440000000  0.4471290000000 1.0
C      1  0.4700620000000  0.4650940000000  0.4684360000000 1.0
C      1  0.4825650000000  0.5105380000000  0.4522630000000 1.0
C      1  0.5010680000000  0.4702630000000  0.4814830000000 1.0
C      1  0.4479510000000  0.4723930000000  0.4842630000000 1.0
C      1  0.5303790000000  0.5578610000000  0.5278820000000 1.0
C      1  0.5037230000000  0.5021720000000  0.4912750000000 1.0
C      1  0.4524970000000  0.4863550000000  0.5328860000000 1.0
C      1  0.5528230000000  0.4693480000000  0.4772670000000 1.0
C      1  0.4450810000000  0.4615860000000  0.5108340000000 1.0
C      1  0.5414700000000  0.4795420000000  0.4529690000000 1.0
C      1  0.5188870000000  0.4220580000000  0.4911840000000 1.0
C      1  0.4944330000000  0.4478150000000  0.5257800000000 1.0
C      1  0.5621050000000  0.5015540000000  0.5406850000000 1.0
C      1  0.4724350000000  0.5368780000000  0.5085960000000 1.0
C      1  0.4739120000000  0.5155090000000  0.4817510000000 1.0
C      1  0.4451180000000  0.5007480000000  0.4856180000000 1.0
C      1  0.5012520000000  0.5304040000000  0.5542930000000 1.0
C      1  0.5413950000000  0.5280890000000  0.4645820000000 1.0
C      1  0.5042340000000  0.5278850000000  0.4437170000000 1.0
C      1  0.5471910000000  0.5061010000000  0.4444360000000 1.0
C      1  0.4603950000000  0.5086360000000  0.5520300000000 1.0
C      1  0.4693200000000  0.5072560000000  0.5793640000000 1.0
END
