TITL C-2848504-8560-331 0.00174934444487869 125000 -918.594313533662 0 0 172 (C1) n - 1
REM
REM in /home/bkarasulu/work/CARBON/AIRSS/Generating-Clusters/AIREBO/with-SteepDescent/Only-C1/SD-CG-opt/Try1-1.4A-POS3A/HFTN-CG
REM
REM
REM
REM
REM
REM ./C.cell (11c1c37f851c82e70ff6c80c92926a4b)
REM
REM compiler GCC version 9.2.1 20190827 (Red Hat 9.2.1-1)
REM options -cpp -mtune=generic -march=x86-64 -g -O0 -fpre-include=/usr/include/finclude/math-vector-fortran.h
REM seed 983454270 1157404506 -1015853913 1361692465 -1638863750 -220481064 1932372616 -1457551259 -1299409359 715981148 2044255149 -1584608741 -826852145 2032967125 535381744 -1297048106 -744958579 -1760090031 133449413 -1710004459 -1265286899 1836666758 293175774 292600357 -1432696558 1744310428 730888203 -1899568430 1699277661 1679968755 -571449059 824035677 847540669
REM
CELL 1.54180   50.00000   50.00000   50.00000   90.00000   90.00000   90.00000
LATT -1
SFAC C  
C      1  0.4177460000000  0.4508970000000  0.4831220000000 1.0
C      1  0.5517550000000  0.4785290000000  0.5965370000000 1.0
C      1  0.5351260000000  0.4775100000000  0.5034730000000 1.0
C      1  0.4955840000000  0.4954890000000  0.5856030000000 1.0
C      1  0.5531650000000  0.4481520000000  0.5662850000000 1.0
C      1  0.4767060000000  0.4164230000000  0.5448320000000 1.0
C      1  0.5948080000000  0.5600900000000  0.5022830000000 1.0
C      1  0.4885020000000  0.4218050000000  0.4239810000000 1.0
C      1  0.5499210000000  0.4989400000000  0.4848370000000 1.0
C      1  0.4998080000000  0.4975480000000  0.4947500000000 1.0
C      1  0.5556100000000  0.5764100000000  0.4705930000000 1.0
C      1  0.5840040000000  0.5608010000000  0.4713340000000 1.0
C      1  0.4777420000000  0.3560760000000  0.5323400000000 1.0
C      1  0.6057300000000  0.4763180000000  0.4868110000000 1.0
C      1  0.5848850000000  0.4530270000000  0.5560260000000 1.0
C      1  0.5948140000000  0.4812840000000  0.5399280000000 1.0
C      1  0.5438760000000  0.5768630000000  0.5651580000000 1.0
C      1  0.5536820000000  0.4632100000000  0.4170580000000 1.0
C      1  0.4727430000000  0.5310790000000  0.4605710000000 1.0
C      1  0.3949930000000  0.5164370000000  0.5052970000000 1.0
C      1  0.4364290000000  0.5514990000000  0.4343720000000 1.0
C      1  0.4865920000000  0.5635420000000  0.5158590000000 1.0
C      1  0.5466450000000  0.5278220000000  0.4846120000000 1.0
C      1  0.4568550000000  0.5468300000000  0.5839260000000 1.0
C      1  0.5605840000000  0.4608700000000  0.5156560000000 1.0
C      1  0.5187130000000  0.5568590000000  0.5734210000000 1.0
C      1  0.4302570000000  0.4348430000000  0.5293350000000 1.0
C      1  0.4986200000000  0.5553590000000  0.5529700000000 1.0
C      1  0.4204270000000  0.4843770000000  0.4790300000000 1.0
C      1  0.4981320000000  0.5279710000000  0.4787130000000 1.0
C      1  0.4293440000000  0.4642150000000  0.5121950000000 1.0
C      1  0.3999120000000  0.5090660000000  0.5381230000000 1.0
C      1  0.5599040000000  0.4980350000000  0.4448930000000 1.0
C      1  0.4256150000000  0.5678470000000  0.4887730000000 1.0
C      1  0.5001700000000  0.4465660000000  0.4441190000000 1.0
C      1  0.4441390000000  0.4192840000000  0.4581180000000 1.0
C      1  0.4740600000000  0.5571390000000  0.4463600000000 1.0
C      1  0.5342370000000  0.4816890000000  0.4600810000000 1.0
C      1  0.5276020000000  0.4802110000000  0.5359630000000 1.0
C      1  0.5531510000000  0.6018610000000  0.4920340000000 1.0
C      1  0.4532980000000  0.4545550000000  0.4203530000000 1.0
C      1  0.4955200000000  0.5699750000000  0.4875480000000 1.0
C      1  0.5732050000000  0.5637330000000  0.5539650000000 1.0
C      1  0.5409500000000  0.5092560000000  0.4225230000000 1.0
C      1  0.4685770000000  0.4947370000000  0.6062500000000 1.0
C      1  0.4740170000000  0.5052390000000  0.5143350000000 1.0
C      1  0.5525910000000  0.5604230000000  0.5938940000000 1.0
C      1  0.4149720000000  0.5293850000000  0.4237520000000 1.0
C      1  0.4721270000000  0.5132510000000  0.5685430000000 1.0
C      1  0.4706940000000  0.4664280000000  0.5223150000000 1.0
C      1  0.5739460000000  0.4128900000000  0.5195800000000 1.0
C      1  0.5502300000000  0.5613870000000  0.5290780000000 1.0
C      1  0.4322360000000  0.5252600000000  0.5211530000000 1.0
C      1  0.5827870000000  0.5139270000000  0.4262880000000 1.0
C      1  0.5644140000000  0.5727640000000  0.5038080000000 1.0
C      1  0.4805950000000  0.5904970000000  0.4471410000000 1.0
C      1  0.5040370000000  0.3997740000000  0.5333500000000 1.0
C      1  0.5417470000000  0.5098900000000  0.5880080000000 1.0
C      1  0.4685620000000  0.4338070000000  0.5180020000000 1.0
C      1  0.5318670000000  0.4182170000000  0.5255180000000 1.0
C      1  0.5694550000000  0.5299380000000  0.5540960000000 1.0
C      1  0.5496480000000  0.5459240000000  0.4574130000000 1.0
C      1  0.4986830000000  0.4401600000000  0.5050850000000 1.0
C      1  0.5546400000000  0.4302060000000  0.4653970000000 1.0
C      1  0.5010040000000  0.4902050000000  0.4615650000000 1.0
C      1  0.4189080000000  0.5049040000000  0.4347670000000 1.0
C      1  0.5428170000000  0.5405640000000  0.4250770000000 1.0
C      1  0.5551660000000  0.4585260000000  0.4465850000000 1.0
C      1  0.4104740000000  0.5450910000000  0.5074470000000 1.0
C      1  0.4100020000000  0.4570950000000  0.4519980000000 1.0
C      1  0.3971940000000  0.5237290000000  0.4742370000000 1.0
C      1  0.5200890000000  0.4519900000000  0.4646010000000 1.0
C      1  0.6038470000000  0.5041530000000  0.5062660000000 1.0
C      1  0.4456540000000  0.4914590000000  0.5889100000000 1.0
C      1  0.4521310000000  0.4645080000000  0.5702650000000 1.0
C      1  0.5101690000000  0.4653270000000  0.4914430000000 1.0
C      1  0.4829390000000  0.4245080000000  0.4634230000000 1.0
C      1  0.5135280000000  0.4128590000000  0.4608670000000 1.0
C      1  0.5422300000000  0.4482880000000  0.5375810000000 1.0
C      1  0.5613160000000  0.5240460000000  0.5216130000000 1.0
C      1  0.5867890000000  0.4846250000000  0.4597910000000 1.0
C      1  0.5148280000000  0.4238190000000  0.5544090000000 1.0
C      1  0.4495420000000  0.5967380000000  0.5220000000000 1.0
C      1  0.6037450000000  0.5221860000000  0.5351290000000 1.0
C      1  0.5084800000000  0.5155980000000  0.4304450000000 1.0
C      1  0.5202270000000  0.4284760000000  0.4153110000000 1.0
C      1  0.5746300000000  0.4806600000000  0.5735850000000 1.0
C      1  0.4651400000000  0.5334620000000  0.5005600000000 1.0
C      1  0.4713790000000  0.5651570000000  0.5641840000000 1.0
C      1  0.4598860000000  0.3958000000000  0.5094710000000 1.0
C      1  0.5158270000000  0.5721030000000  0.4627090000000 1.0
C      1  0.5889200000000  0.4356470000000  0.5277930000000 1.0
C      1  0.4485340000000  0.5796920000000  0.4437590000000 1.0
C      1  0.3910590000000  0.5505880000000  0.4537510000000 1.0
C      1  0.4919530000000  0.5263270000000  0.5447930000000 1.0
C      1  0.5729780000000  0.4899710000000  0.5044760000000 1.0
C      1  0.4708230000000  0.4166430000000  0.4891050000000 1.0
C      1  0.4817470000000  0.5320300000000  0.5952230000000 1.0
C      1  0.5106880000000  0.4295330000000  0.5849670000000 1.0
C      1  0.4226390000000  0.5441290000000  0.4645870000000 1.0
C      1  0.4612930000000  0.4479020000000  0.4515440000000 1.0
C      1  0.4619290000000  0.4135860000000  0.4311900000000 1.0
C      1  0.5336880000000  0.4204660000000  0.4403990000000 1.0
C      1  0.4629980000000  0.4919140000000  0.5434860000000 1.0
C      1  0.4888780000000  0.5844230000000  0.5420620000000 1.0
C      1  0.4347540000000  0.4739430000000  0.5443330000000 1.0
C      1  0.4212940000000  0.5832300000000  0.5187880000000 1.0
C      1  0.5182440000000  0.4807290000000  0.6018470000000 1.0
C      1  0.4728680000000  0.4724650000000  0.4690110000000 1.0
C      1  0.5346700000000  0.5386580000000  0.5111190000000 1.0
C      1  0.4021390000000  0.4845100000000  0.5145580000000 1.0
C      1  0.5217810000000  0.4272770000000  0.4879230000000 1.0
C      1  0.5920590000000  0.5070180000000  0.5619880000000 1.0
C      1  0.5646930000000  0.4951230000000  0.5354830000000 1.0
C      1  0.5813100000000  0.4516530000000  0.4672080000000 1.0
C      1  0.6208380000000  0.5160330000000  0.4794320000000 1.0
C      1  0.5059200000000  0.5289960000000  0.3992850000000 1.0
C      1  0.5015990000000  0.4874160000000  0.4117790000000 1.0
C      1  0.5508100000000  0.4185220000000  0.4972730000000 1.0
C      1  0.5402360000000  0.4886690000000  0.3986190000000 1.0
C      1  0.4970750000000  0.4718480000000  0.5430780000000 1.0
C      1  0.4354230000000  0.4130520000000  0.5073060000000 1.0
C      1  0.5227080000000  0.5878610000000  0.5407750000000 1.0
C      1  0.5158110000000  0.5172480000000  0.5672710000000 1.0
C      1  0.4199500000000  0.5300620000000  0.5518320000000 1.0
C      1  0.5042100000000  0.5372480000000  0.5084520000000 1.0
C      1  0.4805790000000  0.4365080000000  0.5706370000000 1.0
C      1  0.5164410000000  0.5389720000000  0.4549430000000 1.0
C      1  0.4070550000000  0.4992690000000  0.4591380000000 1.0
C      1  0.4095650000000  0.4848360000000  0.5537220000000 1.0
C      1  0.5822430000000  0.5371670000000  0.4511010000000 1.0
C      1  0.5378300000000  0.5373860000000  0.6022650000000 1.0
C      1  0.4498070000000  0.4346570000000  0.5539030000000 1.0
C      1  0.4530940000000  0.5316920000000  0.4123240000000 1.0
C      1  0.5884260000000  0.4533050000000  0.5003880000000 1.0
C      1  0.4464680000000  0.5261560000000  0.4753980000000 1.0
C      1  0.5307810000000  0.4528130000000  0.5889570000000 1.0
C      1  0.5965140000000  0.5499130000000  0.5329030000000 1.0
C      1  0.4294830000000  0.4666390000000  0.4362210000000 1.0
C      1  0.4720050000000  0.4457010000000  0.3942570000000 1.0
C      1  0.5024370000000  0.5687010000000  0.4322040000000 1.0
C      1  0.4482060000000  0.5016180000000  0.3978230000000 1.0
C      1  0.4619270000000  0.5375570000000  0.5332400000000 1.0
C      1  0.5828570000000  0.5295660000000  0.5014650000000 1.0
C      1  0.5266580000000  0.5124430000000  0.3815910000000 1.0
C      1  0.4499910000000  0.4931120000000  0.4302480000000 1.0
C      1  0.6031930000000  0.5129050000000  0.4572430000000 1.0
C      1  0.4377880000000  0.5039740000000  0.4977360000000 1.0
C      1  0.4795800000000  0.5118900000000  0.4032120000000 1.0
C      1  0.5223350000000  0.4610550000000  0.4058150000000 1.0
C      1  0.4560190000000  0.4760700000000  0.4947520000000 1.0
C      1  0.4520020000000  0.5693340000000  0.5396620000000 1.0
C      1  0.4293060000000  0.4227600000000  0.4814420000000 1.0
C      1  0.4791540000000  0.3822120000000  0.5243350000000 1.0
C      1  0.4007290000000  0.4522680000000  0.5261810000000 1.0
C      1  0.4854090000000  0.4614750000000  0.4203350000000 1.0
C      1  0.4781540000000  0.5062210000000  0.4426890000000 1.0
C      1  0.5217200000000  0.5989750000000  0.4834810000000 1.0
C      1  0.5306810000000  0.5945150000000  0.5164630000000 1.0
C      1  0.4387690000000  0.5212430000000  0.5738110000000 1.0
C      1  0.5031250000000  0.4442570000000  0.5343000000000 1.0
C      1  0.5124260000000  0.5083700000000  0.5244130000000 1.0
C      1  0.4203440000000  0.5610630000000  0.5430290000000 1.0
C      1  0.4574130000000  0.5654920000000  0.4985120000000 1.0
C      1  0.4850350000000  0.4692020000000  0.5699910000000 1.0
C      1  0.5458120000000  0.4923540000000  0.5597280000000 1.0
C      1  0.5190090000000  0.5521810000000  0.4148820000000 1.0
C      1  0.4686810000000  0.5970310000000  0.4987060000000 1.0
C      1  0.4893740000000  0.6003730000000  0.4747620000000 1.0
C      1  0.4310600000000  0.5904870000000  0.4647110000000 1.0
C      1  0.5073460000000  0.5421370000000  0.5990120000000 1.0
C      1  0.5373270000000  0.5394660000000  0.5525680000000 1.0
END
