TITL C-2848498-1409-636 1.19939049711874e-05 125000 -1006.13024062284 0 0 188 (C1) n - 1
REM
REM in /home/bkarasulu/work/CARBON/AIRSS/Generating-Clusters/AIREBO/with-SteepDescent/Only-C1/SD-CG-opt/Try1-1.4A-POS3A/HFTN-CG
REM
REM
REM
REM
REM
REM ./C.cell (11c1c37f851c82e70ff6c80c92926a4b)
REM
REM compiler GCC version 9.2.1 20190827 (Red Hat 9.2.1-1)
REM options -cpp -mtune=generic -march=x86-64 -g -O0 -fpre-include=/usr/include/finclude/math-vector-fortran.h
REM seed -256524405 -712708017 -1095956057 -1602592197 -1993530413 1372291400 -1786960976 -633817786 -1514960379 -1218156826 -826467372 -1992533604 -432304746 -1535986962 -628062477 1970836215 -776928635 -1049042562 -372058208 -1199291330 -1304501546 1369353263 -942581678 -792098986 -1457944540 496946867 -530735239 1331041555 1444384891 1575339601 757793800 754485052 1184615555
REM
CELL 1.54180   50.00000   50.00000   50.00000   90.00000   90.00000   90.00000
LATT -1
SFAC C  
C      1  0.4435790000000  0.4738650000000  0.4558210000000 1.0
C      1  0.4741380000000  0.4793950000000  0.5008150000000 1.0
C      1  0.5239910000000  0.5556240000000  0.5305350000000 1.0
C      1  0.6032560000000  0.4723740000000  0.5172480000000 1.0
C      1  0.4923600000000  0.5468400000000  0.4770050000000 1.0
C      1  0.4176830000000  0.4357920000000  0.4702550000000 1.0
C      1  0.4170040000000  0.4950710000000  0.5726530000000 1.0
C      1  0.4769370000000  0.5367140000000  0.4278590000000 1.0
C      1  0.5773130000000  0.3981150000000  0.5047740000000 1.0
C      1  0.3969610000000  0.5667110000000  0.4585040000000 1.0
C      1  0.5514380000000  0.4352830000000  0.5182150000000 1.0
C      1  0.4421270000000  0.5062440000000  0.4987900000000 1.0
C      1  0.5260150000000  0.4452560000000  0.5905130000000 1.0
C      1  0.4576680000000  0.4351400000000  0.5664470000000 1.0
C      1  0.4849850000000  0.5714460000000  0.5855680000000 1.0
C      1  0.4631310000000  0.5667260000000  0.5049690000000 1.0
C      1  0.5865480000000  0.5475340000000  0.4725150000000 1.0
C      1  0.5395570000000  0.5400300000000  0.4840750000000 1.0
C      1  0.5679670000000  0.4533700000000  0.4480820000000 1.0
C      1  0.5521240000000  0.5401020000000  0.4004880000000 1.0
C      1  0.4040720000000  0.5118440000000  0.4024060000000 1.0
C      1  0.4324490000000  0.5456330000000  0.5664390000000 1.0
C      1  0.4794850000000  0.3868660000000  0.5088000000000 1.0
C      1  0.5104980000000  0.5529540000000  0.5983620000000 1.0
C      1  0.4545890000000  0.5845110000000  0.4547080000000 1.0
C      1  0.4985680000000  0.4620720000000  0.5795250000000 1.0
C      1  0.5251100000000  0.4845960000000  0.4181730000000 1.0
C      1  0.4976200000000  0.4246460000000  0.4888360000000 1.0
C      1  0.4088640000000  0.5662110000000  0.5113800000000 1.0
C      1  0.4791580000000  0.4995610000000  0.4134130000000 1.0
C      1  0.4932490000000  0.4763200000000  0.4271150000000 1.0
C      1  0.5349790000000  0.5778730000000  0.4368410000000 1.0
C      1  0.5961650000000  0.4442620000000  0.5179490000000 1.0
C      1  0.4796270000000  0.4510530000000  0.4088850000000 1.0
C      1  0.5275930000000  0.5026850000000  0.5448360000000 1.0
C      1  0.5697840000000  0.4850750000000  0.4578340000000 1.0
C      1  0.4708220000000  0.4988160000000  0.6126250000000 1.0
C      1  0.4847230000000  0.4035950000000  0.5335780000000 1.0
C      1  0.4883140000000  0.5074010000000  0.4737710000000 1.0
C      1  0.4343990000000  0.4762970000000  0.4991000000000 1.0
C      1  0.5045400000000  0.4651820000000  0.3905120000000 1.0
C      1  0.5073400000000  0.4237260000000  0.5476530000000 1.0
C      1  0.4906440000000  0.5206650000000  0.5726370000000 1.0
C      1  0.5782480000000  0.4896450000000  0.4252150000000 1.0
C      1  0.5652010000000  0.5549600000000  0.4500820000000 1.0
C      1  0.4876330000000  0.4327120000000  0.5927550000000 1.0
C      1  0.4462750000000  0.5841840000000  0.4811500000000 1.0
C      1  0.4540750000000  0.4664280000000  0.3925430000000 1.0
C      1  0.4615400000000  0.5351500000000  0.3861560000000 1.0
C      1  0.5449320000000  0.5072050000000  0.4615680000000 1.0
C      1  0.3897370000000  0.5532460000000  0.5278240000000 1.0
C      1  0.5227820000000  0.4826940000000  0.4699660000000 1.0
C      1  0.5609200000000  0.5826450000000  0.5254350000000 1.0
C      1  0.4815130000000  0.5121100000000  0.3711100000000 1.0
C      1  0.4666690000000  0.5391170000000  0.4913640000000 1.0
C      1  0.4316400000000  0.5012680000000  0.4680140000000 1.0
C      1  0.5761790000000  0.4280270000000  0.4960510000000 1.0
C      1  0.5134850000000  0.5239610000000  0.4790900000000 1.0
C      1  0.5889480000000  0.4355380000000  0.4654460000000 1.0
C      1  0.4671060000000  0.4396710000000  0.4885500000000 1.0
C      1  0.4992420000000  0.4239300000000  0.4110050000000 1.0
C      1  0.4477260000000  0.5456250000000  0.4128720000000 1.0
C      1  0.4364360000000  0.5170540000000  0.5816300000000 1.0
C      1  0.5033550000000  0.5879920000000  0.4057890000000 1.0
C      1  0.5073380000000  0.4986860000000  0.3854430000000 1.0
C      1  0.5592030000000  0.3892250000000  0.5294800000000 1.0
C      1  0.5344450000000  0.4603700000000  0.6154730000000 1.0
C      1  0.4154580000000  0.4636120000000  0.4663700000000 1.0
C      1  0.5373090000000  0.4673320000000  0.4433320000000 1.0
C      1  0.5637580000000  0.5184080000000  0.4875370000000 1.0
C      1  0.5271330000000  0.4326180000000  0.4263270000000 1.0
C      1  0.4634490000000  0.5017580000000  0.5735580000000 1.0
C      1  0.5647920000000  0.5134090000000  0.4147700000000 1.0
C      1  0.4306110000000  0.5231950000000  0.5425870000000 1.0
C      1  0.5877850000000  0.5136410000000  0.5422610000000 1.0
C      1  0.4322270000000  0.4235900000000  0.4495210000000 1.0
C      1  0.4052910000000  0.4792530000000  0.4891170000000 1.0
C      1  0.5202620000000  0.4879680000000  0.5746170000000 1.0
C      1  0.5046620000000  0.4838490000000  0.5313590000000 1.0
C      1  0.4782000000000  0.4552180000000  0.5236610000000 1.0
C      1  0.5926580000000  0.4616410000000  0.5612650000000 1.0
C      1  0.5196430000000  0.4548500000000  0.5414260000000 1.0
C      1  0.5651540000000  0.4657580000000  0.4078910000000 1.0
C      1  0.4564260000000  0.4381570000000  0.4305720000000 1.0
C      1  0.5341880000000  0.5773030000000  0.5544790000000 1.0
C      1  0.5644670000000  0.5241490000000  0.5181000000000 1.0
C      1  0.4555940000000  0.5225660000000  0.6066720000000 1.0
C      1  0.3847030000000  0.5268130000000  0.5301830000000 1.0
C      1  0.5819250000000  0.5639390000000  0.4972790000000 1.0
C      1  0.4879210000000  0.4196980000000  0.4608890000000 1.0
C      1  0.4271400000000  0.4689170000000  0.5681010000000 1.0
C      1  0.5483130000000  0.4368250000000  0.4786500000000 1.0
C      1  0.5015810000000  0.5215630000000  0.4099690000000 1.0
C      1  0.4455760000000  0.4679830000000  0.4252660000000 1.0
C      1  0.5292850000000  0.4114820000000  0.5933370000000 1.0
C      1  0.5964960000000  0.5156180000000  0.4787780000000 1.0
C      1  0.5579090000000  0.5103910000000  0.5581790000000 1.0
C      1  0.4114390000000  0.5242580000000  0.4806550000000 1.0
C      1  0.4203320000000  0.5303160000000  0.4212860000000 1.0
C      1  0.4691790000000  0.4665050000000  0.4717470000000 1.0
C      1  0.5429170000000  0.5659750000000  0.5058010000000 1.0
C      1  0.5257870000000  0.5545650000000  0.4565910000000 1.0
C      1  0.4518720000000  0.6049980000000  0.5032520000000 1.0
C      1  0.4195110000000  0.4326420000000  0.5005980000000 1.0
C      1  0.4708150000000  0.5119690000000  0.5100270000000 1.0
C      1  0.4933700000000  0.5501370000000  0.5431140000000 1.0
C      1  0.5306410000000  0.5933770000000  0.4900920000000 1.0
C      1  0.4453490000000  0.5387720000000  0.4658660000000 1.0
C      1  0.4893140000000  0.5497260000000  0.3817700000000 1.0
C      1  0.4472610000000  0.4561330000000  0.5816470000000 1.0
C      1  0.6105390000000  0.5322600000000  0.5251830000000 1.0
C      1  0.4989460000000  0.4387960000000  0.4416620000000 1.0
C      1  0.5434730000000  0.4823640000000  0.5223440000000 1.0
C      1  0.5454420000000  0.5402540000000  0.5640830000000 1.0
C      1  0.4406080000000  0.5098230000000  0.4387790000000 1.0
C      1  0.3945870000000  0.5022050000000  0.5088200000000 1.0
C      1  0.4702420000000  0.5841150000000  0.5624900000000 1.0
C      1  0.5784750000000  0.3674520000000  0.5149290000000 1.0
C      1  0.4885990000000  0.5745900000000  0.5199370000000 1.0
C      1  0.5653560000000  0.5642130000000  0.5504450000000 1.0
C      1  0.5735920000000  0.5406180000000  0.5816540000000 1.0
C      1  0.5365290000000  0.4642250000000  0.4949920000000 1.0
C      1  0.5144450000000  0.6031110000000  0.5500050000000 1.0
C      1  0.4889730000000  0.5950830000000  0.5440750000000 1.0
C      1  0.5678840000000  0.4749250000000  0.4873170000000 1.0
C      1  0.4569840000000  0.5081490000000  0.4024380000000 1.0
C      1  0.4594350000000  0.4115240000000  0.4563200000000 1.0
C      1  0.4693150000000  0.4752690000000  0.5895570000000 1.0
C      1  0.5120290000000  0.5945700000000  0.4317940000000 1.0
C      1  0.4471800000000  0.5607350000000  0.4414580000000 1.0
C      1  0.4862070000000  0.5581080000000  0.4483740000000 1.0
C      1  0.5018540000000  0.5998440000000  0.5043750000000 1.0
C      1  0.5551430000000  0.5626130000000  0.4186730000000 1.0
C      1  0.5449300000000  0.4524320000000  0.5641410000000 1.0
C      1  0.5464280000000  0.4288400000000  0.4480600000000 1.0
C      1  0.4877540000000  0.5914800000000  0.4555340000000 1.0
C      1  0.5184710000000  0.4818710000000  0.6203910000000 1.0
C      1  0.4207770000000  0.5234190000000  0.5133370000000 1.0
C      1  0.4310800000000  0.4935050000000  0.4104560000000 1.0
C      1  0.5038720000000  0.4140390000000  0.5793590000000 1.0
C      1  0.4065180000000  0.5571470000000  0.4850680000000 1.0
C      1  0.5830760000000  0.5495860000000  0.5253690000000 1.0
C      1  0.4955690000000  0.4675900000000  0.4562310000000 1.0
C      1  0.4828030000000  0.4464700000000  0.5537350000000 1.0
C      1  0.4001540000000  0.4762270000000  0.5286400000000 1.0
C      1  0.5348140000000  0.4057760000000  0.5387010000000 1.0
C      1  0.5160130000000  0.5426890000000  0.5673940000000 1.0
C      1  0.4461660000000  0.4488800000000  0.5141170000000 1.0
C      1  0.4358330000000  0.5794110000000  0.5198410000000 1.0
C      1  0.5574500000000  0.5750310000000  0.4764150000000 1.0
C      1  0.4861790000000  0.5109390000000  0.5403460000000 1.0
C      1  0.4250940000000  0.4587220000000  0.5389480000000 1.0
C      1  0.4685450000000  0.5187080000000  0.4551020000000 1.0
C      1  0.5013680000000  0.5021210000000  0.5990860000000 1.0
C      1  0.5116810000000  0.5290550000000  0.6161040000000 1.0
C      1  0.4727650000000  0.5423480000000  0.5917760000000 1.0
C      1  0.5921440000000  0.4869300000000  0.4965150000000 1.0
C      1  0.6001400000000  0.5003740000000  0.4489470000000 1.0
C      1  0.5373260000000  0.5088460000000  0.3976920000000 1.0
C      1  0.4626260000000  0.5353260000000  0.5429900000000 1.0
C      1  0.5888700000000  0.4381610000000  0.5450560000000 1.0
C      1  0.5229160000000  0.4199450000000  0.5110560000000 1.0
C      1  0.5207470000000  0.5425040000000  0.4251660000000 1.0
C      1  0.5053400000000  0.5601890000000  0.4004820000000 1.0
C      1  0.5335880000000  0.4550470000000  0.4055210000000 1.0
C      1  0.3941740000000  0.4495390000000  0.5153740000000 1.0
C      1  0.5178870000000  0.5798830000000  0.5818790000000 1.0
C      1  0.6199180000000  0.5253820000000  0.5001640000000 1.0
C      1  0.5941320000000  0.5306390000000  0.5705620000000 1.0
C      1  0.4798100000000  0.6054990000000  0.4855110000000 1.0
C      1  0.4499320000000  0.5665390000000  0.5476210000000 1.0
C      1  0.5622250000000  0.4606690000000  0.6145200000000 1.0
C      1  0.4028000000000  0.5046500000000  0.5473760000000 1.0
C      1  0.5585620000000  0.4784220000000  0.5491550000000 1.0
C      1  0.4201160000000  0.4262350000000  0.5341410000000 1.0
C      1  0.5715360000000  0.4618890000000  0.5831120000000 1.0
C      1  0.5471130000000  0.4851240000000  0.5868710000000 1.0
C      1  0.4623190000000  0.4060070000000  0.4883510000000 1.0
C      1  0.4443080000000  0.4168870000000  0.5503340000000 1.0
C      1  0.5594240000000  0.4270640000000  0.5487180000000 1.0
C      1  0.5989440000000  0.4834000000000  0.5436550000000 1.0
C      1  0.5087960000000  0.4508370000000  0.5094460000000 1.0
C      1  0.4562990000000  0.4169490000000  0.5199810000000 1.0
C      1  0.4150870000000  0.5390940000000  0.4506790000000 1.0
C      1  0.5486780000000  0.5281670000000  0.4382630000000 1.0
C      1  0.5362160000000  0.5279190000000  0.5272180000000 1.0
C      1  0.5049270000000  0.4901800000000  0.4979300000000 1.0
C      1  0.5102120000000  0.5747820000000  0.4748460000000 1.0
END
