TITL C-2847956-8218-66 -0.000587418823790804 125000 -536.906472510947 0 0 100 (C1) n - 1
REM
REM in /home/bkarasulu/work/CARBON/AIRSS/Generating-Clusters/AIREBO/with-SteepDescent/Only-C1/SD-CG-opt/Try1-1.4A-POS3A/HFTN-CG
REM
REM
REM
REM
REM
REM ./C.cell (11c1c37f851c82e70ff6c80c92926a4b)
REM
REM compiler GCC version 9.2.1 20190827 (Red Hat 9.2.1-1)
REM options -cpp -mtune=generic -march=x86-64 -g -O0 -fpre-include=/usr/include/finclude/math-vector-fortran.h
REM seed 1412881461 -1687379996 96064026 -775254680 -1958948121 1387243284 1127660155 289354206 -447871538 -1654681583 302835556 1459862000 -1567765267 -1940024822 1357542098 -2075809960 1057114449 -1183031906 1746730883 -917628826 -1927977172 714982398 612990806 -154531151 -1866878813 -1409359027 1951652585 1441194855 1042003918 557113455 7961891 158853782 -754971706
REM
CELL 1.54180   50.00000   50.00000   50.00000   90.00000   90.00000   90.00000
LATT -1
SFAC C  
C      1  0.5721780000000  0.4472420000000  0.4883150000000 1.0
C      1  0.4906420000000  0.5305030000000  0.4348880000000 1.0
C      1  0.5433480000000  0.4578560000000  0.6063630000000 1.0
C      1  0.5255210000000  0.5502950000000  0.5195270000000 1.0
C      1  0.4760850000000  0.5451910000000  0.4957710000000 1.0
C      1  0.4941900000000  0.5042260000000  0.5662990000000 1.0
C      1  0.5051800000000  0.5488050000000  0.5418900000000 1.0
C      1  0.5129130000000  0.5395030000000  0.5682440000000 1.0
C      1  0.4748490000000  0.4371880000000  0.5566270000000 1.0
C      1  0.5578910000000  0.4240000000000  0.4966980000000 1.0
C      1  0.5016790000000  0.4233870000000  0.5556300000000 1.0
C      1  0.4854800000000  0.4162420000000  0.4442300000000 1.0
C      1  0.5459780000000  0.5332070000000  0.4343060000000 1.0
C      1  0.4449720000000  0.4549620000000  0.5465520000000 1.0
C      1  0.5302300000000  0.4342210000000  0.3994880000000 1.0
C      1  0.4509490000000  0.4823080000000  0.5659880000000 1.0
C      1  0.4297070000000  0.4420260000000  0.4959930000000 1.0
C      1  0.4751480000000  0.5425780000000  0.5296590000000 1.0
C      1  0.4599970000000  0.5028880000000  0.4574390000000 1.0
C      1  0.4851820000000  0.4138560000000  0.5204560000000 1.0
C      1  0.5576180000000  0.5415710000000  0.4977840000000 1.0
C      1  0.4724710000000  0.5657610000000  0.5621360000000 1.0
C      1  0.4262400000000  0.4876510000000  0.4723310000000 1.0
C      1  0.5060120000000  0.4875110000000  0.4488900000000 1.0
C      1  0.4969300000000  0.4762430000000  0.5860560000000 1.0
C      1  0.4940730000000  0.4777960000000  0.5363610000000 1.0
C      1  0.5521280000000  0.4694590000000  0.4527080000000 1.0
C      1  0.4869670000000  0.5109460000000  0.5337420000000 1.0
C      1  0.4510690000000  0.5520800000000  0.4479150000000 1.0
C      1  0.4216740000000  0.5625590000000  0.4944190000000 1.0
C      1  0.4254570000000  0.4454780000000  0.5203740000000 1.0
C      1  0.5914160000000  0.5154830000000  0.4971680000000 1.0
C      1  0.5267640000000  0.4870370000000  0.5349730000000 1.0
C      1  0.5297180000000  0.4263540000000  0.4958450000000 1.0
C      1  0.5411920000000  0.5866300000000  0.4863490000000 1.0
C      1  0.5482930000000  0.4906630000000  0.4784010000000 1.0
C      1  0.4405310000000  0.5216220000000  0.4436780000000 1.0
C      1  0.4527550000000  0.5665890000000  0.4699350000000 1.0
C      1  0.5239110000000  0.5133490000000  0.4731050000000 1.0
C      1  0.4605720000000  0.5354850000000  0.4198020000000 1.0
C      1  0.4501860000000  0.5352260000000  0.5495970000000 1.0
C      1  0.4632450000000  0.4345350000000  0.5264230000000 1.0
C      1  0.5180220000000  0.5171510000000  0.5213670000000 1.0
C      1  0.4982310000000  0.5905920000000  0.5188720000000 1.0
C      1  0.5267860000000  0.4947100000000  0.5680980000000 1.0
C      1  0.4630080000000  0.4934870000000  0.5170820000000 1.0
C      1  0.5013800000000  0.5876180000000  0.4890620000000 1.0
C      1  0.5645580000000  0.5472920000000  0.5284210000000 1.0
C      1  0.5702340000000  0.5161320000000  0.4746310000000 1.0
C      1  0.5263100000000  0.4723530000000  0.5916830000000 1.0
C      1  0.4608450000000  0.4156840000000  0.4500330000000 1.0
C      1  0.5254630000000  0.5403280000000  0.4881480000000 1.0
C      1  0.4944620000000  0.4505060000000  0.5079730000000 1.0
C      1  0.4527490000000  0.5677370000000  0.5039650000000 1.0
C      1  0.4239890000000  0.5397210000000  0.5500370000000 1.0
C      1  0.4690540000000  0.4788340000000  0.4363050000000 1.0
C      1  0.4752920000000  0.5037220000000  0.4206190000000 1.0
C      1  0.5622910000000  0.5221070000000  0.5515140000000 1.0
C      1  0.4493280000000  0.4390990000000  0.4683740000000 1.0
C      1  0.5035210000000  0.4421520000000  0.4504020000000 1.0
C      1  0.4398490000000  0.5076870000000  0.5039620000000 1.0
C      1  0.5189100000000  0.4443550000000  0.4769780000000 1.0
C      1  0.4997610000000  0.5583360000000  0.4808090000000 1.0
C      1  0.5250280000000  0.4637510000000  0.4385170000000 1.0
C      1  0.5302490000000  0.4815230000000  0.3921490000000 1.0
C      1  0.4724770000000  0.4538310000000  0.4482010000000 1.0
C      1  0.5277510000000  0.4599410000000  0.4088890000000 1.0
C      1  0.4640360000000  0.4635290000000  0.5086720000000 1.0
C      1  0.5703940000000  0.4016580000000  0.5050610000000 1.0
C      1  0.4951810000000  0.5600780000000  0.4493030000000 1.0
C      1  0.4079030000000  0.5402290000000  0.4861920000000 1.0
C      1  0.5309860000000  0.5820150000000  0.5152980000000 1.0
C      1  0.5212650000000  0.5163730000000  0.4393430000000 1.0
C      1  0.4986180000000  0.4826010000000  0.5029910000000 1.0
C      1  0.4730790000000  0.5765230000000  0.5298880000000 1.0
C      1  0.4193610000000  0.5153240000000  0.4795880000000 1.0
C      1  0.5215860000000  0.4713930000000  0.4848750000000 1.0
C      1  0.4043250000000  0.5262330000000  0.5364980000000 1.0
C      1  0.4107160000000  0.5073180000000  0.5177330000000 1.0
C      1  0.5362060000000  0.5235930000000  0.5687510000000 1.0
C      1  0.4664040000000  0.5176250000000  0.4858510000000 1.0
C      1  0.4828040000000  0.4833510000000  0.4733970000000 1.0
C      1  0.4519480000000  0.4699700000000  0.4784510000000 1.0
C      1  0.4818690000000  0.5417730000000  0.5734510000000 1.0
C      1  0.5548070000000  0.5650780000000  0.4754950000000 1.0
C      1  0.5656370000000  0.4758100000000  0.5036800000000 1.0
C      1  0.5788020000000  0.5181800000000  0.5220520000000 1.0
C      1  0.5601180000000  0.4931560000000  0.5324910000000 1.0
C      1  0.5593100000000  0.5401260000000  0.4581710000000 1.0
C      1  0.4636650000000  0.5136070000000  0.5676430000000 1.0
C      1  0.5210130000000  0.6044390000000  0.4731500000000 1.0
C      1  0.4800280000000  0.4673100000000  0.5607870000000 1.0
C      1  0.4933220000000  0.5212940000000  0.4673280000000 1.0
C      1  0.5547500000000  0.5730480000000  0.5350520000000 1.0
C      1  0.5140530000000  0.4099270000000  0.5740680000000 1.0
C      1  0.5725140000000  0.4524420000000  0.4600790000000 1.0
C      1  0.5348660000000  0.4540200000000  0.5358830000000 1.0
C      1  0.5145160000000  0.4304890000000  0.5249510000000 1.0
C      1  0.5611160000000  0.4525760000000  0.5263720000000 1.0
C      1  0.5539120000000  0.5397490000000  0.4090040000000 1.0
END
