TITL C-2848508-1660-462 0.00161165360537632 125000 -475.46287053724 0 0 85 (C1) n - 1
REM
REM in /home/bkarasulu/work/CARBON/AIRSS/Generating-Clusters/AIREBO/with-SteepDescent/Only-C1/SD-CG-opt/Try1-1.4A-POS3A/HFTN-CG
REM
REM
REM
REM
REM
REM ./C.cell (11c1c37f851c82e70ff6c80c92926a4b)
REM
REM compiler GCC version 9.2.1 20190827 (Red Hat 9.2.1-1)
REM options -cpp -mtune=generic -march=x86-64 -g -O0 -fpre-include=/usr/include/finclude/math-vector-fortran.h
REM seed -835385346 -1870404823 1385664326 -1680085613 122759325 -1793434547 -1725900128 248398111 -276043830 1201597382 -1339585594 1730084089 309640665 1998942856 1976735920 -1278611404 -492124450 388465039 556838462 -1856383543 943122806 -604440855 1768322567 -1380206861 1662444607 414305201 -1498906501 364534640 736690046 1208562120 -173629929 -991528547 901784866
REM
CELL 1.54180   50.00000   50.00000   50.00000   90.00000   90.00000   90.00000
LATT -1
SFAC C  
C      1  0.5473780000000  0.5659660000000  0.5002300000000 1.0
C      1  0.4987940000000  0.5699450000000  0.4432130000000 1.0
C      1  0.4912770000000  0.4326580000000  0.4160710000000 1.0
C      1  0.4764320000000  0.5132740000000  0.4822330000000 1.0
C      1  0.4647120000000  0.5365440000000  0.5305420000000 1.0
C      1  0.4393360000000  0.4473710000000  0.5206250000000 1.0
C      1  0.4811030000000  0.5840570000000  0.4606630000000 1.0
C      1  0.4334220000000  0.4812710000000  0.4802780000000 1.0
C      1  0.4621030000000  0.5416770000000  0.5701090000000 1.0
C      1  0.4543480000000  0.5363550000000  0.4581650000000 1.0
C      1  0.4471870000000  0.5712320000000  0.5002830000000 1.0
C      1  0.4795500000000  0.5381590000000  0.4133040000000 1.0
C      1  0.5394380000000  0.5496650000000  0.5618970000000 1.0
C      1  0.5022070000000  0.4409930000000  0.5591200000000 1.0
C      1  0.5997160000000  0.5010070000000  0.5206190000000 1.0
C      1  0.4785650000000  0.4794770000000  0.5225830000000 1.0
C      1  0.4798920000000  0.4256180000000  0.4445670000000 1.0
C      1  0.4237180000000  0.5309910000000  0.4485440000000 1.0
C      1  0.4434930000000  0.5152460000000  0.5299820000000 1.0
C      1  0.5135490000000  0.5287260000000  0.5708880000000 1.0
C      1  0.4852120000000  0.5270500000000  0.5537520000000 1.0
C      1  0.5438210000000  0.5184170000000  0.5622480000000 1.0
C      1  0.4348390000000  0.5143820000000  0.4760360000000 1.0
C      1  0.5445590000000  0.4849420000000  0.5294320000000 1.0
C      1  0.4872120000000  0.5601280000000  0.4926440000000 1.0
C      1  0.4275270000000  0.5160970000000  0.5075710000000 1.0
C      1  0.5515840000000  0.4544280000000  0.5584020000000 1.0
C      1  0.4941650000000  0.5617820000000  0.4171140000000 1.0
C      1  0.4389280000000  0.4769660000000  0.5194890000000 1.0
C      1  0.5036310000000  0.4482070000000  0.4437570000000 1.0
C      1  0.4106940000000  0.4690230000000  0.4624520000000 1.0
C      1  0.5266540000000  0.4476470000000  0.4652330000000 1.0
C      1  0.4770350000000  0.5237950000000  0.4391400000000 1.0
C      1  0.5121070000000  0.4172830000000  0.5211510000000 1.0
C      1  0.5415450000000  0.4934810000000  0.4504340000000 1.0
C      1  0.5222460000000  0.4586810000000  0.5714060000000 1.0
C      1  0.5148430000000  0.4383170000000  0.4957200000000 1.0
C      1  0.5297660000000  0.4370570000000  0.5389370000000 1.0
C      1  0.5953420000000  0.4765790000000  0.5081220000000 1.0
C      1  0.5586380000000  0.5474450000000  0.4801360000000 1.0
C      1  0.4745390000000  0.4471480000000  0.5576010000000 1.0
C      1  0.5423700000000  0.5448800000000  0.4570830000000 1.0
C      1  0.5489330000000  0.5146590000000  0.5170070000000 1.0
C      1  0.4446160000000  0.5555840000000  0.5824590000000 1.0
C      1  0.5160030000000  0.4921520000000  0.5186270000000 1.0
C      1  0.5357910000000  0.5096510000000  0.4886080000000 1.0
C      1  0.4683970000000  0.4111480000000  0.4895220000000 1.0
C      1  0.4641010000000  0.4726030000000  0.5679380000000 1.0
C      1  0.5114010000000  0.5109740000000  0.4386730000000 1.0
C      1  0.5293770000000  0.5406710000000  0.5246640000000 1.0
C      1  0.5701200000000  0.4720130000000  0.4974530000000 1.0
C      1  0.5728930000000  0.5242850000000  0.4865600000000 1.0
C      1  0.5489000000000  0.4558230000000  0.5185700000000 1.0
C      1  0.5807730000000  0.5209790000000  0.5150110000000 1.0
C      1  0.5144360000000  0.5539390000000  0.4644930000000 1.0
C      1  0.4610580000000  0.5629610000000  0.4725430000000 1.0
C      1  0.4965780000000  0.4979800000000  0.5447110000000 1.0
C      1  0.5399800000000  0.5233430000000  0.4397150000000 1.0
C      1  0.5495490000000  0.5620450000000  0.5339410000000 1.0
C      1  0.4602110000000  0.4926690000000  0.4978640000000 1.0
C      1  0.4727810000000  0.4894030000000  0.5897350000000 1.0
C      1  0.4663500000000  0.4587590000000  0.4776510000000 1.0
C      1  0.5480070000000  0.4416840000000  0.4889650000000 1.0
C      1  0.5397260000000  0.4653450000000  0.4427210000000 1.0
C      1  0.4871830000000  0.4978960000000  0.4541420000000 1.0
C      1  0.5089340000000  0.4905660000000  0.4865330000000 1.0
C      1  0.4963160000000  0.5968650000000  0.4804100000000 1.0
C      1  0.4549860000000  0.4894430000000  0.5445410000000 1.0
C      1  0.4615820000000  0.4360590000000  0.5345250000000 1.0
C      1  0.4521110000000  0.5640980000000  0.5238380000000 1.0
C      1  0.4658380000000  0.4276890000000  0.4678050000000 1.0
C      1  0.5097500000000  0.5223260000000  0.5161220000000 1.0
C      1  0.4385980000000  0.4493240000000  0.4907280000000 1.0
C      1  0.5610960000000  0.4943810000000  0.4767250000000 1.0
C      1  0.5151780000000  0.4888770000000  0.5686470000000 1.0
C      1  0.5504800000000  0.4547570000000  0.4213180000000 1.0
C      1  0.4819460000000  0.4251750000000  0.5139930000000 1.0
C      1  0.4843790000000  0.5334900000000  0.5066680000000 1.0
C      1  0.5082710000000  0.5236500000000  0.4762760000000 1.0
C      1  0.5181940000000  0.5741310000000  0.4913870000000 1.0
C      1  0.5472330000000  0.4879500000000  0.5616750000000 1.0
C      1  0.4683730000000  0.5296030000000  0.3904450000000 1.0
C      1  0.4873730000000  0.4567990000000  0.5026710000000 1.0
C      1  0.4954220000000  0.5046350000000  0.5870820000000 1.0
C      1  0.4933030000000  0.4696470000000  0.4652610000000 1.0
END
