TITL C-2847956-8218-89 0.00148903770075822 125000 -819.700607310421 0 0 152 (C1) n - 1
REM
REM in /home/bkarasulu/work/CARBON/AIRSS/Generating-Clusters/AIREBO/with-SteepDescent/Only-C1/SD-CG-opt/Try1-1.4A-POS3A/HFTN-CG
REM
REM
REM
REM
REM
REM ./C.cell (11c1c37f851c82e70ff6c80c92926a4b)
REM
REM compiler GCC version 9.2.1 20190827 (Red Hat 9.2.1-1)
REM options -cpp -mtune=generic -march=x86-64 -g -O0 -fpre-include=/usr/include/finclude/math-vector-fortran.h
REM seed -1208190672 1548529658 -11560058 622361306 1929995362 1530721639 1275474383 1551378491 -866107938 433156157 -891606822 -965018717 500252113 135518765 -98319353 -1812094015 1411354744 198204136 -1151976030 -923091896 -734958791 -627810045 -754414863 1144093662 -2125025626 707997341 -1185339876 -2093248131 -797213225 -731370188 -1236899572 -153357670 -2037314597
REM
CELL 1.54180   50.00000   50.00000   50.00000   90.00000   90.00000   90.00000
LATT -1
SFAC C  
C      1  0.5350790000000  0.4427130000000  0.5573980000000 1.0
C      1  0.4882030000000  0.6017450000000  0.4779950000000 1.0
C      1  0.4881610000000  0.5075060000000  0.4556490000000 1.0
C      1  0.5606030000000  0.5310940000000  0.4944500000000 1.0
C      1  0.4599800000000  0.5436250000000  0.4324910000000 1.0
C      1  0.5873690000000  0.4933990000000  0.5315780000000 1.0
C      1  0.4635160000000  0.5090410000000  0.5194480000000 1.0
C      1  0.5657150000000  0.4643960000000  0.4255160000000 1.0
C      1  0.4926990000000  0.4855060000000  0.5561590000000 1.0
C      1  0.4550950000000  0.4665320000000  0.6000980000000 1.0
C      1  0.5177770000000  0.5365760000000  0.5901170000000 1.0
C      1  0.4592380000000  0.5933360000000  0.4890530000000 1.0
C      1  0.5631240000000  0.5627760000000  0.4823430000000 1.0
C      1  0.5221890000000  0.5373660000000  0.4724220000000 1.0
C      1  0.5426380000000  0.4974040000000  0.5447300000000 1.0
C      1  0.4453780000000  0.4684870000000  0.5707500000000 1.0
C      1  0.5369420000000  0.5154360000000  0.5918690000000 1.0
C      1  0.5521150000000  0.4280450000000  0.4344810000000 1.0
C      1  0.5551810000000  0.4701360000000  0.5571470000000 1.0
C      1  0.5247990000000  0.3918590000000  0.4933250000000 1.0
C      1  0.5345230000000  0.4766980000000  0.5116250000000 1.0
C      1  0.5911810000000  0.4885890000000  0.4981340000000 1.0
C      1  0.4299070000000  0.4926830000000  0.5626320000000 1.0
C      1  0.4397890000000  0.4948050000000  0.4890320000000 1.0
C      1  0.4417700000000  0.5639230000000  0.4863820000000 1.0
C      1  0.5442630000000  0.5869790000000  0.4970090000000 1.0
C      1  0.4452080000000  0.4806850000000  0.5153060000000 1.0
C      1  0.4807630000000  0.4772890000000  0.4574000000000 1.0
C      1  0.5120240000000  0.4897730000000  0.5335130000000 1.0
C      1  0.5643540000000  0.5815980000000  0.5495410000000 1.0
C      1  0.4935290000000  0.4418750000000  0.5888800000000 1.0
C      1  0.4936210000000  0.4959650000000  0.5078910000000 1.0
C      1  0.5339950000000  0.4157730000000  0.4522970000000 1.0
C      1  0.5903300000000  0.5587260000000  0.4649670000000 1.0
C      1  0.4776750000000  0.5614170000000  0.5874600000000 1.0
C      1  0.5961200000000  0.4418110000000  0.4921230000000 1.0
C      1  0.4820810000000  0.5702020000000  0.5122860000000 1.0
C      1  0.5698640000000  0.4326960000000  0.5302410000000 1.0
C      1  0.5120110000000  0.5054380000000  0.4016760000000 1.0
C      1  0.5793370000000  0.4423440000000  0.4424590000000 1.0
C      1  0.4667490000000  0.4588820000000  0.5218510000000 1.0
C      1  0.6009720000000  0.4619310000000  0.5113160000000 1.0
C      1  0.4762720000000  0.4350300000000  0.5635750000000 1.0
C      1  0.5792180000000  0.4229510000000  0.5031880000000 1.0
C      1  0.5292790000000  0.4166540000000  0.5129740000000 1.0
C      1  0.4280730000000  0.4559010000000  0.5311200000000 1.0
C      1  0.4669530000000  0.3941140000000  0.4847940000000 1.0
C      1  0.4966390000000  0.4889180000000  0.5907600000000 1.0
C      1  0.4217240000000  0.5328140000000  0.5222340000000 1.0
C      1  0.4538760000000  0.5832510000000  0.5209780000000 1.0
C      1  0.4815670000000  0.5139520000000  0.3995590000000 1.0
C      1  0.4285350000000  0.4280360000000  0.4541000000000 1.0
C      1  0.5182970000000  0.5551070000000  0.4155390000000 1.0
C      1  0.5026170000000  0.5580710000000  0.6009690000000 1.0
C      1  0.4025990000000  0.4712870000000  0.5146710000000 1.0
C      1  0.4310370000000  0.5002020000000  0.4018460000000 1.0
C      1  0.5485190000000  0.5418290000000  0.4238050000000 1.0
C      1  0.4527840000000  0.5148670000000  0.5507480000000 1.0
C      1  0.3909820000000  0.4976390000000  0.4965860000000 1.0
C      1  0.4189890000000  0.4561810000000  0.4890820000000 1.0
C      1  0.5426640000000  0.4614080000000  0.4822950000000 1.0
C      1  0.5558350000000  0.5584540000000  0.5604160000000 1.0
C      1  0.4376170000000  0.4593970000000  0.4312190000000 1.0
C      1  0.4348990000000  0.4225940000000  0.5286130000000 1.0
C      1  0.4472010000000  0.4446860000000  0.4979020000000 1.0
C      1  0.5392790000000  0.4680610000000  0.5873880000000 1.0
C      1  0.5159480000000  0.4571630000000  0.4320840000000 1.0
C      1  0.5868100000000  0.4525640000000  0.4674920000000 1.0
C      1  0.5528230000000  0.4095670000000  0.5450170000000 1.0
C      1  0.4171190000000  0.5200820000000  0.4910360000000 1.0
C      1  0.4860400000000  0.4043580000000  0.4678470000000 1.0
C      1  0.4233370000000  0.5615090000000  0.4579120000000 1.0
C      1  0.4429560000000  0.4384450000000  0.5562350000000 1.0
C      1  0.5026690000000  0.5306240000000  0.5620040000000 1.0
C      1  0.5946890000000  0.5632750000000  0.5107110000000 1.0
C      1  0.5464830000000  0.5004420000000  0.4900650000000 1.0
C      1  0.5905160000000  0.5191290000000  0.5053220000000 1.0
C      1  0.5135610000000  0.3984470000000  0.4677790000000 1.0
C      1  0.5370200000000  0.4955420000000  0.4463150000000 1.0
C      1  0.4823810000000  0.4646280000000  0.6014930000000 1.0
C      1  0.5656360000000  0.5799690000000  0.5182520000000 1.0
C      1  0.5227460000000  0.5112290000000  0.4261190000000 1.0
C      1  0.3998530000000  0.5482160000000  0.4828590000000 1.0
C      1  0.5594890000000  0.4136120000000  0.4870540000000 1.0
C      1  0.4659950000000  0.5294620000000  0.4649720000000 1.0
C      1  0.5692380000000  0.4809410000000  0.4739850000000 1.0
C      1  0.4827980000000  0.5708600000000  0.4662310000000 1.0
C      1  0.4871810000000  0.4611230000000  0.4324440000000 1.0
C      1  0.4892920000000  0.5244790000000  0.5353750000000 1.0
C      1  0.5470320000000  0.5744030000000  0.4342340000000 1.0
C      1  0.5408880000000  0.5302300000000  0.5359490000000 1.0
C      1  0.5149510000000  0.5748670000000  0.4430230000000 1.0
C      1  0.5127890000000  0.5696870000000  0.4772350000000 1.0
C      1  0.4626520000000  0.4640240000000  0.4086750000000 1.0
C      1  0.4792630000000  0.4334880000000  0.4601570000000 1.0
C      1  0.4116480000000  0.4850260000000  0.4726380000000 1.0
C      1  0.4102040000000  0.5747470000000  0.4929150000000 1.0
C      1  0.4638780000000  0.4376950000000  0.4301580000000 1.0
C      1  0.5257180000000  0.4904600000000  0.5967940000000 1.0
C      1  0.4139090000000  0.4563500000000  0.4544880000000 1.0
C      1  0.4994390000000  0.5960680000000  0.5388010000000 1.0
C      1  0.5261430000000  0.5516190000000  0.5541970000000 1.0
C      1  0.5119100000000  0.5354480000000  0.4405770000000 1.0
C      1  0.4341190000000  0.5317150000000  0.4639840000000 1.0
C      1  0.4506950000000  0.4465370000000  0.4667410000000 1.0
C      1  0.5269190000000  0.4687110000000  0.4560470000000 1.0
C      1  0.5904810000000  0.5257820000000  0.5389710000000 1.0
C      1  0.5386750000000  0.4495900000000  0.4168000000000 1.0
C      1  0.4782620000000  0.5756900000000  0.5608910000000 1.0
C      1  0.5723890000000  0.5235390000000  0.4360520000000 1.0
C      1  0.4193130000000  0.5072100000000  0.4503830000000 1.0
C      1  0.5000070000000  0.4767320000000  0.4841690000000 1.0
C      1  0.5201090000000  0.4179700000000  0.5427910000000 1.0
C      1  0.5173500000000  0.5037000000000  0.4728220000000 1.0
C      1  0.4826850000000  0.4327910000000  0.5117070000000 1.0
C      1  0.5289980000000  0.5352400000000  0.5056720000000 1.0
C      1  0.5675420000000  0.4931260000000  0.4418560000000 1.0
C      1  0.4593890000000  0.4911880000000  0.3963800000000 1.0
C      1  0.4860120000000  0.5574000000000  0.4387170000000 1.0
C      1  0.4777980000000  0.5472560000000  0.4901900000000 1.0
C      1  0.4004050000000  0.5095410000000  0.5256750000000 1.0
C      1  0.4499880000000  0.5372790000000  0.5058690000000 1.0
C      1  0.4988670000000  0.4427550000000  0.4848610000000 1.0
C      1  0.5214860000000  0.4429670000000  0.5864170000000 1.0
C      1  0.5681710000000  0.5465160000000  0.5238460000000 1.0
C      1  0.4988160000000  0.5280890000000  0.5039860000000 1.0
C      1  0.4783020000000  0.5113410000000  0.5729440000000 1.0
C      1  0.5404100000000  0.4468640000000  0.5240750000000 1.0
C      1  0.5707500000000  0.5350500000000  0.5620670000000 1.0
C      1  0.4371100000000  0.5450070000000  0.5491820000000 1.0
C      1  0.4328700000000  0.5241460000000  0.5767110000000 1.0
C      1  0.5197460000000  0.6083300000000  0.4849300000000 1.0
C      1  0.4724110000000  0.4645610000000  0.5507900000000 1.0
C      1  0.4430580000000  0.4929220000000  0.4328190000000 1.0
C      1  0.5308560000000  0.4313620000000  0.4823590000000 1.0
C      1  0.5500220000000  0.5492770000000  0.4569480000000 1.0
C      1  0.4681090000000  0.5132090000000  0.4287900000000 1.0
C      1  0.4511220000000  0.5717780000000  0.5479850000000 1.0
C      1  0.5545620000000  0.5143260000000  0.5699630000000 1.0
C      1  0.4284920000000  0.5965380000000  0.5040510000000 1.0
C      1  0.5121350000000  0.5844230000000  0.5078910000000 1.0
C      1  0.4623750000000  0.5379590000000  0.5868700000000 1.0
C      1  0.4560370000000  0.4136960000000  0.5064870000000 1.0
C      1  0.5007230000000  0.5636170000000  0.5399590000000 1.0
C      1  0.4914860000000  0.4223890000000  0.5403630000000 1.0
C      1  0.5843870000000  0.4611500000000  0.5419450000000 1.0
C      1  0.4074940000000  0.4875140000000  0.5441860000000 1.0
C      1  0.4366670000000  0.5595510000000  0.4316520000000 1.0
C      1  0.4992540000000  0.5427970000000  0.3958530000000 1.0
C      1  0.5924050000000  0.5382060000000  0.4468660000000 1.0
C      1  0.6043030000000  0.4549880000000  0.5623980000000 1.0
C      1  0.4501120000000  0.4794360000000  0.4632470000000 1.0
END
