TITL C-2847954-6904-373 0.00024369390009035 125000 -1045.71714248429 0 0 193 (C1) n - 1
REM
REM in /home/bkarasulu/work/CARBON/AIRSS/Generating-Clusters/AIREBO/with-SteepDescent/Only-C1/SD-CG-opt/Try1-1.4A-POS3A/HFTN-CG
REM
REM
REM
REM
REM
REM ./C.cell (11c1c37f851c82e70ff6c80c92926a4b)
REM
REM compiler GCC version 9.2.1 20190827 (Red Hat 9.2.1-1)
REM options -cpp -mtune=generic -march=x86-64 -g -O0 -fpre-include=/usr/include/finclude/math-vector-fortran.h
REM seed -2117832563 1742740234 1883109732 -32250325 967743728 98670453 1844023114 806417852 257557944 1176275530 1008824218 -252129153 1379332088 1565485092 -891253896 -1984778121 1277031391 -316158012 1201739750 -843494069 417098691 -1143466909 252818198 1087786562 1726418485 1687343642 686528437 -684760895 1130302337 1932402760 376606579 -1956689414 -124499923
REM
CELL 1.54180   50.00000   50.00000   50.00000   90.00000   90.00000   90.00000
LATT -1
SFAC C  
C      1  0.4507200000000  0.6028070000000  0.5309610000000 1.0
C      1  0.3913680000000  0.5124450000000  0.5223530000000 1.0
C      1  0.5313450000000  0.5059690000000  0.6075070000000 1.0
C      1  0.5292830000000  0.4018630000000  0.4795100000000 1.0
C      1  0.4734290000000  0.3963450000000  0.4780810000000 1.0
C      1  0.4128900000000  0.5545020000000  0.5293120000000 1.0
C      1  0.4957710000000  0.5550990000000  0.5518660000000 1.0
C      1  0.5061190000000  0.4942300000000  0.5577760000000 1.0
C      1  0.4771890000000  0.6117910000000  0.5269230000000 1.0
C      1  0.4436080000000  0.4428750000000  0.4388440000000 1.0
C      1  0.5698230000000  0.4844630000000  0.4002980000000 1.0
C      1  0.5240040000000  0.4427290000000  0.5963920000000 1.0
C      1  0.5577810000000  0.4306390000000  0.4621860000000 1.0
C      1  0.5605750000000  0.3942060000000  0.5030410000000 1.0
C      1  0.4669860000000  0.4359810000000  0.5559210000000 1.0
C      1  0.4664320000000  0.4803230000000  0.5319440000000 1.0
C      1  0.5016160000000  0.3855770000000  0.4907140000000 1.0
C      1  0.6035420000000  0.4664280000000  0.5270900000000 1.0
C      1  0.4675270000000  0.4045120000000  0.5316200000000 1.0
C      1  0.5047120000000  0.5953860000000  0.4221810000000 1.0
C      1  0.4897920000000  0.4215670000000  0.4187030000000 1.0
C      1  0.3960070000000  0.5395660000000  0.5123970000000 1.0
C      1  0.5208650000000  0.4433320000000  0.5423020000000 1.0
C      1  0.4575700000000  0.5087940000000  0.5417410000000 1.0
C      1  0.4539070000000  0.4657180000000  0.6030620000000 1.0
C      1  0.4369710000000  0.5652510000000  0.5154730000000 1.0
C      1  0.3972950000000  0.4735350000000  0.4791040000000 1.0
C      1  0.5278260000000  0.3911180000000  0.5117350000000 1.0
C      1  0.4902690000000  0.5167070000000  0.3876510000000 1.0
C      1  0.5013390000000  0.4725910000000  0.5835910000000 1.0
C      1  0.5336380000000  0.5225770000000  0.4079140000000 1.0
C      1  0.4530110000000  0.4464740000000  0.4713030000000 1.0
C      1  0.4974170000000  0.5671100000000  0.5913870000000 1.0
C      1  0.4140150000000  0.5208560000000  0.4644920000000 1.0
C      1  0.5502930000000  0.4999250000000  0.3878620000000 1.0
C      1  0.5436840000000  0.4027180000000  0.4495860000000 1.0
C      1  0.5664740000000  0.5452910000000  0.4351980000000 1.0
C      1  0.5440500000000  0.4276660000000  0.5747200000000 1.0
C      1  0.6037420000000  0.5241180000000  0.5358790000000 1.0
C      1  0.4977900000000  0.5655250000000  0.5229340000000 1.0
C      1  0.4328520000000  0.4996200000000  0.5118380000000 1.0
C      1  0.5766950000000  0.5924220000000  0.4782000000000 1.0
C      1  0.4791670000000  0.5882870000000  0.5723630000000 1.0
C      1  0.4970350000000  0.5954320000000  0.5093000000000 1.0
C      1  0.5809840000000  0.4338540000000  0.4789920000000 1.0
C      1  0.4771940000000  0.4806820000000  0.6025940000000 1.0
C      1  0.4480660000000  0.5488100000000  0.4895530000000 1.0
C      1  0.5202290000000  0.5437060000000  0.6009180000000 1.0
C      1  0.4424180000000  0.5664310000000  0.4609910000000 1.0
C      1  0.5199690000000  0.5144240000000  0.5071900000000 1.0
C      1  0.5278660000000  0.5334430000000  0.4556770000000 1.0
C      1  0.4087250000000  0.4691670000000  0.5585680000000 1.0
C      1  0.5690570000000  0.5282730000000  0.4892070000000 1.0
C      1  0.4915200000000  0.4714380000000  0.4094910000000 1.0
C      1  0.4646640000000  0.5598400000000  0.5647630000000 1.0
C      1  0.5236010000000  0.6014660000000  0.4679530000000 1.0
C      1  0.4672370000000  0.5260170000000  0.4188670000000 1.0
C      1  0.5655300000000  0.4943700000000  0.4920010000000 1.0
C      1  0.5839730000000  0.4578940000000  0.5664500000000 1.0
C      1  0.5037450000000  0.4414590000000  0.5699650000000 1.0
C      1  0.6132680000000  0.5338690000000  0.4984240000000 1.0
C      1  0.5111790000000  0.4974610000000  0.4789490000000 1.0
C      1  0.5413060000000  0.5612820000000  0.4430870000000 1.0
C      1  0.4271610000000  0.5124520000000  0.5401630000000 1.0
C      1  0.4573190000000  0.4187220000000  0.4271030000000 1.0
C      1  0.4722310000000  0.4912850000000  0.3937440000000 1.0
C      1  0.6185960000000  0.5014980000000  0.4897190000000 1.0
C      1  0.5384920000000  0.4841630000000  0.5611960000000 1.0
C      1  0.5276830000000  0.5296590000000  0.6288330000000 1.0
C      1  0.4659330000000  0.4359520000000  0.3992010000000 1.0
C      1  0.4815730000000  0.4174630000000  0.5034640000000 1.0
C      1  0.4493120000000  0.5960360000000  0.5579640000000 1.0
C      1  0.4816350000000  0.4893600000000  0.4776690000000 1.0
C      1  0.4407700000000  0.5208040000000  0.5874240000000 1.0
C      1  0.4955540000000  0.5105690000000  0.5298630000000 1.0
C      1  0.4271780000000  0.4596730000000  0.4847030000000 1.0
C      1  0.4180370000000  0.4712390000000  0.5124360000000 1.0
C      1  0.4392600000000  0.5442370000000  0.5724270000000 1.0
C      1  0.4473840000000  0.4915240000000  0.4524850000000 1.0
C      1  0.5628050000000  0.5058390000000  0.5514290000000 1.0
C      1  0.5927680000000  0.4587480000000  0.4758910000000 1.0
C      1  0.4178490000000  0.4975670000000  0.4187670000000 1.0
C      1  0.4595910000000  0.5577890000000  0.4094760000000 1.0
C      1  0.4971550000000  0.4674540000000  0.5388040000000 1.0
C      1  0.5221580000000  0.5481930000000  0.5106860000000 1.0
C      1  0.5561350000000  0.5583750000000  0.4800840000000 1.0
C      1  0.4231820000000  0.5002940000000  0.5780000000000 1.0
C      1  0.6078690000000  0.5001280000000  0.4590820000000 1.0
C      1  0.5654990000000  0.4839590000000  0.4340210000000 1.0
C      1  0.5864060000000  0.4486480000000  0.5405240000000 1.0
C      1  0.4760650000000  0.5427600000000  0.3837310000000 1.0
C      1  0.3996550000000  0.5012250000000  0.5533950000000 1.0
C      1  0.5188180000000  0.3990570000000  0.5420220000000 1.0
C      1  0.4463720000000  0.4161120000000  0.4822510000000 1.0
C      1  0.4609890000000  0.5115850000000  0.4710250000000 1.0
C      1  0.5359890000000  0.5189950000000  0.5368440000000 1.0
C      1  0.5136070000000  0.4415300000000  0.4240170000000 1.0
C      1  0.5523570000000  0.4699690000000  0.5380990000000 1.0
C      1  0.5033370000000  0.4485380000000  0.3929860000000 1.0
C      1  0.4482480000000  0.4996520000000  0.4137160000000 1.0
C      1  0.4974550000000  0.4276010000000  0.4750500000000 1.0
C      1  0.4814730000000  0.4112000000000  0.4498590000000 1.0
C      1  0.5242770000000  0.5625400000000  0.4824190000000 1.0
C      1  0.5346640000000  0.5644670000000  0.5378460000000 1.0
C      1  0.5973270000000  0.5290150000000  0.4703130000000 1.0
C      1  0.5875080000000  0.4969690000000  0.5297570000000 1.0
C      1  0.4175890000000  0.5729230000000  0.4814630000000 1.0
C      1  0.4415560000000  0.4148380000000  0.5121240000000 1.0
C      1  0.4012030000000  0.5149010000000  0.4335600000000 1.0
C      1  0.4680920000000  0.4782290000000  0.4311370000000 1.0
C      1  0.4722350000000  0.5138120000000  0.5967390000000 1.0
C      1  0.5011300000000  0.5232230000000  0.4192200000000 1.0
C      1  0.4805970000000  0.5454630000000  0.6059520000000 1.0
C      1  0.3753670000000  0.5221150000000  0.4282000000000 1.0
C      1  0.5045010000000  0.4570220000000  0.5011230000000 1.0
C      1  0.4530220000000  0.4634270000000  0.3971990000000 1.0
C      1  0.5633180000000  0.5333900000000  0.5226260000000 1.0
C      1  0.5046920000000  0.4511460000000  0.4524290000000 1.0
C      1  0.5913890000000  0.5474580000000  0.4462850000000 1.0
C      1  0.5411400000000  0.4610960000000  0.4276830000000 1.0
C      1  0.4583100000000  0.5772560000000  0.4343780000000 1.0
C      1  0.5182380000000  0.6116590000000  0.4933180000000 1.0
C      1  0.5753160000000  0.4178650000000  0.5017800000000 1.0
C      1  0.5349300000000  0.4458630000000  0.5114460000000 1.0
C      1  0.4970680000000  0.5513920000000  0.4378290000000 1.0
C      1  0.5534060000000  0.5167530000000  0.4613060000000 1.0
C      1  0.4020030000000  0.5461210000000  0.4842950000000 1.0
C      1  0.5648990000000  0.4349250000000  0.5236050000000 1.0
C      1  0.4279340000000  0.4656200000000  0.4185030000000 1.0
C      1  0.5121450000000  0.5051470000000  0.4458380000000 1.0
C      1  0.4774770000000  0.4658780000000  0.4578390000000 1.0
C      1  0.6435960000000  0.5225610000000  0.4993940000000 1.0
C      1  0.5481150000000  0.4771730000000  0.5093070000000 1.0
C      1  0.5007130000000  0.5390680000000  0.4753550000000 1.0
C      1  0.4802930000000  0.5820910000000  0.4860120000000 1.0
C      1  0.5172370000000  0.4834250000000  0.4236630000000 1.0
C      1  0.3989400000000  0.4085820000000  0.4636570000000 1.0
C      1  0.4373890000000  0.5193370000000  0.4891370000000 1.0
C      1  0.4598090000000  0.4843210000000  0.5015910000000 1.0
C      1  0.5020690000000  0.5762050000000  0.4605670000000 1.0
C      1  0.5574760000000  0.5164420000000  0.4279400000000 1.0
C      1  0.4334780000000  0.4700740000000  0.5789450000000 1.0
C      1  0.4423410000000  0.4160180000000  0.5513580000000 1.0
C      1  0.5508510000000  0.4849030000000  0.4647580000000 1.0
C      1  0.4724340000000  0.5301390000000  0.5252820000000 1.0
C      1  0.4603520000000  0.5570430000000  0.5334840000000 1.0
C      1  0.4809600000000  0.5932650000000  0.4400730000000 1.0
C      1  0.5504970000000  0.4299280000000  0.4305040000000 1.0
C      1  0.5606720000000  0.5481490000000  0.5531540000000 1.0
C      1  0.4175800000000  0.4876830000000  0.4578110000000 1.0
C      1  0.5347550000000  0.3952840000000  0.5700330000000 1.0
C      1  0.4131110000000  0.4538720000000  0.5352930000000 1.0
C      1  0.4316420000000  0.5941400000000  0.5041470000000 1.0
C      1  0.5261830000000  0.4683500000000  0.4695330000000 1.0
C      1  0.4559690000000  0.5971440000000  0.4826430000000 1.0
C      1  0.5475170000000  0.5414740000000  0.5838020000000 1.0
C      1  0.5301590000000  0.4359240000000  0.4792620000000 1.0
C      1  0.5490730000000  0.5861000000000  0.4617050000000 1.0
C      1  0.5933610000000  0.4768840000000  0.4522100000000 1.0
C      1  0.5213020000000  0.5955730000000  0.5410590000000 1.0
C      1  0.4606830000000  0.4664260000000  0.5624410000000 1.0
C      1  0.4958570000000  0.6025830000000  0.5486000000000 1.0
C      1  0.5278740000000  0.4734970000000  0.6022110000000 1.0
C      1  0.4188370000000  0.4260160000000  0.4649110000000 1.0
C      1  0.5547710000000  0.4583890000000  0.5763070000000 1.0
C      1  0.4791460000000  0.5504380000000  0.4988320000000 1.0
C      1  0.5133380000000  0.5273600000000  0.5607860000000 1.0
C      1  0.4727330000000  0.5370740000000  0.4567980000000 1.0
C      1  0.5214340000000  0.5674690000000  0.5690260000000 1.0
C      1  0.4935730000000  0.4153210000000  0.5506260000000 1.0
C      1  0.4729180000000  0.4556990000000  0.4970360000000 1.0
C      1  0.6023650000000  0.4792190000000  0.5732540000000 1.0
C      1  0.5543780000000  0.5738910000000  0.5744680000000 1.0
C      1  0.5439140000000  0.4202560000000  0.5412850000000 1.0
C      1  0.4143800000000  0.4552890000000  0.4479290000000 1.0
C      1  0.5561240000000  0.5114050000000  0.5843130000000 1.0
C      1  0.4214990000000  0.4276160000000  0.5323280000000 1.0
C      1  0.5598790000000  0.4821170000000  0.5987750000000 1.0
C      1  0.5176000000000  0.4815560000000  0.5155740000000 1.0
C      1  0.5905430000000  0.5363090000000  0.5637260000000 1.0
C      1  0.5170500000000  0.4974780000000  0.3931370000000 1.0
C      1  0.4396020000000  0.5367950000000  0.4487590000000 1.0
C      1  0.5920550000000  0.5490970000000  0.5159920000000 1.0
C      1  0.5945460000000  0.4830330000000  0.4995320000000 1.0
C      1  0.3944010000000  0.4936490000000  0.5026550000000 1.0
C      1  0.4735220000000  0.4977990000000  0.5667730000000 1.0
C      1  0.6045130000000  0.5058830000000  0.5646910000000 1.0
C      1  0.5052710000000  0.5166160000000  0.5906950000000 1.0
C      1  0.5833310000000  0.5700180000000  0.4963800000000 1.0
C      1  0.4778080000000  0.4424770000000  0.5262000000000 1.0
C      1  0.4349870000000  0.5371350000000  0.4174450000000 1.0
C      1  0.4221000000000  0.5403680000000  0.5510000000000 1.0
C      1  0.5189020000000  0.5719390000000  0.4245780000000 1.0
END
