TITL C-2848503-6230-175 -0.0012320010057572 125000 -841.953530668453 0 0 155 (C1) n - 1
REM
REM in /home/bkarasulu/work/CARBON/AIRSS/Generating-Clusters/AIREBO/with-SteepDescent/Only-C1/SD-CG-opt/Try1-1.4A-POS3A/HFTN-CG
REM
REM
REM
REM
REM
REM ./C.cell (11c1c37f851c82e70ff6c80c92926a4b)
REM
REM compiler GCC version 9.2.1 20190827 (Red Hat 9.2.1-1)
REM options -cpp -mtune=generic -march=x86-64 -g -O0 -fpre-include=/usr/include/finclude/math-vector-fortran.h
REM seed 773855064 -1055977629 593822463 -1893701031 1039681514 1941700954 877670046 1675096639 948315822 2021311691 1714532707 338851183 1875034879 -1219737838 -1007658563 -1787048446 -466553027 1365151305 -271805405 -1242845251 528849867 102784005 678665997 -2112107624 -1397988903 -2088702629 -634416662 -765830286 -1074763867 436800205 357433381 -1642932804 1725658861
REM
CELL 1.54180   50.00000   50.00000   50.00000   90.00000   90.00000   90.00000
LATT -1
SFAC C  
C      1  0.4846590000000  0.5362270000000  0.5646800000000 1.0
C      1  0.4220870000000  0.4596440000000  0.4977540000000 1.0
C      1  0.4444430000000  0.5199380000000  0.4071010000000 1.0
C      1  0.5527790000000  0.5201460000000  0.5905480000000 1.0
C      1  0.6094430000000  0.5039410000000  0.5231460000000 1.0
C      1  0.4813990000000  0.5779370000000  0.4561160000000 1.0
C      1  0.5560650000000  0.5680960000000  0.4865480000000 1.0
C      1  0.4297020000000  0.4904090000000  0.5317070000000 1.0
C      1  0.5378950000000  0.4003070000000  0.5374890000000 1.0
C      1  0.4329800000000  0.5357390000000  0.4631310000000 1.0
C      1  0.5850910000000  0.3901590000000  0.4711110000000 1.0
C      1  0.5047360000000  0.5825220000000  0.5797980000000 1.0
C      1  0.5261040000000  0.4560160000000  0.5825260000000 1.0
C      1  0.4306290000000  0.5660650000000  0.4789240000000 1.0
C      1  0.4751780000000  0.5412660000000  0.5163450000000 1.0
C      1  0.5506460000000  0.5043160000000  0.5635770000000 1.0
C      1  0.5050420000000  0.5027050000000  0.4776400000000 1.0
C      1  0.4472210000000  0.4787090000000  0.4855100000000 1.0
C      1  0.5054880000000  0.3964850000000  0.5286090000000 1.0
C      1  0.5548130000000  0.4293150000000  0.4979980000000 1.0
C      1  0.5159840000000  0.4785760000000  0.5931950000000 1.0
C      1  0.4915990000000  0.6055010000000  0.5331470000000 1.0
C      1  0.6057170000000  0.5018370000000  0.5509060000000 1.0
C      1  0.5141320000000  0.5417290000000  0.5386370000000 1.0
C      1  0.4967630000000  0.5776480000000  0.4271460000000 1.0
C      1  0.5324640000000  0.4858820000000  0.4886900000000 1.0
C      1  0.4465690000000  0.4555520000000  0.4154930000000 1.0
C      1  0.4682540000000  0.4076380000000  0.5196830000000 1.0
C      1  0.5110560000000  0.4163290000000  0.4389540000000 1.0
C      1  0.5730570000000  0.4551410000000  0.4736250000000 1.0
C      1  0.5854410000000  0.5478610000000  0.5352470000000 1.0
C      1  0.5607330000000  0.4491470000000  0.4424120000000 1.0
C      1  0.4149530000000  0.5502600000000  0.5019490000000 1.0
C      1  0.4552780000000  0.4769640000000  0.5496890000000 1.0
C      1  0.4912590000000  0.4154510000000  0.5511910000000 1.0
C      1  0.4215890000000  0.5397050000000  0.5498790000000 1.0
C      1  0.4671670000000  0.4433780000000  0.4860740000000 1.0
C      1  0.4965000000000  0.4888060000000  0.4205430000000 1.0
C      1  0.5130970000000  0.5495540000000  0.5778480000000 1.0
C      1  0.5916410000000  0.4516840000000  0.5282080000000 1.0
C      1  0.4880010000000  0.5466550000000  0.4563050000000 1.0
C      1  0.5728330000000  0.5262100000000  0.4511450000000 1.0
C      1  0.5255490000000  0.5384530000000  0.4095030000000 1.0
C      1  0.4974860000000  0.4911310000000  0.5405630000000 1.0
C      1  0.4413180000000  0.5419130000000  0.5217350000000 1.0
C      1  0.5301140000000  0.4524770000000  0.4946480000000 1.0
C      1  0.5449290000000  0.4923200000000  0.4113520000000 1.0
C      1  0.5726340000000  0.5310220000000  0.4830810000000 1.0
C      1  0.4432920000000  0.4524380000000  0.4646200000000 1.0
C      1  0.4202660000000  0.5230020000000  0.5775950000000 1.0
C      1  0.4729870000000  0.4267680000000  0.4571960000000 1.0
C      1  0.4498770000000  0.4402840000000  0.4370510000000 1.0
C      1  0.5591380000000  0.4228130000000  0.5288810000000 1.0
C      1  0.5467170000000  0.5411180000000  0.4343680000000 1.0
C      1  0.5161860000000  0.4569150000000  0.4575460000000 1.0
C      1  0.5809590000000  0.4617740000000  0.5588960000000 1.0
C      1  0.5210160000000  0.4978790000000  0.4312990000000 1.0
C      1  0.5785750000000  0.4969740000000  0.4473430000000 1.0
C      1  0.5725140000000  0.5756550000000  0.4652030000000 1.0
C      1  0.5311440000000  0.4770950000000  0.4497360000000 1.0
C      1  0.4682250000000  0.5783030000000  0.5507470000000 1.0
C      1  0.4855120000000  0.4507370000000  0.5852060000000 1.0
C      1  0.4076170000000  0.4947920000000  0.5768990000000 1.0
C      1  0.5215230000000  0.5472400000000  0.4563390000000 1.0
C      1  0.5265470000000  0.5515040000000  0.4897010000000 1.0
C      1  0.5187440000000  0.5118790000000  0.5541030000000 1.0
C      1  0.5723820000000  0.4088220000000  0.4830580000000 1.0
C      1  0.5331910000000  0.5312570000000  0.5162230000000 1.0
C      1  0.5077050000000  0.4437690000000  0.5603590000000 1.0
C      1  0.4486140000000  0.5496280000000  0.4363140000000 1.0
C      1  0.5123930000000  0.4165700000000  0.4949690000000 1.0
C      1  0.4444280000000  0.5301900000000  0.6012490000000 1.0
C      1  0.5954930000000  0.4803710000000  0.4709490000000 1.0
C      1  0.4682270000000  0.4952700000000  0.5714460000000 1.0
C      1  0.5384340000000  0.5538700000000  0.5555660000000 1.0
C      1  0.4711810000000  0.5299990000000  0.4782300000000 1.0
C      1  0.4958610000000  0.4588490000000  0.4084550000000 1.0
C      1  0.4965010000000  0.4064420000000  0.4681030000000 1.0
C      1  0.4033610000000  0.5034990000000  0.5168810000000 1.0
C      1  0.5562320000000  0.4816010000000  0.4649480000000 1.0
C      1  0.4914640000000  0.5656870000000  0.5302440000000 1.0
C      1  0.5086270000000  0.4817590000000  0.5113640000000 1.0
C      1  0.4830490000000  0.4805560000000  0.3869240000000 1.0
C      1  0.5731290000000  0.5582640000000  0.4439050000000 1.0
C      1  0.5530700000000  0.4518810000000  0.5758440000000 1.0
C      1  0.4683470000000  0.4999040000000  0.4351730000000 1.0
C      1  0.5187530000000  0.5158250000000  0.4542930000000 1.0
C      1  0.5428580000000  0.4223590000000  0.4402220000000 1.0
C      1  0.4971500000000  0.4454660000000  0.4991900000000 1.0
C      1  0.4498590000000  0.5108480000000  0.5193960000000 1.0
C      1  0.4084270000000  0.4978850000000  0.4363670000000 1.0
C      1  0.3976060000000  0.4732250000000  0.5145840000000 1.0
C      1  0.4595850000000  0.4788000000000  0.4099720000000 1.0
C      1  0.5009140000000  0.5289910000000  0.6020520000000 1.0
C      1  0.4359670000000  0.4496130000000  0.5503100000000 1.0
C      1  0.5634390000000  0.4750700000000  0.4262340000000 1.0
C      1  0.4824170000000  0.6014790000000  0.5647990000000 1.0
C      1  0.4782020000000  0.4804660000000  0.4977200000000 1.0
C      1  0.5862090000000  0.5988940000000  0.4650750000000 1.0
C      1  0.5401540000000  0.5964590000000  0.5112450000000 1.0
C      1  0.5002040000000  0.5028570000000  0.5803100000000 1.0
C      1  0.4991100000000  0.5318810000000  0.4940790000000 1.0
C      1  0.5625220000000  0.5374150000000  0.5450630000000 1.0
C      1  0.4030110000000  0.4876150000000  0.4615470000000 1.0
C      1  0.4748580000000  0.5328250000000  0.4296380000000 1.0
C      1  0.4369510000000  0.5116740000000  0.4394340000000 1.0
C      1  0.5182480000000  0.4579790000000  0.5323770000000 1.0
C      1  0.4435960000000  0.5125120000000  0.4860110000000 1.0
C      1  0.3934800000000  0.4435040000000  0.5203540000000 1.0
C      1  0.5198600000000  0.5786190000000  0.4456000000000 1.0
C      1  0.5187780000000  0.5843530000000  0.4938860000000 1.0
C      1  0.4591440000000  0.5579730000000  0.5677780000000 1.0
C      1  0.4447630000000  0.5881080000000  0.4823870000000 1.0
C      1  0.4892560000000  0.3919300000000  0.4986960000000 1.0
C      1  0.4961700000000  0.5082410000000  0.3857520000000 1.0
C      1  0.4776030000000  0.5160690000000  0.5383870000000 1.0
C      1  0.5663240000000  0.5770600000000  0.5159910000000 1.0
C      1  0.4906220000000  0.5879940000000  0.5043880000000 1.0
C      1  0.4008450000000  0.5368010000000  0.4742010000000 1.0
C      1  0.4755540000000  0.4681090000000  0.5284290000000 1.0
C      1  0.5552290000000  0.4484310000000  0.5435470000000 1.0
C      1  0.4974150000000  0.5513950000000  0.4122370000000 1.0
C      1  0.4814860000000  0.4379390000000  0.5276330000000 1.0
C      1  0.4264500000000  0.4386130000000  0.5222760000000 1.0
C      1  0.4795740000000  0.4858300000000  0.4641040000000 1.0
C      1  0.4693280000000  0.4352440000000  0.5668210000000 1.0
C      1  0.4763230000000  0.4742210000000  0.5945630000000 1.0
C      1  0.4125320000000  0.4621870000000  0.4674730000000 1.0
C      1  0.4167650000000  0.4761930000000  0.5590350000000 1.0
C      1  0.5698700000000  0.4573310000000  0.5074660000000 1.0
C      1  0.4858320000000  0.4571180000000  0.4535000000000 1.0
C      1  0.5862170000000  0.5516250000000  0.5062750000000 1.0
C      1  0.5199540000000  0.4271580000000  0.5261510000000 1.0
C      1  0.5807410000000  0.5122170000000  0.5091780000000 1.0
C      1  0.4531120000000  0.5242380000000  0.5688910000000 1.0
C      1  0.4144820000000  0.5102720000000  0.4070730000000 1.0
C      1  0.4100340000000  0.5072100000000  0.4845800000000 1.0
C      1  0.6022800000000  0.4915400000000  0.4949510000000 1.0
C      1  0.5452740000000  0.5163350000000  0.4918520000000 1.0
C      1  0.4028690000000  0.5327630000000  0.5255800000000 1.0
C      1  0.4745710000000  0.5285670000000  0.3959010000000 1.0
C      1  0.5239180000000  0.5132240000000  0.3947140000000 1.0
C      1  0.5394570000000  0.5403500000000  0.5972570000000 1.0
C      1  0.4515370000000  0.4195550000000  0.5466460000000 1.0
C      1  0.5138470000000  0.5843500000000  0.5477690000000 1.0
C      1  0.5442180000000  0.5823140000000  0.5412650000000 1.0
C      1  0.5218070000000  0.5966220000000  0.4655200000000 1.0
C      1  0.5323070000000  0.4341460000000  0.4674890000000 1.0
C      1  0.4972440000000  0.4384810000000  0.4277190000000 1.0
C      1  0.5540470000000  0.5081440000000  0.5299490000000 1.0
C      1  0.4723860000000  0.5887900000000  0.4801330000000 1.0
C      1  0.5464870000000  0.4752750000000  0.5245600000000 1.0
C      1  0.5819980000000  0.4916400000000  0.5600430000000 1.0
C      1  0.4733280000000  0.5295980000000  0.6024390000000 1.0
C      1  0.4496000000000  0.4280540000000  0.5056000000000 1.0
END
