TITL C-2847945-6269-624 -0.000610601625867487 125000 -759.580735508121 0 0 144 (C1) n - 1
REM
REM in /home/bkarasulu/work/CARBON/AIRSS/Generating-Clusters/AIREBO/with-SteepDescent/Only-C1/SD-CG-opt/Try1-1.4A-POS3A/HFTN-CG
REM
REM
REM
REM
REM
REM ./C.cell (11c1c37f851c82e70ff6c80c92926a4b)
REM
REM compiler GCC version 9.2.1 20190827 (Red Hat 9.2.1-1)
REM options -cpp -mtune=generic -march=x86-64 -g -O0 -fpre-include=/usr/include/finclude/math-vector-fortran.h
REM seed -1502528709 -1653517394 -1533592354 621674426 728390368 242250638 1195405768 -1044403956 -600753369 1608026265 -359300150 -460480095 1699353246 -1241250987 1552047219 -1180668930 -888308573 -1278675838 -1892947242 57017001 -762656846 -627056840 -1512463609 363723632 -98167989 1000706728 -2119578022 -1398304292 1132573152 1297580536 -1295103507 -940427602 -2120169690
REM
CELL 1.54180   50.00000   50.00000   50.00000   90.00000   90.00000   90.00000
LATT -1
SFAC C  
C      1  0.5109820000000  0.5693510000000  0.5315510000000 1.0
C      1  0.4888530000000  0.4694330000000  0.5517240000000 1.0
C      1  0.4391990000000  0.4083830000000  0.5582820000000 1.0
C      1  0.4966510000000  0.4653300000000  0.5851240000000 1.0
C      1  0.5543750000000  0.4390990000000  0.5799810000000 1.0
C      1  0.4668550000000  0.4057500000000  0.5556980000000 1.0
C      1  0.4241140000000  0.4574770000000  0.5057870000000 1.0
C      1  0.4627610000000  0.4733140000000  0.5302540000000 1.0
C      1  0.4064810000000  0.5296200000000  0.5006700000000 1.0
C      1  0.4641870000000  0.4577490000000  0.4164620000000 1.0
C      1  0.5096070000000  0.4016320000000  0.5191460000000 1.0
C      1  0.4373480000000  0.4994440000000  0.5949790000000 1.0
C      1  0.4745060000000  0.5238200000000  0.5356610000000 1.0
C      1  0.5014670000000  0.5758910000000  0.5697200000000 1.0
C      1  0.4147010000000  0.5449500000000  0.5413410000000 1.0
C      1  0.5963580000000  0.5354910000000  0.5133090000000 1.0
C      1  0.4394350000000  0.5875540000000  0.5301010000000 1.0
C      1  0.4709040000000  0.5228580000000  0.4841550000000 1.0
C      1  0.4362970000000  0.4568200000000  0.5438290000000 1.0
C      1  0.4613350000000  0.5497380000000  0.4668460000000 1.0
C      1  0.4281540000000  0.5051180000000  0.5682750000000 1.0
C      1  0.5187430000000  0.5552830000000  0.5744200000000 1.0
C      1  0.5378680000000  0.5248220000000  0.5336500000000 1.0
C      1  0.4543640000000  0.5181830000000  0.5104150000000 1.0
C      1  0.6269300000000  0.5053720000000  0.4418220000000 1.0
C      1  0.4679670000000  0.5024600000000  0.3986260000000 1.0
C      1  0.4633760000000  0.4477440000000  0.5078390000000 1.0
C      1  0.5230110000000  0.4716770000000  0.4253060000000 1.0
C      1  0.5163520000000  0.4155200000000  0.4451700000000 1.0
C      1  0.4882650000000  0.4425880000000  0.5308580000000 1.0
C      1  0.5650540000000  0.5332360000000  0.5057290000000 1.0
C      1  0.4952260000000  0.4911030000000  0.6023140000000 1.0
C      1  0.4460970000000  0.4965950000000  0.4387460000000 1.0
C      1  0.5427840000000  0.4024580000000  0.5234080000000 1.0
C      1  0.5416850000000  0.4432840000000  0.4992980000000 1.0
C      1  0.4723920000000  0.5042320000000  0.4557310000000 1.0
C      1  0.4837810000000  0.5784570000000  0.5455900000000 1.0
C      1  0.5462730000000  0.4911440000000  0.5846480000000 1.0
C      1  0.5682420000000  0.5016810000000  0.4471760000000 1.0
C      1  0.5641730000000  0.4453780000000  0.4301910000000 1.0
C      1  0.5710620000000  0.4703280000000  0.5952580000000 1.0
C      1  0.5398600000000  0.5103230000000  0.5069200000000 1.0
C      1  0.4354700000000  0.5286180000000  0.4604430000000 1.0
C      1  0.3986690000000  0.5019660000000  0.4974180000000 1.0
C      1  0.4677900000000  0.5031980000000  0.5925240000000 1.0
C      1  0.5171140000000  0.4206950000000  0.4938310000000 1.0
C      1  0.5608630000000  0.5332690000000  0.4745310000000 1.0
C      1  0.5383470000000  0.5876280000000  0.4973970000000 1.0
C      1  0.5042740000000  0.5290150000000  0.5772880000000 1.0
C      1  0.6015600000000  0.5038000000000  0.4440250000000 1.0
C      1  0.5037120000000  0.5801900000000  0.4347560000000 1.0
C      1  0.5715590000000  0.4547090000000  0.4892100000000 1.0
C      1  0.4593190000000  0.5603340000000  0.5304320000000 1.0
C      1  0.5575430000000  0.5233270000000  0.5507100000000 1.0
C      1  0.5333650000000  0.5489940000000  0.4714830000000 1.0
C      1  0.4408460000000  0.5661320000000  0.4884760000000 1.0
C      1  0.4579030000000  0.5405970000000  0.5580870000000 1.0
C      1  0.5084860000000  0.5947820000000  0.4827990000000 1.0
C      1  0.5121110000000  0.4897670000000  0.4701950000000 1.0
C      1  0.4818970000000  0.4092790000000  0.4753920000000 1.0
C      1  0.4308520000000  0.4295110000000  0.4938370000000 1.0
C      1  0.5963750000000  0.4825310000000  0.5212200000000 1.0
C      1  0.5540210000000  0.4812530000000  0.5012070000000 1.0
C      1  0.5720800000000  0.5019710000000  0.4811720000000 1.0
C      1  0.4959290000000  0.4971580000000  0.4096520000000 1.0
C      1  0.5574840000000  0.5336290000000  0.4427400000000 1.0
C      1  0.4294020000000  0.5322550000000  0.5609670000000 1.0
C      1  0.4868640000000  0.4800960000000  0.5072330000000 1.0
C      1  0.5446870000000  0.4774390000000  0.4509510000000 1.0
C      1  0.5683660000000  0.4891500000000  0.4155610000000 1.0
C      1  0.5249200000000  0.4705420000000  0.4872470000000 1.0
C      1  0.5897830000000  0.4300450000000  0.5257900000000 1.0
C      1  0.4490870000000  0.5874540000000  0.4639330000000 1.0
C      1  0.5089600000000  0.5005390000000  0.5181850000000 1.0
C      1  0.4743500000000  0.5326950000000  0.5820440000000 1.0
C      1  0.5630300000000  0.5841010000000  0.5078140000000 1.0
C      1  0.4780080000000  0.6039520000000  0.4708340000000 1.0
C      1  0.4797220000000  0.4544500000000  0.4465400000000 1.0
C      1  0.5544220000000  0.4736650000000  0.5344520000000 1.0
C      1  0.4753280000000  0.4996440000000  0.5595620000000 1.0
C      1  0.4738510000000  0.5889140000000  0.4406230000000 1.0
C      1  0.4514550000000  0.4863960000000  0.4131840000000 1.0
C      1  0.4393180000000  0.4995460000000  0.4777180000000 1.0
C      1  0.5250430000000  0.5775830000000  0.4610920000000 1.0
C      1  0.4010400000000  0.4797580000000  0.5137290000000 1.0
C      1  0.5053080000000  0.4364660000000  0.4321240000000 1.0
C      1  0.5106460000000  0.4772650000000  0.3877330000000 1.0
C      1  0.5562960000000  0.5632530000000  0.5503410000000 1.0
C      1  0.5216100000000  0.4708360000000  0.5427030000000 1.0
C      1  0.5559540000000  0.4124540000000  0.4976100000000 1.0
C      1  0.4337020000000  0.5449350000000  0.5141240000000 1.0
C      1  0.5419080000000  0.5511340000000  0.4294050000000 1.0
C      1  0.4399410000000  0.4874110000000  0.5093480000000 1.0
C      1  0.4791800000000  0.4412000000000  0.4778870000000 1.0
C      1  0.5495870000000  0.5409930000000  0.5751630000000 1.0
C      1  0.5335620000000  0.4232960000000  0.4658150000000 1.0
C      1  0.4775420000000  0.5499890000000  0.5033980000000 1.0
C      1  0.3892290000000  0.5545130000000  0.5410350000000 1.0
C      1  0.5023910000000  0.4505060000000  0.5009410000000 1.0
C      1  0.4449770000000  0.4571200000000  0.4445140000000 1.0
C      1  0.5281770000000  0.5066540000000  0.4454380000000 1.0
C      1  0.5532650000000  0.4449710000000  0.5528800000000 1.0
C      1  0.4550690000000  0.4162800000000  0.5037300000000 1.0
C      1  0.5070210000000  0.5069960000000  0.5515200000000 1.0
C      1  0.3999870000000  0.4947680000000  0.4698270000000 1.0
C      1  0.4872630000000  0.4131210000000  0.5395900000000 1.0
C      1  0.5304700000000  0.4426020000000  0.5295290000000 1.0
C      1  0.4048100000000  0.4518430000000  0.5332050000000 1.0
C      1  0.4385040000000  0.4878950000000  0.5496060000000 1.0
C      1  0.3954920000000  0.5199660000000  0.4253860000000 1.0
C      1  0.4861950000000  0.5573860000000  0.4036400000000 1.0
C      1  0.4251140000000  0.4782980000000  0.4564040000000 1.0
C      1  0.5914130000000  0.4543530000000  0.5126620000000 1.0
C      1  0.4955230000000  0.4840640000000  0.4410640000000 1.0
C      1  0.4244310000000  0.4282370000000  0.5485030000000 1.0
C      1  0.5460210000000  0.5198440000000  0.5982550000000 1.0
C      1  0.4082220000000  0.5141320000000  0.4487780000000 1.0
C      1  0.5120540000000  0.5241210000000  0.4697670000000 1.0
C      1  0.5536260000000  0.4654730000000  0.4141540000000 1.0
C      1  0.5087970000000  0.5478630000000  0.4268100000000 1.0
C      1  0.5209990000000  0.5610960000000  0.5007670000000 1.0
C      1  0.4878800000000  0.5361850000000  0.4504770000000 1.0
C      1  0.4832190000000  0.5720650000000  0.4812940000000 1.0
C      1  0.4688960000000  0.4833690000000  0.4823590000000 1.0
C      1  0.5062970000000  0.5370970000000  0.5357010000000 1.0
C      1  0.4714850000000  0.5771150000000  0.4106300000000 1.0
C      1  0.5814090000000  0.5015500000000  0.5451220000000 1.0
C      1  0.4797520000000  0.3984270000000  0.5031610000000 1.0
C      1  0.5699640000000  0.4795120000000  0.5641300000000 1.0
C      1  0.5156940000000  0.5114340000000  0.6003590000000 1.0
C      1  0.5202620000000  0.4838350000000  0.5718180000000 1.0
C      1  0.5322500000000  0.5955220000000  0.4344990000000 1.0
C      1  0.5544880000000  0.4466640000000  0.4615820000000 1.0
C      1  0.5347930000000  0.5806890000000  0.5481070000000 1.0
C      1  0.4961030000000  0.4572930000000  0.4102660000000 1.0
C      1  0.6054070000000  0.5172940000000  0.5300510000000 1.0
C      1  0.4102080000000  0.5432290000000  0.4757360000000 1.0
C      1  0.5980710000000  0.4994260000000  0.4950520000000 1.0
C      1  0.4280450000000  0.5889320000000  0.5070260000000 1.0
C      1  0.5149910000000  0.5172490000000  0.4200760000000 1.0
C      1  0.4966390000000  0.3978590000000  0.4547020000000 1.0
C      1  0.5640800000000  0.4216880000000  0.5354410000000 1.0
C      1  0.5054860000000  0.5306330000000  0.5023260000000 1.0
C      1  0.5670160000000  0.5603320000000  0.5241310000000 1.0
END
