TITL C-2847958-8115-648 0.00139565338174935 125000 -729.741143609099 0 0 134 (C1) n - 1
REM
REM in /home/bkarasulu/work/CARBON/AIRSS/Generating-Clusters/AIREBO/with-SteepDescent/Only-C1/SD-CG-opt/Try1-1.4A-POS3A/HFTN-CG
REM
REM
REM
REM
REM
REM ./C.cell (11c1c37f851c82e70ff6c80c92926a4b)
REM
REM compiler GCC version 9.2.1 20190827 (Red Hat 9.2.1-1)
REM options -cpp -mtune=generic -march=x86-64 -g -O0 -fpre-include=/usr/include/finclude/math-vector-fortran.h
REM seed -1504964284 -2033277673 -1379327149 -1255912440 -1500071872 -1767505962 1826393706 -1934130395 1797723248 -1756679857 1219124814 1863418799 -1376514372 1565664763 -748023415 -1787678197 -584691099 919055490 -2015506788 1508026854 -2083173041 -1519440477 -1268896958 -2104353988 -432052954 -1743030528 -1110956885 -705488797 -603419305 1971405587 736602756 -419723896 -763905667
REM
CELL 1.54180   50.00000   50.00000   50.00000   90.00000   90.00000   90.00000
LATT -1
SFAC C  
C      1  0.4709850000000  0.5666710000000  0.5643560000000 1.0
C      1  0.4332970000000  0.5386240000000  0.4465860000000 1.0
C      1  0.5027550000000  0.5570720000000  0.5119830000000 1.0
C      1  0.5672630000000  0.5216360000000  0.5484390000000 1.0
C      1  0.5885470000000  0.5419260000000  0.5028950000000 1.0
C      1  0.4835810000000  0.4961480000000  0.5562230000000 1.0
C      1  0.4504080000000  0.4826690000000  0.5208670000000 1.0
C      1  0.5461780000000  0.4682920000000  0.5243710000000 1.0
C      1  0.4782550000000  0.5276270000000  0.5313030000000 1.0
C      1  0.4470950000000  0.5772490000000  0.5200020000000 1.0
C      1  0.4511800000000  0.5189150000000  0.5763560000000 1.0
C      1  0.5584780000000  0.5178800000000  0.4923950000000 1.0
C      1  0.4540790000000  0.4957430000000  0.4675380000000 1.0
C      1  0.4976240000000  0.5620140000000  0.5854890000000 1.0
C      1  0.5105850000000  0.5439960000000  0.4380290000000 1.0
C      1  0.5356910000000  0.4600310000000  0.4942240000000 1.0
C      1  0.4703990000000  0.3977730000000  0.4958230000000 1.0
C      1  0.5282830000000  0.4029890000000  0.4428610000000 1.0
C      1  0.4344470000000  0.4705440000000  0.5745160000000 1.0
C      1  0.5207060000000  0.4433290000000  0.4199680000000 1.0
C      1  0.4299310000000  0.4587910000000  0.4529110000000 1.0
C      1  0.4473900000000  0.4927620000000  0.4379490000000 1.0
C      1  0.4633430000000  0.4850370000000  0.4028220000000 1.0
C      1  0.4904120000000  0.5980300000000  0.5289300000000 1.0
C      1  0.5264080000000  0.4155900000000  0.5148490000000 1.0
C      1  0.4788770000000  0.5417510000000  0.4795740000000 1.0
C      1  0.4739870000000  0.4224930000000  0.5388040000000 1.0
C      1  0.5339500000000  0.5755640000000  0.5454980000000 1.0
C      1  0.4331200000000  0.5342530000000  0.5056460000000 1.0
C      1  0.5322620000000  0.5047240000000  0.5892090000000 1.0
C      1  0.5733020000000  0.5230100000000  0.4557160000000 1.0
C      1  0.4629910000000  0.5635640000000  0.4373000000000 1.0
C      1  0.4510170000000  0.4891910000000  0.5915750000000 1.0
C      1  0.4834570000000  0.5359100000000  0.5599490000000 1.0
C      1  0.4579550000000  0.4520380000000  0.5335990000000 1.0
C      1  0.4334590000000  0.4396990000000  0.4733760000000 1.0
C      1  0.5716770000000  0.4628750000000  0.4561480000000 1.0
C      1  0.5294050000000  0.4899740000000  0.4952480000000 1.0
C      1  0.4818480000000  0.5126670000000  0.4388700000000 1.0
C      1  0.5111020000000  0.5351480000000  0.4708820000000 1.0
C      1  0.5582330000000  0.4981620000000  0.5682610000000 1.0
C      1  0.4729960000000  0.4522910000000  0.4443150000000 1.0
C      1  0.5485120000000  0.5486160000000  0.5030340000000 1.0
C      1  0.4242260000000  0.4542480000000  0.5296750000000 1.0
C      1  0.5088750000000  0.4207070000000  0.4311690000000 1.0
C      1  0.4311510000000  0.5549930000000  0.5258770000000 1.0
C      1  0.5476640000000  0.5671720000000  0.4761700000000 1.0
C      1  0.5236850000000  0.4369400000000  0.5639570000000 1.0
C      1  0.5416530000000  0.5445350000000  0.4242150000000 1.0
C      1  0.5027010000000  0.4854630000000  0.4389540000000 1.0
C      1  0.5431120000000  0.4139410000000  0.4654740000000 1.0
C      1  0.5173270000000  0.4263100000000  0.4838740000000 1.0
C      1  0.5059210000000  0.4503930000000  0.5049960000000 1.0
C      1  0.4040440000000  0.5217000000000  0.4990300000000 1.0
C      1  0.5650280000000  0.4427360000000  0.5148200000000 1.0
C      1  0.5569210000000  0.5476580000000  0.5677390000000 1.0
C      1  0.4457590000000  0.5468320000000  0.5709590000000 1.0
C      1  0.5023010000000  0.4982400000000  0.4825330000000 1.0
C      1  0.4865980000000  0.4161150000000  0.4747350000000 1.0
C      1  0.4216710000000  0.5122200000000  0.5505870000000 1.0
C      1  0.4500510000000  0.4639810000000  0.4259960000000 1.0
C      1  0.5192070000000  0.4678660000000  0.5704690000000 1.0
C      1  0.5471680000000  0.4510130000000  0.4357610000000 1.0
C      1  0.4399130000000  0.5568220000000  0.4735110000000 1.0
C      1  0.4360370000000  0.5225650000000  0.4752120000000 1.0
C      1  0.4858420000000  0.5311400000000  0.5935310000000 1.0
C      1  0.5829240000000  0.4908560000000  0.4500410000000 1.0
C      1  0.5661300000000  0.4299960000000  0.4639130000000 1.0
C      1  0.4869470000000  0.4649140000000  0.5624750000000 1.0
C      1  0.4982010000000  0.5858790000000  0.4611450000000 1.0
C      1  0.5259790000000  0.5611070000000  0.5735210000000 1.0
C      1  0.5079620000000  0.4195880000000  0.5393040000000 1.0
C      1  0.4248070000000  0.5426330000000  0.5505210000000 1.0
C      1  0.5626350000000  0.4689020000000  0.5522860000000 1.0
C      1  0.4194350000000  0.4800950000000  0.5512610000000 1.0
C      1  0.4749320000000  0.4933580000000  0.5021080000000 1.0
C      1  0.5527670000000  0.4452870000000  0.5662080000000 1.0
C      1  0.4642660000000  0.5178940000000  0.4119260000000 1.0
C      1  0.5579790000000  0.5231490000000  0.4286210000000 1.0
C      1  0.4904420000000  0.4306820000000  0.5674110000000 1.0
C      1  0.4534330000000  0.5825050000000  0.4870110000000 1.0
C      1  0.4532370000000  0.5010140000000  0.5475040000000 1.0
C      1  0.5767510000000  0.5467590000000  0.5312130000000 1.0
C      1  0.4823430000000  0.5468460000000  0.4187650000000 1.0
C      1  0.4323280000000  0.5176400000000  0.4236240000000 1.0
C      1  0.5107040000000  0.5759250000000  0.5307300000000 1.0
C      1  0.4913710000000  0.4575210000000  0.5304290000000 1.0
C      1  0.5852540000000  0.5024320000000  0.4975210000000 1.0
C      1  0.5823180000000  0.4714050000000  0.5087440000000 1.0
C      1  0.4674260000000  0.5840490000000  0.4557970000000 1.0
C      1  0.5221530000000  0.5716800000000  0.4540440000000 1.0
C      1  0.4779800000000  0.5067060000000  0.6028060000000 1.0
C      1  0.5054800000000  0.5984330000000  0.4983930000000 1.0
C      1  0.5298490000000  0.5002060000000  0.3981820000000 1.0
C      1  0.4809800000000  0.4739190000000  0.5947210000000 1.0
C      1  0.5115730000000  0.5138100000000  0.4224020000000 1.0
C      1  0.4038510000000  0.4964850000000  0.4967320000000 1.0
C      1  0.5481700000000  0.4980780000000  0.4212240000000 1.0
C      1  0.5043430000000  0.4651930000000  0.4136470000000 1.0
C      1  0.5338130000000  0.5288000000000  0.5226420000000 1.0
C      1  0.4651670000000  0.5261820000000  0.5020140000000 1.0
C      1  0.4661640000000  0.5857780000000  0.5391480000000 1.0
C      1  0.4866080000000  0.4736970000000  0.3935410000000 1.0
C      1  0.6015930000000  0.4998400000000  0.4714420000000 1.0
C      1  0.4859430000000  0.4269050000000  0.4462140000000 1.0
C      1  0.5064200000000  0.5251670000000  0.5030760000000 1.0
C      1  0.4634240000000  0.4361170000000  0.4868430000000 1.0
C      1  0.5445900000000  0.4979760000000  0.4695590000000 1.0
C      1  0.5291630000000  0.4907040000000  0.5522760000000 1.0
C      1  0.5765820000000  0.5492120000000  0.4755610000000 1.0
C      1  0.5366320000000  0.4990750000000  0.5227320000000 1.0
C      1  0.4167180000000  0.4832790000000  0.4616930000000 1.0
C      1  0.5099250000000  0.5153770000000  0.5658780000000 1.0
C      1  0.5247920000000  0.4783220000000  0.6011380000000 1.0
C      1  0.4487730000000  0.4485310000000  0.5661520000000 1.0
C      1  0.4971450000000  0.5021280000000  0.5263110000000 1.0
C      1  0.5300980000000  0.5362490000000  0.5506920000000 1.0
C      1  0.5864000000000  0.4493120000000  0.4832090000000 1.0
C      1  0.4850820000000  0.5726850000000  0.4896060000000 1.0
C      1  0.4792690000000  0.4606900000000  0.4925490000000 1.0
C      1  0.4360720000000  0.4321980000000  0.5066620000000 1.0
C      1  0.5808020000000  0.4925250000000  0.5358230000000 1.0
C      1  0.5535690000000  0.4187110000000  0.5195540000000 1.0
C      1  0.4664830000000  0.5351030000000  0.4531270000000 1.0
C      1  0.5276290000000  0.4525250000000  0.4644060000000 1.0
C      1  0.5410480000000  0.5295860000000  0.4642510000000 1.0
C      1  0.4570520000000  0.4103880000000  0.5166500000000 1.0
C      1  0.4333450000000  0.4837020000000  0.4914040000000 1.0
C      1  0.5351100000000  0.4807620000000  0.4469730000000 1.0
C      1  0.4826030000000  0.4773890000000  0.4651770000000 1.0
C      1  0.6005950000000  0.5166060000000  0.5221420000000 1.0
C      1  0.5300720000000  0.5946510000000  0.4858710000000 1.0
C      1  0.5550540000000  0.5663180000000  0.5309200000000 1.0
C      1  0.4089940000000  0.5017030000000  0.4426100000000 1.0
END
