TITL C-2847949-8115-649 0.00441233707366832 125000 -1045.96919201956 0 0 190 (C1) n - 1
REM
REM in /home/bkarasulu/work/CARBON/AIRSS/Generating-Clusters/AIREBO/with-SteepDescent/Only-C1/SD-CG-opt/Try1-1.4A-POS3A/HFTN-CG
REM
REM
REM
REM
REM
REM ./C.cell (11c1c37f851c82e70ff6c80c92926a4b)
REM
REM compiler GCC version 9.2.1 20190827 (Red Hat 9.2.1-1)
REM options -cpp -mtune=generic -march=x86-64 -g -O0 -fpre-include=/usr/include/finclude/math-vector-fortran.h
REM seed 600419947 898842290 -1561355610 1702377264 1035588647 -1180331753 1839947011 2120383460 836684587 -1333285020 1017344311 610887476 -517590481 647070867 1181584153 -519456354 1574361395 284198234 1144609271 1646493926 1450456558 -853174980 1619889417 -629445407 283434218 -736806442 2069949065 -1245819700 1745883940 1371190465 -2009244830 -297634034 -179495972
REM
CELL 1.54180   50.00000   50.00000   50.00000   90.00000   90.00000   90.00000
LATT -1
SFAC C  
C      1  0.4644960000000  0.5099540000000  0.6167730000000 1.0
C      1  0.4438080000000  0.4748320000000  0.4625650000000 1.0
C      1  0.4445530000000  0.5918520000000  0.5323990000000 1.0
C      1  0.4307160000000  0.5573250000000  0.4973400000000 1.0
C      1  0.4986710000000  0.5598100000000  0.5344550000000 1.0
C      1  0.4766460000000  0.4014880000000  0.5412850000000 1.0
C      1  0.5213550000000  0.4130850000000  0.5195730000000 1.0
C      1  0.4066920000000  0.5700020000000  0.4862870000000 1.0
C      1  0.5704840000000  0.4757580000000  0.5270380000000 1.0
C      1  0.6154710000000  0.5452910000000  0.4717420000000 1.0
C      1  0.5355970000000  0.5646190000000  0.4677170000000 1.0
C      1  0.4544840000000  0.4844300000000  0.5631730000000 1.0
C      1  0.4855910000000  0.4952720000000  0.4801010000000 1.0
C      1  0.4531540000000  0.4507780000000  0.4231240000000 1.0
C      1  0.5145470000000  0.5174390000000  0.3861990000000 1.0
C      1  0.5153210000000  0.3706330000000  0.5124200000000 1.0
C      1  0.4303400000000  0.4040720000000  0.5089470000000 1.0
C      1  0.4694930000000  0.4914270000000  0.5164310000000 1.0
C      1  0.4721830000000  0.5069550000000  0.5656790000000 1.0
C      1  0.3877120000000  0.5191730000000  0.4892510000000 1.0
C      1  0.6132100000000  0.4847760000000  0.5366580000000 1.0
C      1  0.4696850000000  0.5269060000000  0.5908550000000 1.0
C      1  0.4303530000000  0.5648840000000  0.4476510000000 1.0
C      1  0.5001240000000  0.4722880000000  0.4174660000000 1.0
C      1  0.4377640000000  0.4040160000000  0.4832680000000 1.0
C      1  0.5449750000000  0.5733300000000  0.5401140000000 1.0
C      1  0.4688720000000  0.5593690000000  0.5180660000000 1.0
C      1  0.4228530000000  0.5072050000000  0.4074880000000 1.0
C      1  0.4842670000000  0.4447390000000  0.4605740000000 1.0
C      1  0.5434210000000  0.5446900000000  0.5554080000000 1.0
C      1  0.4593380000000  0.4618010000000  0.5441330000000 1.0
C      1  0.4699710000000  0.5154340000000  0.5369060000000 1.0
C      1  0.5336710000000  0.4367200000000  0.3962090000000 1.0
C      1  0.5824720000000  0.5795070000000  0.5072760000000 1.0
C      1  0.5236360000000  0.4666220000000  0.4606900000000 1.0
C      1  0.5078570000000  0.3998900000000  0.5546990000000 1.0
C      1  0.3966950000000  0.4911530000000  0.5251990000000 1.0
C      1  0.6026870000000  0.5357740000000  0.5372140000000 1.0
C      1  0.4319270000000  0.4279610000000  0.5329910000000 1.0
C      1  0.5929650000000  0.4237980000000  0.4313450000000 1.0
C      1  0.4404760000000  0.5482280000000  0.5599480000000 1.0
C      1  0.4808890000000  0.4485020000000  0.5563060000000 1.0
C      1  0.5176170000000  0.5111200000000  0.5086080000000 1.0
C      1  0.5841460000000  0.4641550000000  0.5662510000000 1.0
C      1  0.4340970000000  0.4859130000000  0.4318350000000 1.0
C      1  0.5766210000000  0.4922360000000  0.4907790000000 1.0
C      1  0.4750940000000  0.6015480000000  0.4814500000000 1.0
C      1  0.5159390000000  0.5210580000000  0.4773110000000 1.0
C      1  0.5771300000000  0.4464460000000  0.4299600000000 1.0
C      1  0.4830330000000  0.5210700000000  0.3905810000000 1.0
C      1  0.5895740000000  0.4734370000000  0.4411800000000 1.0
C      1  0.5453700000000  0.4857200000000  0.5978920000000 1.0
C      1  0.4874860000000  0.4945790000000  0.6263410000000 1.0
C      1  0.5431190000000  0.5206420000000  0.4568650000000 1.0
C      1  0.5285080000000  0.4757570000000  0.4296110000000 1.0
C      1  0.5527730000000  0.4596550000000  0.4473740000000 1.0
C      1  0.5069530000000  0.4569020000000  0.5067080000000 1.0
C      1  0.5118980000000  0.4269870000000  0.4107900000000 1.0
C      1  0.4784290000000  0.5942360000000  0.5352980000000 1.0
C      1  0.5036660000000  0.5606260000000  0.4616430000000 1.0
C      1  0.5958830000000  0.4461800000000  0.4875340000000 1.0
C      1  0.4757310000000  0.4210640000000  0.5649180000000 1.0
C      1  0.5908290000000  0.4214540000000  0.4771510000000 1.0
C      1  0.4992190000000  0.4883000000000  0.3905180000000 1.0
C      1  0.4530520000000  0.4328780000000  0.5802810000000 1.0
C      1  0.4280780000000  0.5686880000000  0.5393380000000 1.0
C      1  0.4096310000000  0.5430820000000  0.5280470000000 1.0
C      1  0.4259970000000  0.4660550000000  0.5658150000000 1.0
C      1  0.4658930000000  0.5202850000000  0.4560360000000 1.0
C      1  0.5041550000000  0.5102230000000  0.5735500000000 1.0
C      1  0.5733940000000  0.4920820000000  0.5792760000000 1.0
C      1  0.5040340000000  0.5177170000000  0.6125620000000 1.0
C      1  0.5676920000000  0.5973380000000  0.4659870000000 1.0
C      1  0.5137490000000  0.4407540000000  0.5892480000000 1.0
C      1  0.5302330000000  0.5484760000000  0.4186020000000 1.0
C      1  0.4274540000000  0.4470570000000  0.4379450000000 1.0
C      1  0.5578130000000  0.4419380000000  0.4989740000000 1.0
C      1  0.5611170000000  0.5990120000000  0.4943310000000 1.0
C      1  0.4860910000000  0.4424480000000  0.4266920000000 1.0
C      1  0.5480140000000  0.4997410000000  0.5075910000000 1.0
C      1  0.6267800000000  0.5212170000000  0.4664580000000 1.0
C      1  0.5593200000000  0.4656370000000  0.4785510000000 1.0
C      1  0.5743510000000  0.5096640000000  0.5266710000000 1.0
C      1  0.5572470000000  0.4472400000000  0.4047210000000 1.0
C      1  0.5144840000000  0.5832220000000  0.5743920000000 1.0
C      1  0.5388540000000  0.4535580000000  0.5964500000000 1.0
C      1  0.5137580000000  0.5717410000000  0.4928000000000 1.0
C      1  0.4349480000000  0.4793010000000  0.5958510000000 1.0
C      1  0.4522380000000  0.4743680000000  0.4054890000000 1.0
C      1  0.4197370000000  0.5412710000000  0.4618510000000 1.0
C      1  0.5510370000000  0.5506730000000  0.5167030000000 1.0
C      1  0.4536610000000  0.5871660000000  0.4341100000000 1.0
C      1  0.4582760000000  0.4266050000000  0.4723400000000 1.0
C      1  0.4986580000000  0.5426990000000  0.5958300000000 1.0
C      1  0.5495030000000  0.4990320000000  0.4360200000000 1.0
C      1  0.5329420000000  0.4430840000000  0.5213190000000 1.0
C      1  0.4195890000000  0.4911320000000  0.5457140000000 1.0
C      1  0.5758770000000  0.4947410000000  0.4309260000000 1.0
C      1  0.5166190000000  0.5844670000000  0.5420450000000 1.0
C      1  0.5529170000000  0.5498410000000  0.4424510000000 1.0
C      1  0.5502920000000  0.5391060000000  0.5937320000000 1.0
C      1  0.5112870000000  0.4448600000000  0.4768220000000 1.0
C      1  0.5737910000000  0.5702500000000  0.5537310000000 1.0
C      1  0.5391320000000  0.4756540000000  0.5288600000000 1.0
C      1  0.5115590000000  0.4942610000000  0.4605930000000 1.0
C      1  0.3929360000000  0.5254290000000  0.4480770000000 1.0
C      1  0.5299450000000  0.5207420000000  0.5452970000000 1.0
C      1  0.5031160000000  0.4824300000000  0.5541190000000 1.0
C      1  0.4301690000000  0.4370450000000  0.5629190000000 1.0
C      1  0.5319010000000  0.5364830000000  0.3943190000000 1.0
C      1  0.5142060000000  0.3998360000000  0.4734190000000 1.0
C      1  0.4787620000000  0.4097950000000  0.4327410000000 1.0
C      1  0.5854490000000  0.4484360000000  0.5178150000000 1.0
C      1  0.5204160000000  0.5448460000000  0.5121310000000 1.0
C      1  0.4814170000000  0.4897050000000  0.4348260000000 1.0
C      1  0.4479540000000  0.3979550000000  0.5340970000000 1.0
C      1  0.3884850000000  0.5470610000000  0.4739330000000 1.0
C      1  0.4320380000000  0.6066000000000  0.5111070000000 1.0
C      1  0.4894580000000  0.4119230000000  0.5140670000000 1.0
C      1  0.3938050000000  0.4952500000000  0.4465140000000 1.0
C      1  0.5286250000000  0.6018480000000  0.4981520000000 1.0
C      1  0.4411770000000  0.5350170000000  0.4093280000000 1.0
C      1  0.4484030000000  0.5856060000000  0.4676830000000 1.0
C      1  0.4811400000000  0.4388630000000  0.5023370000000 1.0
C      1  0.5118710000000  0.4857470000000  0.6039970000000 1.0
C      1  0.6209050000000  0.4969340000000  0.4758210000000 1.0
C      1  0.4785020000000  0.5658920000000  0.4319080000000 1.0
C      1  0.5976030000000  0.4741850000000  0.4710130000000 1.0
C      1  0.4998060000000  0.5202540000000  0.5353450000000 1.0
C      1  0.4355050000000  0.4922350000000  0.5156620000000 1.0
C      1  0.5341950000000  0.5128420000000  0.5851240000000 1.0
C      1  0.5074690000000  0.6051170000000  0.4716920000000 1.0
C      1  0.5700380000000  0.5195650000000  0.4750610000000 1.0
C      1  0.3926470000000  0.5182240000000  0.5165150000000 1.0
C      1  0.4564300000000  0.5112930000000  0.4281970000000 1.0
C      1  0.5389840000000  0.4371210000000  0.5523600000000 1.0
C      1  0.4212930000000  0.5307330000000  0.5767640000000 1.0
C      1  0.4840300000000  0.5818580000000  0.5646660000000 1.0
C      1  0.5029850000000  0.3976060000000  0.4482510000000 1.0
C      1  0.4312230000000  0.5252790000000  0.5087220000000 1.0
C      1  0.5161880000000  0.4012310000000  0.4219060000000 1.0
C      1  0.4667260000000  0.4913680000000  0.3896780000000 1.0
C      1  0.5930570000000  0.5686050000000  0.5325110000000 1.0
C      1  0.4742660000000  0.4742830000000  0.4602840000000 1.0
C      1  0.5037180000000  0.5455200000000  0.4316760000000 1.0
C      1  0.4370650000000  0.4583710000000  0.5186310000000 1.0
C      1  0.5766250000000  0.5411350000000  0.4244980000000 1.0
C      1  0.4045990000000  0.4700380000000  0.4331620000000 1.0
C      1  0.5552270000000  0.5475410000000  0.4837820000000 1.0
C      1  0.4525050000000  0.5381020000000  0.5313470000000 1.0
C      1  0.4662800000000  0.5564270000000  0.5743240000000 1.0
C      1  0.6241090000000  0.5135570000000  0.5283380000000 1.0
C      1  0.5830740000000  0.5168860000000  0.5580340000000 1.0
C      1  0.4598110000000  0.3954020000000  0.4193660000000 1.0
C      1  0.4935120000000  0.4662110000000  0.5824450000000 1.0
C      1  0.4544650000000  0.4555990000000  0.4894990000000 1.0
C      1  0.5010270000000  0.3887940000000  0.4953470000000 1.0
C      1  0.4219980000000  0.4837750000000  0.4856200000000 1.0
C      1  0.4617590000000  0.4587830000000  0.5928650000000 1.0
C      1  0.5517070000000  0.4612800000000  0.5670680000000 1.0
C      1  0.4718210000000  0.5423130000000  0.4082770000000 1.0
C      1  0.5082840000000  0.6088470000000  0.5245150000000 1.0
C      1  0.4282200000000  0.4381110000000  0.4649280000000 1.0
C      1  0.5316030000000  0.5628320000000  0.5836410000000 1.0
C      1  0.5737120000000  0.5718210000000  0.4579710000000 1.0
C      1  0.6026370000000  0.4606660000000  0.5441200000000 1.0
C      1  0.4150540000000  0.4522540000000  0.4850170000000 1.0
C      1  0.4674680000000  0.5152880000000  0.4955590000000 1.0
C      1  0.4260110000000  0.5597910000000  0.4186140000000 1.0
C      1  0.4239100000000  0.5950920000000  0.4862490000000 1.0
C      1  0.5655790000000  0.4111090000000  0.4748060000000 1.0
C      1  0.5354070000000  0.4228670000000  0.4818230000000 1.0
C      1  0.4208660000000  0.5036140000000  0.5767010000000 1.0
C      1  0.6077140000000  0.4959780000000  0.5046940000000 1.0
C      1  0.4936520000000  0.5404560000000  0.5619940000000 1.0
C      1  0.4865450000000  0.5833880000000  0.5041120000000 1.0
C      1  0.5814320000000  0.5368710000000  0.5115120000000 1.0
C      1  0.4036780000000  0.4633180000000  0.5144040000000 1.0
C      1  0.3969720000000  0.4969760000000  0.4757310000000 1.0
C      1  0.5268960000000  0.3860760000000  0.5350630000000 1.0
C      1  0.5732250000000  0.5436730000000  0.5717480000000 1.0
C      1  0.4960070000000  0.5187250000000  0.4428060000000 1.0
C      1  0.4863120000000  0.5371920000000  0.4773300000000 1.0
C      1  0.5884070000000  0.5555010000000  0.4839330000000 1.0
C      1  0.5357740000000  0.4903270000000  0.5593490000000 1.0
C      1  0.4415690000000  0.5257920000000  0.4763110000000 1.0
C      1  0.5009870000000  0.4836730000000  0.5199670000000 1.0
C      1  0.4835870000000  0.5930080000000  0.4503300000000 1.0
C      1  0.5186810000000  0.4230070000000  0.5670700000000 1.0
C      1  0.4615980000000  0.5593370000000  0.4847930000000 1.0
END
