TITL C-2848494-1720-172 0.00143907156558368 125000 -976.316615813025 0 0 181 (C1) n - 1
REM
REM in /home/bkarasulu/work/CARBON/AIRSS/Generating-Clusters/AIREBO/with-SteepDescent/Only-C1/SD-CG-opt/Try1-1.4A-POS3A/HFTN-CG
REM
REM
REM
REM
REM
REM ./C.cell (11c1c37f851c82e70ff6c80c92926a4b)
REM
REM compiler GCC version 9.2.1 20190827 (Red Hat 9.2.1-1)
REM options -cpp -mtune=generic -march=x86-64 -g -O0 -fpre-include=/usr/include/finclude/math-vector-fortran.h
REM seed 425519803 -1249417992 -2145802740 1952285872 -1176998305 559607575 1244598934 -1882778715 469042114 -334058797 1162527885 -466059895 342380856 1287661874 -985429908 -1890847564 684731065 -343555904 973141664 -980506833 424567217 -991609362 152102921 -887433363 777575843 -533112245 2088485840 -1872296897 1023178819 679113598 2064812519 -875603877 -323270065
REM
CELL 1.54180   50.00000   50.00000   50.00000   90.00000   90.00000   90.00000
LATT -1
SFAC C  
C      1  0.4597810000000  0.5395540000000  0.4137400000000 1.0
C      1  0.5045890000000  0.4723400000000  0.5557480000000 1.0
C      1  0.4698920000000  0.4027260000000  0.4724830000000 1.0
C      1  0.5075510000000  0.4175330000000  0.5593940000000 1.0
C      1  0.4915990000000  0.5703500000000  0.4643310000000 1.0
C      1  0.4476350000000  0.4406520000000  0.5730310000000 1.0
C      1  0.4686320000000  0.5668680000000  0.4236870000000 1.0
C      1  0.5241850000000  0.5197680000000  0.5738500000000 1.0
C      1  0.5803730000000  0.4947760000000  0.5569290000000 1.0
C      1  0.6057540000000  0.4839440000000  0.5400370000000 1.0
C      1  0.5362400000000  0.4030140000000  0.5482110000000 1.0
C      1  0.5449300000000  0.4803440000000  0.4031510000000 1.0
C      1  0.5170990000000  0.5790420000000  0.4492380000000 1.0
C      1  0.5263940000000  0.5217430000000  0.4979210000000 1.0
C      1  0.5626610000000  0.5203080000000  0.4342050000000 1.0
C      1  0.4538250000000  0.4854020000000  0.4230840000000 1.0
C      1  0.5447530000000  0.4415960000000  0.5539550000000 1.0
C      1  0.5569150000000  0.4335010000000  0.5167720000000 1.0
C      1  0.4671680000000  0.6021410000000  0.4683910000000 1.0
C      1  0.5544380000000  0.5690910000000  0.4189300000000 1.0
C      1  0.4002000000000  0.4733420000000  0.4960380000000 1.0
C      1  0.5062770000000  0.4395600000000  0.4481140000000 1.0
C      1  0.5349240000000  0.5874610000000  0.5229680000000 1.0
C      1  0.5113880000000  0.5209710000000  0.5423300000000 1.0
C      1  0.5077230000000  0.4730140000000  0.5969500000000 1.0
C      1  0.4775240000000  0.5001800000000  0.5070230000000 1.0
C      1  0.4792750000000  0.4451180000000  0.5995730000000 1.0
C      1  0.5762250000000  0.5468650000000  0.4234610000000 1.0
C      1  0.4193690000000  0.5638440000000  0.4853890000000 1.0
C      1  0.5746240000000  0.4253300000000  0.4777760000000 1.0
C      1  0.4837790000000  0.5199530000000  0.5860090000000 1.0
C      1  0.6103270000000  0.4573890000000  0.5375650000000 1.0
C      1  0.4128500000000  0.4547310000000  0.5219190000000 1.0
C      1  0.5847660000000  0.4944620000000  0.4349170000000 1.0
C      1  0.4218110000000  0.5357780000000  0.4425730000000 1.0
C      1  0.5394990000000  0.4497350000000  0.4945690000000 1.0
C      1  0.5674060000000  0.5581860000000  0.5593980000000 1.0
C      1  0.5616770000000  0.4531420000000  0.4056640000000 1.0
C      1  0.5076760000000  0.4451200000000  0.5394980000000 1.0
C      1  0.5495600000000  0.5604920000000  0.5353310000000 1.0
C      1  0.5264720000000  0.4418130000000  0.4208540000000 1.0
C      1  0.4348350000000  0.5445370000000  0.5096070000000 1.0
C      1  0.4741360000000  0.4962430000000  0.4466940000000 1.0
C      1  0.5019070000000  0.5525110000000  0.4913800000000 1.0
C      1  0.5129670000000  0.5978540000000  0.4215720000000 1.0
C      1  0.5073110000000  0.5028710000000  0.5137400000000 1.0
C      1  0.4775180000000  0.6122950000000  0.5069240000000 1.0
C      1  0.4460980000000  0.4177790000000  0.5008640000000 1.0
C      1  0.4863460000000  0.6109060000000  0.5339540000000 1.0
C      1  0.6133350000000  0.5330510000000  0.5029500000000 1.0
C      1  0.3871560000000  0.5135750000000  0.5289650000000 1.0
C      1  0.5865140000000  0.4648020000000  0.5692360000000 1.0
C      1  0.3824860000000  0.5027340000000  0.4970520000000 1.0
C      1  0.4742140000000  0.4800330000000  0.4832440000000 1.0
C      1  0.4632340000000  0.4387370000000  0.5162250000000 1.0
C      1  0.4505610000000  0.4732100000000  0.5636310000000 1.0
C      1  0.4568200000000  0.4561800000000  0.4718750000000 1.0
C      1  0.4525430000000  0.5213200000000  0.4409470000000 1.0
C      1  0.4868530000000  0.4212690000000  0.5865100000000 1.0
C      1  0.5689870000000  0.4594020000000  0.4806490000000 1.0
C      1  0.5587860000000  0.4130600000000  0.5660190000000 1.0
C      1  0.4840560000000  0.5230240000000  0.4028730000000 1.0
C      1  0.4384420000000  0.4661230000000  0.4465710000000 1.0
C      1  0.5716030000000  0.5675330000000  0.4461090000000 1.0
C      1  0.4946320000000  0.4117010000000  0.4324820000000 1.0
C      1  0.5342500000000  0.4721160000000  0.4343980000000 1.0
C      1  0.4365900000000  0.5643370000000  0.5323610000000 1.0
C      1  0.4882020000000  0.5461710000000  0.5413130000000 1.0
C      1  0.5445920000000  0.5245190000000  0.4695920000000 1.0
C      1  0.4681270000000  0.4083480000000  0.4435410000000 1.0
C      1  0.5134150000000  0.5364610000000  0.4631020000000 1.0
C      1  0.4365280000000  0.5892510000000  0.4773200000000 1.0
C      1  0.5599780000000  0.5066160000000  0.4031940000000 1.0
C      1  0.5605170000000  0.5110260000000  0.5156900000000 1.0
C      1  0.4754050000000  0.3845760000000  0.5219890000000 1.0
C      1  0.5100340000000  0.4519310000000  0.3972220000000 1.0
C      1  0.4565190000000  0.5161870000000  0.5928990000000 1.0
C      1  0.4376760000000  0.5382300000000  0.5803870000000 1.0
C      1  0.4590490000000  0.5828450000000  0.5266250000000 1.0
C      1  0.5089320000000  0.5772090000000  0.5660140000000 1.0
C      1  0.5295610000000  0.4902740000000  0.5604140000000 1.0
C      1  0.5200030000000  0.4969330000000  0.5987030000000 1.0
C      1  0.4095570000000  0.4977020000000  0.5626870000000 1.0
C      1  0.4928950000000  0.4376300000000  0.5139200000000 1.0
C      1  0.4051890000000  0.5504360000000  0.4596930000000 1.0
C      1  0.4872680000000  0.5155880000000  0.4680610000000 1.0
C      1  0.3962460000000  0.4994280000000  0.4661320000000 1.0
C      1  0.5464090000000  0.4054950000000  0.5216730000000 1.0
C      1  0.4748300000000  0.5423560000000  0.4547450000000 1.0
C      1  0.4857470000000  0.3971010000000  0.5431500000000 1.0
C      1  0.6016550000000  0.4673700000000  0.4755460000000 1.0
C      1  0.5769990000000  0.4422830000000  0.5534780000000 1.0
C      1  0.3818340000000  0.5302600000000  0.4657950000000 1.0
C      1  0.4813450000000  0.4955290000000  0.4056040000000 1.0
C      1  0.5285200000000  0.4581440000000  0.4648610000000 1.0
C      1  0.4811390000000  0.4682950000000  0.5776690000000 1.0
C      1  0.4396150000000  0.4894760000000  0.5115320000000 1.0
C      1  0.4029870000000  0.4385090000000  0.4726440000000 1.0
C      1  0.5649000000000  0.5850690000000  0.5080260000000 1.0
C      1  0.4022580000000  0.5285800000000  0.4927990000000 1.0
C      1  0.4090500000000  0.4688110000000  0.4634850000000 1.0
C      1  0.3960730000000  0.5400350000000  0.5343010000000 1.0
C      1  0.5564740000000  0.5563990000000  0.4705220000000 1.0
C      1  0.4520270000000  0.5915930000000  0.5753410000000 1.0
C      1  0.4955950000000  0.5726200000000  0.4163940000000 1.0
C      1  0.3966930000000  0.5561900000000  0.5095170000000 1.0
C      1  0.5825580000000  0.5287040000000  0.5584720000000 1.0
C      1  0.5284940000000  0.4336150000000  0.5808180000000 1.0
C      1  0.5450010000000  0.4163610000000  0.4196710000000 1.0
C      1  0.4619560000000  0.3930670000000  0.4986340000000 1.0
C      1  0.4623270000000  0.5595960000000  0.4798790000000 1.0
C      1  0.5022230000000  0.4741240000000  0.4741440000000 1.0
C      1  0.4558620000000  0.4391050000000  0.5436970000000 1.0
C      1  0.5604550000000  0.4910850000000  0.4895790000000 1.0
C      1  0.5538260000000  0.5603830000000  0.5861710000000 1.0
C      1  0.4935290000000  0.4707560000000  0.4414350000000 1.0
C      1  0.5061100000000  0.5443400000000  0.5881550000000 1.0
C      1  0.5363220000000  0.4162500000000  0.4729390000000 1.0
C      1  0.4714430000000  0.5200110000000  0.5405970000000 1.0
C      1  0.5457460000000  0.5090310000000  0.6056810000000 1.0
C      1  0.4219110000000  0.4299970000000  0.4899390000000 1.0
C      1  0.5879050000000  0.4409600000000  0.5212990000000 1.0
C      1  0.5239980000000  0.5902930000000  0.4933170000000 1.0
C      1  0.6113020000000  0.5201530000000  0.4713760000000 1.0
C      1  0.5263320000000  0.5603340000000  0.4252310000000 1.0
C      1  0.4452100000000  0.4952840000000  0.4787900000000 1.0
C      1  0.4408840000000  0.5190110000000  0.5290130000000 1.0
C      1  0.6055270000000  0.5316410000000  0.5365030000000 1.0
C      1  0.4832240000000  0.5576740000000  0.5695700000000 1.0
C      1  0.4560040000000  0.5647610000000  0.5785030000000 1.0
C      1  0.4631250000000  0.6025020000000  0.5519840000000 1.0
C      1  0.5904900000000  0.5027280000000  0.4912370000000 1.0
C      1  0.5421680000000  0.5288490000000  0.5337410000000 1.0
C      1  0.5688390000000  0.4460770000000  0.4313180000000 1.0
C      1  0.5279080000000  0.5690410000000  0.5886970000000 1.0
C      1  0.4251010000000  0.4388990000000  0.4317740000000 1.0
C      1  0.6071400000000  0.5039910000000  0.5188350000000 1.0
C      1  0.5218850000000  0.4492440000000  0.6012310000000 1.0
C      1  0.5571050000000  0.5269990000000  0.5812820000000 1.0
C      1  0.4943070000000  0.5962950000000  0.4861610000000 1.0
C      1  0.4197050000000  0.4720660000000  0.5503540000000 1.0
C      1  0.6007210000000  0.4386210000000  0.4923830000000 1.0
C      1  0.5124680000000  0.4968650000000  0.4305870000000 1.0
C      1  0.4394280000000  0.4571850000000  0.5008490000000 1.0
C      1  0.4822390000000  0.4335540000000  0.4714180000000 1.0
C      1  0.5777750000000  0.5197720000000  0.4646940000000 1.0
C      1  0.5348660000000  0.5777080000000  0.4723890000000 1.0
C      1  0.5240620000000  0.5497960000000  0.5152810000000 1.0
C      1  0.4256730000000  0.5033820000000  0.4521660000000 1.0
C      1  0.5535620000000  0.4907030000000  0.5407940000000 1.0
C      1  0.4903850000000  0.5027660000000  0.5609100000000 1.0
C      1  0.5196950000000  0.4756460000000  0.5042130000000 1.0
C      1  0.5097750000000  0.5309980000000  0.4049080000000 1.0
C      1  0.4489330000000  0.6029800000000  0.5033380000000 1.0
C      1  0.4545030000000  0.5765080000000  0.4514160000000 1.0
C      1  0.5804490000000  0.5375170000000  0.5080230000000 1.0
C      1  0.4493990000000  0.4886170000000  0.5939240000000 1.0
C      1  0.4637190000000  0.4873030000000  0.5354200000000 1.0
C      1  0.4322130000000  0.5260090000000  0.4840280000000 1.0
C      1  0.5277140000000  0.5273820000000  0.4335840000000 1.0
C      1  0.5596970000000  0.4202610000000  0.4485440000000 1.0
C      1  0.6057770000000  0.4897490000000  0.4571390000000 1.0
C      1  0.4728640000000  0.4502500000000  0.4236710000000 1.0
C      1  0.4677690000000  0.4147730000000  0.5622160000000 1.0
C      1  0.4540090000000  0.4314720000000  0.4340870000000 1.0
C      1  0.5711090000000  0.5612780000000  0.4961390000000 1.0
C      1  0.4447560000000  0.5109350000000  0.4031930000000 1.0
C      1  0.5547620000000  0.4018100000000  0.4928640000000 1.0
C      1  0.4237650000000  0.5205600000000  0.5554800000000 1.0
C      1  0.5353490000000  0.4634030000000  0.5318200000000 1.0
C      1  0.5113770000000  0.4314500000000  0.4889320000000 1.0
C      1  0.5709930000000  0.4697210000000  0.4491040000000 1.0
C      1  0.5473610000000  0.4925550000000  0.4582340000000 1.0
C      1  0.5111620000000  0.4824690000000  0.3998080000000 1.0
C      1  0.4655570000000  0.5274050000000  0.4905440000000 1.0
C      1  0.4847050000000  0.4427770000000  0.3989530000000 1.0
C      1  0.3957830000000  0.4825970000000  0.5284610000000 1.0
C      1  0.4192530000000  0.5529690000000  0.5555000000000 1.0
C      1  0.4597610000000  0.4666410000000  0.6113220000000 1.0
C      1  0.5081680000000  0.5887110000000  0.5373830000000 1.0
C      1  0.4887350000000  0.5678180000000  0.5188350000000 1.0
END
