TITL C-2847959-7740-468 -0.00275265696269337 125000 -939.046193426577 0 0 172 (C1) n - 1
REM
REM in /home/bkarasulu/work/CARBON/AIRSS/Generating-Clusters/AIREBO/with-SteepDescent/Only-C1/SD-CG-opt/Try1-1.4A-POS3A/HFTN-CG
REM
REM
REM
REM
REM
REM ./C.cell (11c1c37f851c82e70ff6c80c92926a4b)
REM
REM compiler GCC version 9.2.1 20190827 (Red Hat 9.2.1-1)
REM options -cpp -mtune=generic -march=x86-64 -g -O0 -fpre-include=/usr/include/finclude/math-vector-fortran.h
REM seed -979085472 1310824495 882729237 714194997 -501064855 -1675363278 133924503 -231367744 1844948227 1989038148 1390505827 -838390370 -1159060899 1073068708 975721210 591098801 602603406 -430552980 446917636 -1775407974 -758836606 -572005836 1780557077 1938013508 -1112465702 587592258 -532071589 90873739 610130027 -694010178 -475604797 -982559074 1844896505
REM
CELL 1.54180   50.00000   50.00000   50.00000   90.00000   90.00000   90.00000
LATT -1
SFAC C  
C      1  0.4642840000000  0.5645260000000  0.4501550000000 1.0
C      1  0.4168480000000  0.5059610000000  0.5373720000000 1.0
C      1  0.5341680000000  0.5118870000000  0.5489430000000 1.0
C      1  0.4315130000000  0.4707810000000  0.5596130000000 1.0
C      1  0.4340100000000  0.5913000000000  0.5535160000000 1.0
C      1  0.4596040000000  0.5269250000000  0.5198760000000 1.0
C      1  0.5756600000000  0.5303820000000  0.4447540000000 1.0
C      1  0.5098610000000  0.4919220000000  0.5836690000000 1.0
C      1  0.5460910000000  0.5305850000000  0.5260440000000 1.0
C      1  0.5143970000000  0.4426400000000  0.5688920000000 1.0
C      1  0.5361010000000  0.5127620000000  0.4918170000000 1.0
C      1  0.5824940000000  0.4558310000000  0.4517340000000 1.0
C      1  0.5346910000000  0.5286130000000  0.4004510000000 1.0
C      1  0.4590740000000  0.5231960000000  0.5610620000000 1.0
C      1  0.4843710000000  0.4684100000000  0.3887980000000 1.0
C      1  0.3917750000000  0.5203560000000  0.4749520000000 1.0
C      1  0.5009870000000  0.6142580000000  0.5031690000000 1.0
C      1  0.5241580000000  0.5945020000000  0.5806100000000 1.0
C      1  0.5153580000000  0.4317270000000  0.4820160000000 1.0
C      1  0.4221220000000  0.5936500000000  0.5071850000000 1.0
C      1  0.4445070000000  0.4572840000000  0.4248480000000 1.0
C      1  0.4402430000000  0.4073310000000  0.5104170000000 1.0
C      1  0.6034200000000  0.4960730000000  0.5089550000000 1.0
C      1  0.5204560000000  0.4634520000000  0.4456840000000 1.0
C      1  0.5123630000000  0.4247280000000  0.4041690000000 1.0
C      1  0.4262450000000  0.5026240000000  0.5703350000000 1.0
C      1  0.5308290000000  0.5447110000000  0.4247410000000 1.0
C      1  0.4627170000000  0.6024960000000  0.5429150000000 1.0
C      1  0.4818610000000  0.4076200000000  0.4495630000000 1.0
C      1  0.4873670000000  0.4042110000000  0.5293230000000 1.0
C      1  0.4539500000000  0.4115330000000  0.4440480000000 1.0
C      1  0.3947800000000  0.5436070000000  0.4625220000000 1.0
C      1  0.3918200000000  0.4631650000000  0.5030670000000 1.0
C      1  0.4528560000000  0.5877830000000  0.4388350000000 1.0
C      1  0.4774030000000  0.4534710000000  0.4165260000000 1.0
C      1  0.5200470000000  0.5392470000000  0.4917790000000 1.0
C      1  0.4872320000000  0.5453340000000  0.4025820000000 1.0
C      1  0.4676240000000  0.4786330000000  0.4334600000000 1.0
C      1  0.5819070000000  0.4855070000000  0.5882370000000 1.0
C      1  0.5429260000000  0.4476390000000  0.5846110000000 1.0
C      1  0.5362600000000  0.4087290000000  0.5127280000000 1.0
C      1  0.5185770000000  0.3980790000000  0.4857080000000 1.0
C      1  0.5346480000000  0.5073450000000  0.4599730000000 1.0
C      1  0.4421400000000  0.3999570000000  0.4804230000000 1.0
C      1  0.4310040000000  0.4400190000000  0.5698300000000 1.0
C      1  0.4474300000000  0.5221540000000  0.4909490000000 1.0
C      1  0.4367730000000  0.4492750000000  0.4815180000000 1.0
C      1  0.5868860000000  0.4460590000000  0.4805250000000 1.0
C      1  0.4208950000000  0.5476420000000  0.4528510000000 1.0
C      1  0.5515650000000  0.5949480000000  0.4787200000000 1.0
C      1  0.4894670000000  0.5044130000000  0.6078400000000 1.0
C      1  0.4244040000000  0.5618080000000  0.5447230000000 1.0
C      1  0.5926510000000  0.5297460000000  0.5931990000000 1.0
C      1  0.4861760000000  0.4026530000000  0.4806900000000 1.0
C      1  0.4241940000000  0.4646780000000  0.5040640000000 1.0
C      1  0.4634330000000  0.4984550000000  0.5943750000000 1.0
C      1  0.4625830000000  0.4271390000000  0.4812890000000 1.0
C      1  0.4775160000000  0.4703870000000  0.3643320000000 1.0
C      1  0.4420690000000  0.4387520000000  0.4492760000000 1.0
C      1  0.4375420000000  0.6017460000000  0.4572560000000 1.0
C      1  0.5415290000000  0.5565170000000  0.4741220000000 1.0
C      1  0.5461990000000  0.4095890000000  0.4711510000000 1.0
C      1  0.5347790000000  0.4770360000000  0.5696600000000 1.0
C      1  0.3862220000000  0.4940240000000  0.4916660000000 1.0
C      1  0.5887640000000  0.4837490000000  0.4508520000000 1.0
C      1  0.5301410000000  0.5949400000000  0.5026720000000 1.0
C      1  0.5009940000000  0.4938280000000  0.5023560000000 1.0
C      1  0.5163950000000  0.5874960000000  0.5328680000000 1.0
C      1  0.5552670000000  0.5118380000000  0.3932240000000 1.0
C      1  0.5556310000000  0.5704590000000  0.5544920000000 1.0
C      1  0.5451870000000  0.5347120000000  0.4492450000000 1.0
C      1  0.5558080000000  0.4840970000000  0.4733040000000 1.0
C      1  0.5610440000000  0.4745820000000  0.5397010000000 1.0
C      1  0.4857380000000  0.5878770000000  0.5481220000000 1.0
C      1  0.5373310000000  0.5911500000000  0.5547720000000 1.0
C      1  0.5316430000000  0.6025040000000  0.4555980000000 1.0
C      1  0.4342040000000  0.4524720000000  0.5321920000000 1.0
C      1  0.4962590000000  0.4438530000000  0.4409870000000 1.0
C      1  0.5096750000000  0.4243410000000  0.5206520000000 1.0
C      1  0.5610710000000  0.4979640000000  0.5644090000000 1.0
C      1  0.4218640000000  0.4266750000000  0.5190900000000 1.0
C      1  0.5742110000000  0.5291930000000  0.5674120000000 1.0
C      1  0.5922260000000  0.5050290000000  0.6058580000000 1.0
C      1  0.5645740000000  0.4195450000000  0.5195390000000 1.0
C      1  0.5694760000000  0.5169210000000  0.4968350000000 1.0
C      1  0.5708470000000  0.5725800000000  0.4695400000000 1.0
C      1  0.4407170000000  0.5287910000000  0.4090760000000 1.0
C      1  0.5987030000000  0.5278820000000  0.5107320000000 1.0
C      1  0.5444370000000  0.4556760000000  0.4663180000000 1.0
C      1  0.4926100000000  0.5329400000000  0.4726680000000 1.0
C      1  0.6066080000000  0.5426940000000  0.4828540000000 1.0
C      1  0.4899650000000  0.4479800000000  0.5081160000000 1.0
C      1  0.5621850000000  0.4934470000000  0.4128920000000 1.0
C      1  0.4562230000000  0.4670830000000  0.4617010000000 1.0
C      1  0.5699630000000  0.5618610000000  0.5321970000000 1.0
C      1  0.5550050000000  0.4461030000000  0.4359550000000 1.0
C      1  0.4267210000000  0.5325300000000  0.5561510000000 1.0
C      1  0.4177690000000  0.5012530000000  0.4753100000000 1.0
C      1  0.5663190000000  0.4341220000000  0.5720480000000 1.0
C      1  0.5181600000000  0.5338220000000  0.5658390000000 1.0
C      1  0.4937840000000  0.4797380000000  0.4749500000000 1.0
C      1  0.5171200000000  0.4484560000000  0.3977940000000 1.0
C      1  0.4043060000000  0.4857030000000  0.4183520000000 1.0
C      1  0.4375030000000  0.5861530000000  0.4837270000000 1.0
C      1  0.4785430000000  0.5661850000000  0.5733190000000 1.0
C      1  0.5479410000000  0.5474220000000  0.5750560000000 1.0
C      1  0.5069460000000  0.5205350000000  0.4037190000000 1.0
C      1  0.4270540000000  0.5363770000000  0.3871980000000 1.0
C      1  0.5101400000000  0.5665400000000  0.5704930000000 1.0
C      1  0.4676370000000  0.5227180000000  0.4089670000000 1.0
C      1  0.5254690000000  0.5572230000000  0.5201370000000 1.0
C      1  0.4398340000000  0.5039080000000  0.4511380000000 1.0
C      1  0.4727800000000  0.5119750000000  0.4545430000000 1.0
C      1  0.4979650000000  0.4665890000000  0.5981220000000 1.0
C      1  0.5105030000000  0.4154450000000  0.4343700000000 1.0
C      1  0.5865340000000  0.4926250000000  0.4802710000000 1.0
C      1  0.6114110000000  0.4856970000000  0.5385920000000 1.0
C      1  0.5002500000000  0.5817360000000  0.4932480000000 1.0
C      1  0.5401840000000  0.4187010000000  0.4444060000000 1.0
C      1  0.5081380000000  0.4785270000000  0.4109320000000 1.0
C      1  0.5183220000000  0.5775610000000  0.4651680000000 1.0
C      1  0.4606740000000  0.4832990000000  0.5656660000000 1.0
C      1  0.5889230000000  0.5510800000000  0.4617110000000 1.0
C      1  0.5796490000000  0.5033200000000  0.4333110000000 1.0
C      1  0.4648330000000  0.4812990000000  0.5133210000000 1.0
C      1  0.4711800000000  0.5456180000000  0.5916550000000 1.0
C      1  0.4292500000000  0.4980850000000  0.5066900000000 1.0
C      1  0.4891200000000  0.5538170000000  0.4502300000000 1.0
C      1  0.5230350000000  0.5413970000000  0.5986330000000 1.0
C      1  0.4624110000000  0.4440610000000  0.5591610000000 1.0
C      1  0.4699030000000  0.3992120000000  0.5089260000000 1.0
C      1  0.3960430000000  0.4325350000000  0.5112130000000 1.0
C      1  0.5836200000000  0.4198080000000  0.5853690000000 1.0
C      1  0.4649170000000  0.4531260000000  0.5262950000000 1.0
C      1  0.5185110000000  0.4509400000000  0.6075780000000 1.0
C      1  0.4899250000000  0.5159350000000  0.5700830000000 1.0
C      1  0.5405040000000  0.4721300000000  0.4195670000000 1.0
C      1  0.3937710000000  0.4904410000000  0.5234730000000 1.0
C      1  0.6076970000000  0.4649210000000  0.4998230000000 1.0
C      1  0.4710470000000  0.5008230000000  0.5384240000000 1.0
C      1  0.4938030000000  0.4509970000000  0.5536410000000 1.0
C      1  0.4357890000000  0.6096280000000  0.5266150000000 1.0
C      1  0.4282350000000  0.4834200000000  0.4288450000000 1.0
C      1  0.4875080000000  0.5534610000000  0.5100910000000 1.0
C      1  0.5561490000000  0.4354400000000  0.4906820000000 1.0
C      1  0.4890520000000  0.4470230000000  0.4741300000000 1.0
C      1  0.5040330000000  0.5529100000000  0.4270040000000 1.0
C      1  0.5015220000000  0.5518070000000  0.5410750000000 1.0
C      1  0.4361580000000  0.3896260000000  0.4536070000000 1.0
C      1  0.5098700000000  0.4923870000000  0.4517010000000 1.0
C      1  0.4736800000000  0.4606290000000  0.5866320000000 1.0
C      1  0.5867270000000  0.4446320000000  0.5144980000000 1.0
C      1  0.5007860000000  0.4726010000000  0.5289190000000 1.0
C      1  0.5941650000000  0.4863310000000  0.5587350000000 1.0
C      1  0.4941230000000  0.5333810000000  0.6058300000000 1.0
C      1  0.4679000000000  0.5719970000000  0.4893710000000 1.0
C      1  0.5045680000000  0.5016790000000  0.5448460000000 1.0
C      1  0.4073890000000  0.5739420000000  0.5203140000000 1.0
C      1  0.5600340000000  0.5500690000000  0.5019170000000 1.0
C      1  0.5707350000000  0.4429290000000  0.5437540000000 1.0
C      1  0.4872860000000  0.5201510000000  0.5032810000000 1.0
C      1  0.5875270000000  0.5389810000000  0.5385170000000 1.0
C      1  0.4893860000000  0.5023150000000  0.4264420000000 1.0
C      1  0.4518990000000  0.5507680000000  0.5318160000000 1.0
C      1  0.4299020000000  0.5285010000000  0.4345800000000 1.0
C      1  0.4441090000000  0.5249510000000  0.5910490000000 1.0
C      1  0.5301710000000  0.4794400000000  0.4951550000000 1.0
C      1  0.5636350000000  0.5014760000000  0.5247880000000 1.0
C      1  0.5298210000000  0.4485670000000  0.5077730000000 1.0
C      1  0.4634860000000  0.4936500000000  0.4816500000000 1.0
C      1  0.5318790000000  0.4628050000000  0.5385850000000 1.0
C      1  0.4445010000000  0.5520400000000  0.4748380000000 1.0
END
