TITL C-2847959-7740-18 0.000370757724439128 125000 -724.734542095211 0 0 128 (C1) n - 1
REM
REM in /home/bkarasulu/work/CARBON/AIRSS/Generating-Clusters/AIREBO/with-SteepDescent/Only-C1/SD-CG-opt/Try1-1.4A-POS3A/HFTN-CG
REM
REM
REM
REM
REM
REM ./C.cell (11c1c37f851c82e70ff6c80c92926a4b)
REM
REM compiler GCC version 9.2.1 20190827 (Red Hat 9.2.1-1)
REM options -cpp -mtune=generic -march=x86-64 -g -O0 -fpre-include=/usr/include/finclude/math-vector-fortran.h
REM seed 1557436783 1430863341 351113892 -1454849684 1457311817 1904537687 907288057 -696629241 1253107417 1637241764 -38415984 -1115466810 468526555 -1570786467 2016441439 1941747677 844255391 -1730585554 56596018 -1181182065 1279847323 1246970003 -770122016 1136149506 683092730 -333698907 586910769 -658872155 -261668194 -76684659 446247600 -760941324 -961236162
REM
CELL 1.54180   50.00000   50.00000   50.00000   90.00000   90.00000   90.00000
LATT -1
SFAC C  
C      1  0.4811440000000  0.5250510000000  0.5409400000000 1.0
C      1  0.5515680000000  0.5182850000000  0.4125240000000 1.0
C      1  0.4730260000000  0.5135520000000  0.3966760000000 1.0
C      1  0.5990310000000  0.5283820000000  0.5092920000000 1.0
C      1  0.5023540000000  0.4969680000000  0.4159510000000 1.0
C      1  0.5167080000000  0.4223870000000  0.4563980000000 1.0
C      1  0.5057610000000  0.5409270000000  0.5234760000000 1.0
C      1  0.4349750000000  0.5885660000000  0.5440320000000 1.0
C      1  0.4524490000000  0.5591780000000  0.4630310000000 1.0
C      1  0.4319810000000  0.5132540000000  0.4280090000000 1.0
C      1  0.5205100000000  0.5190960000000  0.5430800000000 1.0
C      1  0.5547000000000  0.5267000000000  0.4922910000000 1.0
C      1  0.5660130000000  0.5457250000000  0.4466800000000 1.0
C      1  0.4460400000000  0.4884790000000  0.4468100000000 1.0
C      1  0.5938650000000  0.5305650000000  0.5359940000000 1.0
C      1  0.5212360000000  0.4540630000000  0.4319740000000 1.0
C      1  0.5278790000000  0.5372360000000  0.4384720000000 1.0
C      1  0.5376060000000  0.4207530000000  0.5149050000000 1.0
C      1  0.5607380000000  0.5307060000000  0.5688760000000 1.0
C      1  0.5350850000000  0.5705200000000  0.4418000000000 1.0
C      1  0.5617490000000  0.5744430000000  0.4571700000000 1.0
C      1  0.4792300000000  0.4802080000000  0.3991070000000 1.0
C      1  0.5312520000000  0.4969100000000  0.4210390000000 1.0
C      1  0.4657880000000  0.4631370000000  0.4579860000000 1.0
C      1  0.5154580000000  0.4769790000000  0.5953160000000 1.0
C      1  0.5530520000000  0.4844620000000  0.5646440000000 1.0
C      1  0.4206310000000  0.5262250000000  0.4829480000000 1.0
C      1  0.4643750000000  0.3922070000000  0.4982200000000 1.0
C      1  0.5222520000000  0.5328580000000  0.4062800000000 1.0
C      1  0.5407450000000  0.5426840000000  0.4691830000000 1.0
C      1  0.4708600000000  0.5040210000000  0.4292480000000 1.0
C      1  0.4472870000000  0.5281480000000  0.4507400000000 1.0
C      1  0.4751180000000  0.4357830000000  0.4303890000000 1.0
C      1  0.5440570000000  0.4952000000000  0.4700990000000 1.0
C      1  0.4248840000000  0.5014140000000  0.4701140000000 1.0
C      1  0.5855900000000  0.5952300000000  0.4945050000000 1.0
C      1  0.5263300000000  0.4905930000000  0.5714710000000 1.0
C      1  0.4931780000000  0.5729340000000  0.4381210000000 1.0
C      1  0.4537920000000  0.5542140000000  0.5776910000000 1.0
C      1  0.4249550000000  0.4921090000000  0.5555440000000 1.0
C      1  0.4918010000000  0.5523030000000  0.5897210000000 1.0
C      1  0.4919260000000  0.5064400000000  0.4991130000000 1.0
C      1  0.3967660000000  0.4665610000000  0.5158670000000 1.0
C      1  0.5702530000000  0.5224880000000  0.4331730000000 1.0
C      1  0.5216130000000  0.5619430000000  0.5118000000000 1.0
C      1  0.4609440000000  0.4473260000000  0.5486040000000 1.0
C      1  0.5262990000000  0.5002760000000  0.5184370000000 1.0
C      1  0.5687040000000  0.4723390000000  0.4322930000000 1.0
C      1  0.3705630000000  0.4708310000000  0.5171440000000 1.0
C      1  0.4569420000000  0.4806860000000  0.5538130000000 1.0
C      1  0.4260010000000  0.4288400000000  0.5020990000000 1.0
C      1  0.4507450000000  0.5284320000000  0.5742460000000 1.0
C      1  0.4207940000000  0.5495480000000  0.4645690000000 1.0
C      1  0.5420400000000  0.5944760000000  0.5227450000000 1.0
C      1  0.5299850000000  0.5325710000000  0.5685210000000 1.0
C      1  0.4548530000000  0.5714250000000  0.5401220000000 1.0
C      1  0.5150750000000  0.4488270000000  0.5897430000000 1.0
C      1  0.4528230000000  0.4021730000000  0.5704310000000 1.0
C      1  0.5215400000000  0.4368470000000  0.5649820000000 1.0
C      1  0.5078450000000  0.5296040000000  0.5898710000000 1.0
C      1  0.4653580000000  0.5058560000000  0.4687500000000 1.0
C      1  0.4908660000000  0.4554620000000  0.5438920000000 1.0
C      1  0.4281900000000  0.5142750000000  0.5297120000000 1.0
C      1  0.4736690000000  0.5946820000000  0.4883620000000 1.0
C      1  0.5040440000000  0.4289940000000  0.4304210000000 1.0
C      1  0.4513450000000  0.4956690000000  0.5262330000000 1.0
C      1  0.5011730000000  0.5982260000000  0.4851620000000 1.0
C      1  0.4298900000000  0.4127580000000  0.5234430000000 1.0
C      1  0.5185480000000  0.5069820000000  0.4509360000000 1.0
C      1  0.4178610000000  0.4699900000000  0.5345070000000 1.0
C      1  0.5887660000000  0.4705100000000  0.4711850000000 1.0
C      1  0.5127290000000  0.5877690000000  0.4579160000000 1.0
C      1  0.5037900000000  0.4064630000000  0.4754950000000 1.0
C      1  0.5025480000000  0.4929380000000  0.5505990000000 1.0
C      1  0.6135680000000  0.5267260000000  0.4817810000000 1.0
C      1  0.4782920000000  0.5711850000000  0.5645860000000 1.0
C      1  0.4694960000000  0.4081120000000  0.5211890000000 1.0
C      1  0.4326030000000  0.4601370000000  0.4336520000000 1.0
C      1  0.4836920000000  0.4540040000000  0.5047710000000 1.0
C      1  0.4413080000000  0.4569580000000  0.5259740000000 1.0
C      1  0.4689110000000  0.4974430000000  0.5986540000000 1.0
C      1  0.4610640000000  0.4921940000000  0.4981720000000 1.0
C      1  0.5238450000000  0.5652100000000  0.4797020000000 1.0
C      1  0.4880200000000  0.5220450000000  0.4505810000000 1.0
C      1  0.5359470000000  0.4197940000000  0.5437100000000 1.0
C      1  0.4990340000000  0.5030280000000  0.5978880000000 1.0
C      1  0.4356700000000  0.4753670000000  0.4830860000000 1.0
C      1  0.5745310000000  0.4968750000000  0.4551070000000 1.0
C      1  0.5817270000000  0.5148670000000  0.4830550000000 1.0
C      1  0.5243220000000  0.4575250000000  0.5381350000000 1.0
C      1  0.5464690000000  0.4668780000000  0.4848770000000 1.0
C      1  0.5432460000000  0.4699060000000  0.4230050000000 1.0
C      1  0.4392450000000  0.5007090000000  0.5834490000000 1.0
C      1  0.5731910000000  0.5464550000000  0.5486200000000 1.0
C      1  0.4282750000000  0.5339100000000  0.5099360000000 1.0
C      1  0.5671200000000  0.5774430000000  0.4847450000000 1.0
C      1  0.5531090000000  0.5664920000000  0.5360200000000 1.0
C      1  0.4573080000000  0.5734610000000  0.4887280000000 1.0
C      1  0.5062550000000  0.4753450000000  0.4532230000000 1.0
C      1  0.5097980000000  0.5786820000000  0.5657720000000 1.0
C      1  0.5178290000000  0.5940000000000  0.5066660000000 1.0
C      1  0.5296040000000  0.4429970000000  0.4694570000000 1.0
C      1  0.4748980000000  0.5052410000000  0.5661040000000 1.0
C      1  0.4750170000000  0.4050210000000  0.4747200000000 1.0
C      1  0.4909850000000  0.4820090000000  0.5226420000000 1.0
C      1  0.4905260000000  0.4256010000000  0.5152050000000 1.0
C      1  0.5535590000000  0.4624650000000  0.5482090000000 1.0
C      1  0.4751100000000  0.5334310000000  0.5108140000000 1.0
C      1  0.4460850000000  0.4357680000000  0.4367510000000 1.0
C      1  0.4535730000000  0.5550320000000  0.5123980000000 1.0
C      1  0.4534140000000  0.4166720000000  0.5469060000000 1.0
C      1  0.4833120000000  0.4661650000000  0.4298080000000 1.0
C      1  0.5070030000000  0.4635140000000  0.4844450000000 1.0
C      1  0.4133260000000  0.4549980000000  0.4948100000000 1.0
C      1  0.5593370000000  0.4415510000000  0.5036010000000 1.0
C      1  0.5234330000000  0.5135010000000  0.4900110000000 1.0
C      1  0.5131900000000  0.4139260000000  0.5020430000000 1.0
C      1  0.4974460000000  0.5300480000000  0.3931210000000 1.0
C      1  0.5543310000000  0.5571230000000  0.5039000000000 1.0
C      1  0.5819060000000  0.4488670000000  0.4813170000000 1.0
C      1  0.5965380000000  0.5070300000000  0.5532250000000 1.0
C      1  0.5711460000000  0.4502370000000  0.5318370000000 1.0
C      1  0.4601030000000  0.4308680000000  0.4670890000000 1.0
C      1  0.5312840000000  0.5628800000000  0.5588430000000 1.0
C      1  0.5719950000000  0.5044400000000  0.5684660000000 1.0
C      1  0.4527620000000  0.4487510000000  0.4950270000000 1.0
C      1  0.5272710000000  0.4708410000000  0.5109710000000 1.0
C      1  0.4794300000000  0.5516100000000  0.4482620000000 1.0
END
