TITL C-2848506-1665-145 -0.00263900378418233 125000 -856.145601432508 0 0 162 (C1) n - 1
REM
REM in /home/bkarasulu/work/CARBON/AIRSS/Generating-Clusters/AIREBO/with-SteepDescent/Only-C1/SD-CG-opt/Try1-1.4A-POS3A/HFTN-CG
REM
REM
REM
REM
REM
REM ./C.cell (11c1c37f851c82e70ff6c80c92926a4b)
REM
REM compiler GCC version 9.2.1 20190827 (Red Hat 9.2.1-1)
REM options -cpp -mtune=generic -march=x86-64 -g -O0 -fpre-include=/usr/include/finclude/math-vector-fortran.h
REM seed -438018617 540014784 -1164515165 -1548451167 -69525321 -1540696480 -919678070 -1803593689 -581968359 1163306561 -1275745240 1762582888 940522598 -207045087 -711583247 437546201 -2138589925 1024164382 128199049 -1352701016 423223870 -174636062 1803450498 -925374847 1493115983 -39424411 -238021877 1420262659 -460445140 -1533893000 -437350997 -818565316 -430107979
REM
CELL 1.54180   50.00000   50.00000   50.00000   90.00000   90.00000   90.00000
LATT -1
SFAC C  
C      1  0.5069960000000  0.6052370000000  0.4611470000000 1.0
C      1  0.5379000000000  0.5097800000000  0.3933520000000 1.0
C      1  0.4882930000000  0.4259310000000  0.5885330000000 1.0
C      1  0.5799510000000  0.5413370000000  0.4769810000000 1.0
C      1  0.5160030000000  0.4367580000000  0.4283840000000 1.0
C      1  0.5149110000000  0.4618330000000  0.4054290000000 1.0
C      1  0.5110190000000  0.5508220000000  0.6140030000000 1.0
C      1  0.5562730000000  0.5027930000000  0.5012060000000 1.0
C      1  0.4694010000000  0.4448800000000  0.5439020000000 1.0
C      1  0.5104040000000  0.5679830000000  0.4746620000000 1.0
C      1  0.4745700000000  0.4880400000000  0.4882080000000 1.0
C      1  0.4501030000000  0.5066780000000  0.4542520000000 1.0
C      1  0.5422950000000  0.4538470000000  0.4766330000000 1.0
C      1  0.4138170000000  0.4373790000000  0.4724290000000 1.0
C      1  0.5845250000000  0.4774740000000  0.5404800000000 1.0
C      1  0.5414760000000  0.4818670000000  0.4124420000000 1.0
C      1  0.4828710000000  0.4476450000000  0.4638530000000 1.0
C      1  0.5874460000000  0.4495340000000  0.4981300000000 1.0
C      1  0.4661490000000  0.4509710000000  0.5899640000000 1.0
C      1  0.4132060000000  0.5260560000000  0.4403390000000 1.0
C      1  0.4544960000000  0.5536740000000  0.4135150000000 1.0
C      1  0.4381430000000  0.4146510000000  0.5112870000000 1.0
C      1  0.5781580000000  0.4817550000000  0.5795260000000 1.0
C      1  0.5937720000000  0.5132890000000  0.4737610000000 1.0
C      1  0.5093230000000  0.4291970000000  0.5675710000000 1.0
C      1  0.4147740000000  0.5406030000000  0.4686040000000 1.0
C      1  0.4351300000000  0.4788720000000  0.5386730000000 1.0
C      1  0.4626280000000  0.3994500000000  0.5091600000000 1.0
C      1  0.5127030000000  0.5100120000000  0.5761120000000 1.0
C      1  0.4390070000000  0.4402280000000  0.5293860000000 1.0
C      1  0.4023510000000  0.4939490000000  0.5146550000000 1.0
C      1  0.5641600000000  0.5728270000000  0.5683520000000 1.0
C      1  0.4811290000000  0.5610210000000  0.4835860000000 1.0
C      1  0.5199500000000  0.4003030000000  0.4970710000000 1.0
C      1  0.4779000000000  0.5877140000000  0.4627710000000 1.0
C      1  0.5198650000000  0.5448430000000  0.5057450000000 1.0
C      1  0.4693950000000  0.5011360000000  0.3931930000000 1.0
C      1  0.5154410000000  0.5249860000000  0.4510730000000 1.0
C      1  0.4359510000000  0.4556220000000  0.5000740000000 1.0
C      1  0.4732460000000  0.4577540000000  0.5142230000000 1.0
C      1  0.5364050000000  0.5320460000000  0.4099100000000 1.0
C      1  0.4443500000000  0.5557310000000  0.5120560000000 1.0
C      1  0.4793550000000  0.4801410000000  0.5865290000000 1.0
C      1  0.4804160000000  0.5174110000000  0.5703220000000 1.0
C      1  0.5518210000000  0.5441560000000  0.4941220000000 1.0
C      1  0.5586800000000  0.5001470000000  0.5965090000000 1.0
C      1  0.4085690000000  0.5479040000000  0.5012330000000 1.0
C      1  0.5008120000000  0.4583850000000  0.5546750000000 1.0
C      1  0.4955860000000  0.4800440000000  0.4411490000000 1.0
C      1  0.5266040000000  0.4614790000000  0.5326510000000 1.0
C      1  0.4780920000000  0.5048030000000  0.5287920000000 1.0
C      1  0.5427860000000  0.4731820000000  0.5050550000000 1.0
C      1  0.5687550000000  0.5510500000000  0.4481230000000 1.0
C      1  0.5033510000000  0.4704090000000  0.5095000000000 1.0
C      1  0.5237370000000  0.4068220000000  0.4243020000000 1.0
C      1  0.5772730000000  0.5280030000000  0.4241040000000 1.0
C      1  0.4511660000000  0.4352970000000  0.4202450000000 1.0
C      1  0.5054980000000  0.4125140000000  0.5420080000000 1.0
C      1  0.5478320000000  0.5728760000000  0.4375120000000 1.0
C      1  0.5520060000000  0.4235380000000  0.5248270000000 1.0
C      1  0.4904670000000  0.5127260000000  0.4981160000000 1.0
C      1  0.5864690000000  0.4969800000000  0.4962310000000 1.0
C      1  0.4715090000000  0.4334970000000  0.4904120000000 1.0
C      1  0.6162590000000  0.4894450000000  0.5380250000000 1.0
C      1  0.5003480000000  0.5866490000000  0.5331830000000 1.0
C      1  0.4282910000000  0.4830260000000  0.4509050000000 1.0
C      1  0.4621040000000  0.4706250000000  0.3922370000000 1.0
C      1  0.4943440000000  0.5546500000000  0.5232620000000 1.0
C      1  0.4803160000000  0.6042360000000  0.5466860000000 1.0
C      1  0.5561420000000  0.4857010000000  0.4532340000000 1.0
C      1  0.5398340000000  0.4368580000000  0.5774650000000 1.0
C      1  0.4456210000000  0.5402250000000  0.4587260000000 1.0
C      1  0.5204150000000  0.4888770000000  0.4866100000000 1.0
C      1  0.4982910000000  0.5273260000000  0.5431230000000 1.0
C      1  0.3973750000000  0.4992320000000  0.4813920000000 1.0
C      1  0.5413120000000  0.5731260000000  0.4878650000000 1.0
C      1  0.5287830000000  0.4071180000000  0.5248940000000 1.0
C      1  0.4927150000000  0.5621330000000  0.4217040000000 1.0
C      1  0.4604180000000  0.5646890000000  0.4450950000000 1.0
C      1  0.4498200000000  0.5973380000000  0.5413490000000 1.0
C      1  0.5871340000000  0.5344950000000  0.5561210000000 1.0
C      1  0.4669680000000  0.4773740000000  0.4593690000000 1.0
C      1  0.5467650000000  0.4511880000000  0.4271210000000 1.0
C      1  0.4533930000000  0.5205430000000  0.4095030000000 1.0
C      1  0.5924140000000  0.4735600000000  0.5102800000000 1.0
C      1  0.5335710000000  0.5873990000000  0.4590670000000 1.0
C      1  0.5128120000000  0.5554620000000  0.4468830000000 1.0
C      1  0.5037740000000  0.5624480000000  0.6355370000000 1.0
C      1  0.5615920000000  0.4464540000000  0.4504460000000 1.0
C      1  0.5309680000000  0.5494840000000  0.5375560000000 1.0
C      1  0.5426220000000  0.4958760000000  0.5682870000000 1.0
C      1  0.5154840000000  0.4380660000000  0.4628750000000 1.0
C      1  0.5722680000000  0.4951990000000  0.4180000000000 1.0
C      1  0.4647280000000  0.4080610000000  0.4688890000000 1.0
C      1  0.4570780000000  0.5471530000000  0.5828250000000 1.0
C      1  0.5807480000000  0.5519230000000  0.5326980000000 1.0
C      1  0.4602340000000  0.5335240000000  0.5323200000000 1.0
C      1  0.4506730000000  0.4829240000000  0.5105410000000 1.0
C      1  0.4719310000000  0.5060180000000  0.6003170000000 1.0
C      1  0.4697620000000  0.6041470000000  0.5143630000000 1.0
C      1  0.4709540000000  0.5719260000000  0.5104270000000 1.0
C      1  0.4479310000000  0.5164600000000  0.5054920000000 1.0
C      1  0.4096870000000  0.4591620000000  0.5327030000000 1.0
C      1  0.5244610000000  0.4700400000000  0.6088580000000 1.0
C      1  0.5100550000000  0.4409410000000  0.4958530000000 1.0
C      1  0.4923010000000  0.6023760000000  0.4905360000000 1.0
C      1  0.4271930000000  0.5094730000000  0.4210320000000 1.0
C      1  0.4440920000000  0.5679970000000  0.5434800000000 1.0
C      1  0.5062050000000  0.5529810000000  0.5613560000000 1.0
C      1  0.5420720000000  0.5894380000000  0.5126070000000 1.0
C      1  0.5840530000000  0.4656850000000  0.4532630000000 1.0
C      1  0.5437130000000  0.4839910000000  0.6176090000000 1.0
C      1  0.5584520000000  0.4415780000000  0.5461740000000 1.0
C      1  0.4670560000000  0.6087760000000  0.4113450000000 1.0
C      1  0.4182290000000  0.5177180000000  0.5009090000000 1.0
C      1  0.5941350000000  0.5040470000000  0.5593910000000 1.0
C      1  0.4424960000000  0.4593690000000  0.4084860000000 1.0
C      1  0.5682950000000  0.4553810000000  0.5756480000000 1.0
C      1  0.5104360000000  0.4765480000000  0.5817790000000 1.0
C      1  0.5177110000000  0.5199370000000  0.4846310000000 1.0
C      1  0.5147650000000  0.4328020000000  0.3911900000000 1.0
C      1  0.4404140000000  0.4885570000000  0.5829620000000 1.0
C      1  0.4898960000000  0.4785440000000  0.4082300000000 1.0
C      1  0.5479670000000  0.5250580000000  0.4411240000000 1.0
C      1  0.4020590000000  0.4690830000000  0.4677520000000 1.0
C      1  0.4170300000000  0.4175920000000  0.4910420000000 1.0
C      1  0.5888400000000  0.5523710000000  0.5067820000000 1.0
C      1  0.4618250000000  0.4145720000000  0.4429330000000 1.0
C      1  0.4505230000000  0.4653630000000  0.5634150000000 1.0
C      1  0.4772900000000  0.4827650000000  0.5517220000000 1.0
C      1  0.5537040000000  0.4752000000000  0.5443740000000 1.0
C      1  0.5406030000000  0.4090540000000  0.4806640000000 1.0
C      1  0.4829020000000  0.5156400000000  0.4542630000000 1.0
C      1  0.5540410000000  0.5113380000000  0.4716360000000 1.0
C      1  0.5247610000000  0.4765080000000  0.4583050000000 1.0
C      1  0.4628550000000  0.3825970000000  0.4843020000000 1.0
C      1  0.4779750000000  0.5332870000000  0.4279380000000 1.0
C      1  0.4049930000000  0.4913240000000  0.5458570000000 1.0
C      1  0.4404440000000  0.4581730000000  0.4685540000000 1.0
C      1  0.4722210000000  0.5538980000000  0.5569070000000 1.0
C      1  0.5502790000000  0.5260010000000  0.5221390000000 1.0
C      1  0.4925630000000  0.4155780000000  0.5102520000000 1.0
C      1  0.5107900000000  0.4974630000000  0.5287190000000 1.0
C      1  0.4634900000000  0.4223120000000  0.6081060000000 1.0
C      1  0.4204090000000  0.5450630000000  0.5330500000000 1.0
C      1  0.5873510000000  0.4982690000000  0.4483180000000 1.0
C      1  0.5157790000000  0.6001570000000  0.5139360000000 1.0
C      1  0.5342470000000  0.5099560000000  0.5421020000000 1.0
C      1  0.5713560000000  0.5463110000000  0.5771780000000 1.0
C      1  0.5517060000000  0.5303750000000  0.5888160000000 1.0
C      1  0.5537550000000  0.5720890000000  0.5375080000000 1.0
C      1  0.5173580000000  0.5003590000000  0.4277050000000 1.0
C      1  0.5263490000000  0.5606170000000  0.4167610000000 1.0
C      1  0.4256970000000  0.4788260000000  0.4202450000000 1.0
C      1  0.4734710000000  0.5870300000000  0.4230340000000 1.0
C      1  0.4066800000000  0.4654050000000  0.4998470000000 1.0
C      1  0.4680760000000  0.5296560000000  0.4814730000000 1.0
C      1  0.4830390000000  0.4366550000000  0.4319220000000 1.0
C      1  0.4208850000000  0.5202950000000  0.5521000000000 1.0
C      1  0.4464350000000  0.5179530000000  0.5721380000000 1.0
C      1  0.5604740000000  0.4321690000000  0.4955050000000 1.0
C      1  0.5212020000000  0.5394890000000  0.5878150000000 1.0
END
