TITL C-2847945-6269-265 -0.00170637644006828 125000 -801.897683886827 0 0 151 (C1) n - 1
REM
REM in /home/bkarasulu/work/CARBON/AIRSS/Generating-Clusters/AIREBO/with-SteepDescent/Only-C1/SD-CG-opt/Try1-1.4A-POS3A/HFTN-CG
REM
REM
REM
REM
REM
REM ./C.cell (11c1c37f851c82e70ff6c80c92926a4b)
REM
REM compiler GCC version 9.2.1 20190827 (Red Hat 9.2.1-1)
REM options -cpp -mtune=generic -march=x86-64 -g -O0 -fpre-include=/usr/include/finclude/math-vector-fortran.h
REM seed 1353821112 409052196 345066889 108705423 -1473581636 -1464782919 991702960 757629520 1685670038 807773644 -871493146 -827316463 -169087542 873812013 583662322 625607576 389922946 1738889621 1441866879 79571727 -281199805 29330752 606158645 -989509569 1070139677 477303061 1930334020 1243775777 -2129171576 -542421278 -2066024831 -1078889484 299627052
REM
CELL 1.54180   50.00000   50.00000   50.00000   90.00000   90.00000   90.00000
LATT -1
SFAC C  
C      1  0.4704580000000  0.4179860000000  0.4022530000000 1.0
C      1  0.5487860000000  0.5288940000000  0.5850700000000 1.0
C      1  0.5575210000000  0.5722760000000  0.4939270000000 1.0
C      1  0.5509270000000  0.5616890000000  0.5782790000000 1.0
C      1  0.4941680000000  0.4833720000000  0.6072210000000 1.0
C      1  0.5135230000000  0.4812930000000  0.5100700000000 1.0
C      1  0.5025470000000  0.5552490000000  0.5583190000000 1.0
C      1  0.5463650000000  0.4688780000000  0.4862100000000 1.0
C      1  0.4809480000000  0.5845150000000  0.4574360000000 1.0
C      1  0.4766800000000  0.5146030000000  0.4037830000000 1.0
C      1  0.5807700000000  0.5052380000000  0.5245700000000 1.0
C      1  0.4277180000000  0.4710210000000  0.4737990000000 1.0
C      1  0.4210910000000  0.5632300000000  0.4819230000000 1.0
C      1  0.4705700000000  0.4517920000000  0.4199530000000 1.0
C      1  0.5223000000000  0.5311960000000  0.4041720000000 1.0
C      1  0.5814450000000  0.5058560000000  0.4784900000000 1.0
C      1  0.4428190000000  0.5399410000000  0.5233110000000 1.0
C      1  0.4943180000000  0.3736060000000  0.4257840000000 1.0
C      1  0.4543650000000  0.5202890000000  0.4184090000000 1.0
C      1  0.4836740000000  0.5714760000000  0.5139980000000 1.0
C      1  0.5246110000000  0.5612810000000  0.4300210000000 1.0
C      1  0.4799270000000  0.4004600000000  0.5385910000000 1.0
C      1  0.4372230000000  0.4511350000000  0.4284620000000 1.0
C      1  0.4469700000000  0.4827620000000  0.5201980000000 1.0
C      1  0.4119530000000  0.4742130000000  0.5031530000000 1.0
C      1  0.5181350000000  0.4465370000000  0.5338330000000 1.0
C      1  0.5402790000000  0.4824020000000  0.5271110000000 1.0
C      1  0.4970870000000  0.5320770000000  0.3896220000000 1.0
C      1  0.5986430000000  0.4806540000000  0.5296060000000 1.0
C      1  0.4644840000000  0.4222710000000  0.4357180000000 1.0
C      1  0.5819910000000  0.5305770000000  0.4554290000000 1.0
C      1  0.4886570000000  0.5798110000000  0.5442140000000 1.0
C      1  0.4623230000000  0.5727970000000  0.5594530000000 1.0
C      1  0.5785590000000  0.5573360000000  0.5125150000000 1.0
C      1  0.4916210000000  0.5338250000000  0.4815620000000 1.0
C      1  0.5529510000000  0.4128810000000  0.5185980000000 1.0
C      1  0.4507070000000  0.4199340000000  0.5434670000000 1.0
C      1  0.5659650000000  0.4625020000000  0.4236760000000 1.0
C      1  0.4092110000000  0.5358260000000  0.4844220000000 1.0
C      1  0.4442530000000  0.5011640000000  0.5548630000000 1.0
C      1  0.4152440000000  0.5079000000000  0.4256610000000 1.0
C      1  0.5609080000000  0.4913680000000  0.4142730000000 1.0
C      1  0.4989420000000  0.4707470000000  0.4224100000000 1.0
C      1  0.4286640000000  0.5680520000000  0.5147390000000 1.0
C      1  0.4579450000000  0.5744170000000  0.4714530000000 1.0
C      1  0.4172660000000  0.4805050000000  0.5528350000000 1.0
C      1  0.4563620000000  0.5277610000000  0.4981730000000 1.0
C      1  0.4343320000000  0.5182510000000  0.4782860000000 1.0
C      1  0.4172530000000  0.5214870000000  0.5315070000000 1.0
C      1  0.5587090000000  0.4532590000000  0.5258440000000 1.0
C      1  0.4305990000000  0.4814530000000  0.4175940000000 1.0
C      1  0.5411950000000  0.4754460000000  0.5794710000000 1.0
C      1  0.4919930000000  0.5663380000000  0.4361100000000 1.0
C      1  0.4926030000000  0.4768330000000  0.5598990000000 1.0
C      1  0.5183040000000  0.4571630000000  0.4749620000000 1.0
C      1  0.5430230000000  0.5326360000000  0.4294520000000 1.0
C      1  0.5662060000000  0.4929880000000  0.5720490000000 1.0
C      1  0.5261910000000  0.5414650000000  0.4644760000000 1.0
C      1  0.5070860000000  0.5232530000000  0.4429960000000 1.0
C      1  0.5918170000000  0.5506570000000  0.5421890000000 1.0
C      1  0.4282160000000  0.4772690000000  0.5822980000000 1.0
C      1  0.4678430000000  0.5493770000000  0.4421930000000 1.0
C      1  0.5356000000000  0.4937580000000  0.4006540000000 1.0
C      1  0.4161130000000  0.5585030000000  0.5460080000000 1.0
C      1  0.4616160000000  0.4821460000000  0.4306700000000 1.0
C      1  0.4636050000000  0.5397770000000  0.5678190000000 1.0
C      1  0.5713570000000  0.5167060000000  0.4263630000000 1.0
C      1  0.5358690000000  0.6084390000000  0.5263090000000 1.0
C      1  0.4173950000000  0.4918970000000  0.4534050000000 1.0
C      1  0.5202630000000  0.5474010000000  0.5843460000000 1.0
C      1  0.5221160000000  0.6081140000000  0.4565750000000 1.0
C      1  0.4699490000000  0.4515980000000  0.4698370000000 1.0
C      1  0.4312620000000  0.5320520000000  0.5606350000000 1.0
C      1  0.5065050000000  0.5032190000000  0.4155140000000 1.0
C      1  0.5080790000000  0.5825730000000  0.4966090000000 1.0
C      1  0.4324230000000  0.4347550000000  0.5215580000000 1.0
C      1  0.5425600000000  0.5072430000000  0.4521230000000 1.0
C      1  0.5239370000000  0.5391080000000  0.5186130000000 1.0
C      1  0.4559690000000  0.4226700000000  0.4686400000000 1.0
C      1  0.5743610000000  0.4569050000000  0.4736020000000 1.0
C      1  0.5010820000000  0.5974700000000  0.4719930000000 1.0
C      1  0.5490580000000  0.4413610000000  0.4431480000000 1.0
C      1  0.4502640000000  0.4563640000000  0.5051250000000 1.0
C      1  0.5772980000000  0.5624830000000  0.4680220000000 1.0
C      1  0.5365750000000  0.5908850000000  0.4417020000000 1.0
C      1  0.5639010000000  0.5124720000000  0.5508730000000 1.0
C      1  0.4739150000000  0.5028950000000  0.4986450000000 1.0
C      1  0.5485570000000  0.5631020000000  0.4543860000000 1.0
C      1  0.5249070000000  0.4043370000000  0.5222440000000 1.0
C      1  0.4388800000000  0.5799260000000  0.5449240000000 1.0
C      1  0.5078220000000  0.5215540000000  0.5567270000000 1.0
C      1  0.5878660000000  0.4567020000000  0.5351260000000 1.0
C      1  0.4785790000000  0.4444630000000  0.5081330000000 1.0
C      1  0.4675410000000  0.4172480000000  0.5140470000000 1.0
C      1  0.4475130000000  0.5070780000000  0.4489990000000 1.0
C      1  0.3963130000000  0.5283790000000  0.5075030000000 1.0
C      1  0.5288210000000  0.5592210000000  0.4929200000000 1.0
C      1  0.5451440000000  0.4285020000000  0.4678830000000 1.0
C      1  0.4546980000000  0.4691030000000  0.5503930000000 1.0
C      1  0.5352080000000  0.4440550000000  0.5780000000000 1.0
C      1  0.5941570000000  0.4805500000000  0.4720260000000 1.0
C      1  0.4595180000000  0.4796930000000  0.4821770000000 1.0
C      1  0.4798060000000  0.4620490000000  0.5849660000000 1.0
C      1  0.4874840000000  0.4267730000000  0.5588590000000 1.0
C      1  0.4626870000000  0.5596810000000  0.4948740000000 1.0
C      1  0.4633000000000  0.5123950000000  0.5879950000000 1.0
C      1  0.4591550000000  0.4414210000000  0.5675070000000 1.0
C      1  0.5143190000000  0.4233860000000  0.4755050000000 1.0
C      1  0.4332160000000  0.4183370000000  0.4935380000000 1.0
C      1  0.5980710000000  0.5301890000000  0.5154100000000 1.0
C      1  0.6011230000000  0.4357300000000  0.5467030000000 1.0
C      1  0.4144570000000  0.4616820000000  0.5298840000000 1.0
C      1  0.5280670000000  0.5061400000000  0.5791020000000 1.0
C      1  0.5445210000000  0.4314730000000  0.5477720000000 1.0
C      1  0.4837990000000  0.4113660000000  0.4847630000000 1.0
C      1  0.5071820000000  0.5084670000000  0.4936300000000 1.0
C      1  0.4790040000000  0.3951190000000  0.4224140000000 1.0
C      1  0.5156080000000  0.4137590000000  0.5502910000000 1.0
C      1  0.4998790000000  0.3956190000000  0.5103520000000 1.0
C      1  0.4886480000000  0.5363690000000  0.5905940000000 1.0
C      1  0.4267390000000  0.5024710000000  0.5067870000000 1.0
C      1  0.5538450000000  0.5715950000000  0.5458820000000 1.0
C      1  0.5288190000000  0.4666300000000  0.4375770000000 1.0
C      1  0.4285900000000  0.5358400000000  0.4288010000000 1.0
C      1  0.5662950000000  0.5331470000000  0.4919860000000 1.0
C      1  0.4799190000000  0.4637520000000  0.5320630000000 1.0
C      1  0.5055850000000  0.4393050000000  0.5837830000000 1.0
C      1  0.4816600000000  0.4878360000000  0.4569750000000 1.0
C      1  0.5595280000000  0.4787080000000  0.4521280000000 1.0
C      1  0.4551300000000  0.4849750000000  0.5896810000000 1.0
C      1  0.5559560000000  0.5882830000000  0.5239030000000 1.0
C      1  0.5616200000000  0.4355710000000  0.4968330000000 1.0
C      1  0.5105360000000  0.5980720000000  0.5253500000000 1.0
C      1  0.4778970000000  0.5063510000000  0.5512790000000 1.0
C      1  0.4331070000000  0.4445680000000  0.4561810000000 1.0
C      1  0.5376340000000  0.5164660000000  0.4844820000000 1.0
C      1  0.5992720000000  0.5411120000000  0.4827570000000 1.0
C      1  0.4367390000000  0.5591490000000  0.4519650000000 1.0
C      1  0.5345630000000  0.5140230000000  0.5382340000000 1.0
C      1  0.4777240000000  0.5215980000000  0.4557800000000 1.0
C      1  0.4871150000000  0.4928260000000  0.5237400000000 1.0
C      1  0.4721700000000  0.5350010000000  0.5352490000000 1.0
C      1  0.5072050000000  0.4517810000000  0.5055200000000 1.0
C      1  0.5582150000000  0.4951610000000  0.5011930000000 1.0
C      1  0.5155160000000  0.4882890000000  0.4601640000000 1.0
C      1  0.5219640000000  0.4729270000000  0.5540010000000 1.0
C      1  0.4934690000000  0.5410560000000  0.5122280000000 1.0
C      1  0.5721250000000  0.5403580000000  0.5624070000000 1.0
C      1  0.5027820000000  0.5076090000000  0.5969980000000 1.0
C      1  0.4933540000000  0.4562380000000  0.4523500000000 1.0
C      1  0.5307680000000  0.5531760000000  0.5449260000000 1.0
END
