TITL C-2848507-1641-628 -7.00785831067006e-05 125000 -909.74329661814 0 0 160 (C1) n - 1
REM
REM in /home/bkarasulu/work/CARBON/AIRSS/Generating-Clusters/AIREBO/with-SteepDescent/Only-C1/SD-CG-opt/Try1-1.4A-POS3A/HFTN-CG
REM
REM
REM
REM
REM
REM ./C.cell (11c1c37f851c82e70ff6c80c92926a4b)
REM
REM compiler GCC version 9.2.1 20190827 (Red Hat 9.2.1-1)
REM options -cpp -mtune=generic -march=x86-64 -g -O0 -fpre-include=/usr/include/finclude/math-vector-fortran.h
REM seed 329303737 1804133864 -596904728 1967205268 332254506 -1666780153 592305732 -505917534 619726073 -1151345470 157488620 -1290127154 2057428192 -553743363 -1836858677 1965852997 14872939 294846490 4852266 2076651775 1341995325 491560180 586541656 2118293905 1742304138 -311927999 801644282 -756477681 -1071271021 -1959453929 -882910086 -838790674 -485012649
REM
CELL 1.54180   50.00000   50.00000   50.00000   90.00000   90.00000   90.00000
LATT -1
SFAC C  
C      1  0.5070730000000  0.5744830000000  0.4604300000000 1.0
C      1  0.4751320000000  0.6285920000000  0.5256950000000 1.0
C      1  0.4613400000000  0.4930100000000  0.4380860000000 1.0
C      1  0.5212100000000  0.5469420000000  0.4742340000000 1.0
C      1  0.5459930000000  0.4658200000000  0.5154750000000 1.0
C      1  0.5294820000000  0.5708650000000  0.4220290000000 1.0
C      1  0.4253630000000  0.5740920000000  0.4591650000000 1.0
C      1  0.4161090000000  0.4961400000000  0.5465720000000 1.0
C      1  0.5155980000000  0.5257020000000  0.4044630000000 1.0
C      1  0.5064250000000  0.5548650000000  0.4114550000000 1.0
C      1  0.4250810000000  0.4301400000000  0.4707850000000 1.0
C      1  0.4540900000000  0.4202890000000  0.5106090000000 1.0
C      1  0.5046990000000  0.4799100000000  0.5974020000000 1.0
C      1  0.4804050000000  0.4528820000000  0.4790640000000 1.0
C      1  0.5555370000000  0.4565020000000  0.4877150000000 1.0
C      1  0.5912150000000  0.5096330000000  0.5492170000000 1.0
C      1  0.5205770000000  0.4350500000000  0.5888860000000 1.0
C      1  0.4024720000000  0.4724640000000  0.4798040000000 1.0
C      1  0.5548230000000  0.5167550000000  0.5055090000000 1.0
C      1  0.5449790000000  0.5456070000000  0.4245090000000 1.0
C      1  0.5144580000000  0.4229460000000  0.4426360000000 1.0
C      1  0.4409500000000  0.5155360000000  0.3934900000000 1.0
C      1  0.4534360000000  0.6137890000000  0.5169710000000 1.0
C      1  0.5847440000000  0.4544600000000  0.4610610000000 1.0
C      1  0.4170120000000  0.5319760000000  0.4484570000000 1.0
C      1  0.5682190000000  0.5021110000000  0.4251510000000 1.0
C      1  0.4719720000000  0.5367070000000  0.4830240000000 1.0
C      1  0.6172050000000  0.5289400000000  0.4824440000000 1.0
C      1  0.5694890000000  0.5474410000000  0.4387930000000 1.0
C      1  0.5216300000000  0.4875740000000  0.4619210000000 1.0
C      1  0.4871340000000  0.3905770000000  0.5309070000000 1.0
C      1  0.4820210000000  0.5631530000000  0.4206920000000 1.0
C      1  0.5074160000000  0.5063230000000  0.6075700000000 1.0
C      1  0.4638020000000  0.3902250000000  0.5155020000000 1.0
C      1  0.4732840000000  0.4467940000000  0.4493040000000 1.0
C      1  0.4367390000000  0.4890650000000  0.5224650000000 1.0
C      1  0.5831190000000  0.4421570000000  0.4919450000000 1.0
C      1  0.5650920000000  0.5681460000000  0.4570120000000 1.0
C      1  0.5616920000000  0.4876170000000  0.4929070000000 1.0
C      1  0.4970680000000  0.4464340000000  0.4297990000000 1.0
C      1  0.5662260000000  0.4406560000000  0.5402560000000 1.0
C      1  0.4674670000000  0.4165890000000  0.4562080000000 1.0
C      1  0.4761990000000  0.5079050000000  0.5435900000000 1.0
C      1  0.4983060000000  0.6135900000000  0.5319720000000 1.0
C      1  0.5239560000000  0.4617330000000  0.4413200000000 1.0
C      1  0.4973810000000  0.4111800000000  0.4662880000000 1.0
C      1  0.5407710000000  0.4039050000000  0.5104650000000 1.0
C      1  0.5454870000000  0.5398110000000  0.5516790000000 1.0
C      1  0.4243890000000  0.4359310000000  0.5103210000000 1.0
C      1  0.5062160000000  0.4910500000000  0.5042650000000 1.0
C      1  0.5465200000000  0.5063690000000  0.5772400000000 1.0
C      1  0.5504030000000  0.5307550000000  0.4754480000000 1.0
C      1  0.4080900000000  0.5001140000000  0.4969620000000 1.0
C      1  0.4974530000000  0.5196410000000  0.4952300000000 1.0
C      1  0.5782960000000  0.5603010000000  0.5174420000000 1.0
C      1  0.5355660000000  0.5273610000000  0.3841530000000 1.0
C      1  0.5527650000000  0.5859840000000  0.5005990000000 1.0
C      1  0.4474350000000  0.4972490000000  0.5863120000000 1.0
C      1  0.5098310000000  0.4773090000000  0.3965750000000 1.0
C      1  0.4560230000000  0.5873100000000  0.5165440000000 1.0
C      1  0.5329540000000  0.5160310000000  0.6039200000000 1.0
C      1  0.4979180000000  0.4104250000000  0.5820330000000 1.0
C      1  0.5322200000000  0.4950250000000  0.5186600000000 1.0
C      1  0.5863190000000  0.4374370000000  0.5197830000000 1.0
C      1  0.5247390000000  0.5150180000000  0.5523950000000 1.0
C      1  0.5518330000000  0.5863260000000  0.5541970000000 1.0
C      1  0.5319270000000  0.4498470000000  0.4700400000000 1.0
C      1  0.5173600000000  0.3989430000000  0.4863290000000 1.0
C      1  0.4853570000000  0.5493410000000  0.5693260000000 1.0
C      1  0.4991010000000  0.6006590000000  0.5565340000000 1.0
C      1  0.4901690000000  0.4571130000000  0.4019340000000 1.0
C      1  0.5498010000000  0.4733520000000  0.5830040000000 1.0
C      1  0.5197170000000  0.4207260000000  0.5580600000000 1.0
C      1  0.5760740000000  0.4856570000000  0.4649750000000 1.0
C      1  0.4484950000000  0.5415570000000  0.5149720000000 1.0
C      1  0.6021350000000  0.5483790000000  0.4977730000000 1.0
C      1  0.5584270000000  0.4623940000000  0.5558270000000 1.0
C      1  0.4976000000000  0.5742690000000  0.4910160000000 1.0
C      1  0.4088770000000  0.4685070000000  0.5590080000000 1.0
C      1  0.4504300000000  0.4641230000000  0.4410750000000 1.0
C      1  0.5061660000000  0.4670140000000  0.4817890000000 1.0
C      1  0.4999000000000  0.4403900000000  0.5158020000000 1.0
C      1  0.4056640000000  0.5138760000000  0.5210660000000 1.0
C      1  0.5374810000000  0.5836530000000  0.4524430000000 1.0
C      1  0.5433700000000  0.5866250000000  0.5265870000000 1.0
C      1  0.6148880000000  0.5001060000000  0.4946400000000 1.0
C      1  0.5070920000000  0.5183130000000  0.4625000000000 1.0
C      1  0.4749030000000  0.5818530000000  0.5670160000000 1.0
C      1  0.4452100000000  0.4102770000000  0.4706710000000 1.0
C      1  0.5476770000000  0.5453690000000  0.5190460000000 1.0
C      1  0.5248780000000  0.5576690000000  0.5047640000000 1.0
C      1  0.4385780000000  0.5159830000000  0.4275890000000 1.0
C      1  0.4307030000000  0.4629000000000  0.4634390000000 1.0
C      1  0.5106860000000  0.5720000000000  0.5680060000000 1.0
C      1  0.4284670000000  0.5118090000000  0.5691820000000 1.0
C      1  0.5431810000000  0.4194210000000  0.4802410000000 1.0
C      1  0.4621500000000  0.4483890000000  0.5567650000000 1.0
C      1  0.5270950000000  0.4612500000000  0.5959700000000 1.0
C      1  0.4029510000000  0.4242240000000  0.4891550000000 1.0
C      1  0.4973040000000  0.5028960000000  0.3984240000000 1.0
C      1  0.4808280000000  0.4245420000000  0.4930280000000 1.0
C      1  0.4671770000000  0.4993060000000  0.4051860000000 1.0
C      1  0.4431830000000  0.4565660000000  0.4116910000000 1.0
C      1  0.5271710000000  0.5224150000000  0.4353540000000 1.0
C      1  0.5413730000000  0.4220970000000  0.4404820000000 1.0
C      1  0.4918850000000  0.5544430000000  0.5373770000000 1.0
C      1  0.5330360000000  0.4709280000000  0.4121560000000 1.0
C      1  0.4692210000000  0.5196060000000  0.5728150000000 1.0
C      1  0.4596620000000  0.5426250000000  0.4293170000000 1.0
C      1  0.4361420000000  0.5520650000000  0.5454270000000 1.0
C      1  0.5123310000000  0.6010510000000  0.5059140000000 1.0
C      1  0.4826450000000  0.5470920000000  0.6221690000000 1.0
C      1  0.5108930000000  0.4593980000000  0.5531810000000 1.0
C      1  0.5831790000000  0.5228040000000  0.4411910000000 1.0
C      1  0.4407920000000  0.4318100000000  0.5378720000000 1.0
C      1  0.4852240000000  0.4680590000000  0.5158400000000 1.0
C      1  0.4349920000000  0.4944120000000  0.4769280000000 1.0
C      1  0.4120760000000  0.4947260000000  0.4292380000000 1.0
C      1  0.5282960000000  0.4471480000000  0.5294070000000 1.0
C      1  0.4684970000000  0.5637320000000  0.4986870000000 1.0
C      1  0.5348500000000  0.5996100000000  0.4806920000000 1.0
C      1  0.5426150000000  0.4198270000000  0.5374620000000 1.0
C      1  0.5500020000000  0.5044160000000  0.4537800000000 1.0
C      1  0.5778990000000  0.4984480000000  0.5701260000000 1.0
C      1  0.4581650000000  0.5129980000000  0.5177270000000 1.0
C      1  0.4549600000000  0.5419910000000  0.5940900000000 1.0
C      1  0.4756430000000  0.4756160000000  0.5440150000000 1.0
C      1  0.4853050000000  0.5256660000000  0.6021570000000 1.0
C      1  0.4285810000000  0.4499590000000  0.5614170000000 1.0
C      1  0.4420780000000  0.4819590000000  0.6078880000000 1.0
C      1  0.4895860000000  0.4379040000000  0.5638250000000 1.0
C      1  0.5014550000000  0.5234170000000  0.5288530000000 1.0
C      1  0.3998610000000  0.4822560000000  0.4473250000000 1.0
C      1  0.4614430000000  0.5688850000000  0.5409090000000 1.0
C      1  0.5655270000000  0.5592830000000  0.4862080000000 1.0
C      1  0.5075600000000  0.4072870000000  0.5170910000000 1.0
C      1  0.5115200000000  0.5754050000000  0.5282260000000 1.0
C      1  0.5862320000000  0.5219080000000  0.5117990000000 1.0
C      1  0.4045570000000  0.5558760000000  0.4526550000000 1.0
C      1  0.5650310000000  0.4316350000000  0.4572230000000 1.0
C      1  0.4779450000000  0.5007920000000  0.4622170000000 1.0
C      1  0.6059240000000  0.4988770000000  0.5236900000000 1.0
C      1  0.5992440000000  0.5077300000000  0.4648020000000 1.0
C      1  0.4480370000000  0.3876440000000  0.4886940000000 1.0
C      1  0.4584470000000  0.4683290000000  0.4961070000000 1.0
C      1  0.4158870000000  0.5402500000000  0.5218810000000 1.0
C      1  0.5382050000000  0.5652110000000  0.5669070000000 1.0
C      1  0.4433520000000  0.5250650000000  0.4688300000000 1.0
C      1  0.4645260000000  0.4680650000000  0.3980990000000 1.0
C      1  0.4910580000000  0.3883320000000  0.5577940000000 1.0
C      1  0.4472930000000  0.5566780000000  0.4569120000000 1.0
C      1  0.5782410000000  0.5377280000000  0.5428760000000 1.0
C      1  0.4639610000000  0.4983720000000  0.4902530000000 1.0
C      1  0.4916010000000  0.4775940000000  0.5732080000000 1.0
C      1  0.4820680000000  0.5390540000000  0.4524950000000 1.0
C      1  0.5717610000000  0.4867820000000  0.4034840000000 1.0
C      1  0.4855240000000  0.5821130000000  0.4402440000000 1.0
C      1  0.4341690000000  0.5386710000000  0.5713220000000 1.0
C      1  0.5321250000000  0.4827180000000  0.5486540000000 1.0
C      1  0.4264990000000  0.4652180000000  0.5028230000000 1.0
END
