TITL C-2847945-6269-202 0.000427730841582045 125000 -856.71093799749 0 0 163 (C1) n - 1
REM
REM in /home/bkarasulu/work/CARBON/AIRSS/Generating-Clusters/AIREBO/with-SteepDescent/Only-C1/SD-CG-opt/Try1-1.4A-POS3A/HFTN-CG
REM
REM
REM
REM
REM
REM ./C.cell (11c1c37f851c82e70ff6c80c92926a4b)
REM
REM compiler GCC version 9.2.1 20190827 (Red Hat 9.2.1-1)
REM options -cpp -mtune=generic -march=x86-64 -g -O0 -fpre-include=/usr/include/finclude/math-vector-fortran.h
REM seed -80962630 -208285105 -1807452316 1548461743 -717311732 -1342929388 53777338 -947955754 1992402 550619293 -1498735159 -885136819 1401363391 1746488959 14887466 -1066468267 781464127 -2023191833 1269533663 363938536 817700443 -781620991 -124578046 -883700596 -1229097287 687092125 -241043171 -1404045733 673107159 1422687408 -1632311313 -544428112 -1965412219
REM
CELL 1.54180   50.00000   50.00000   50.00000   90.00000   90.00000   90.00000
LATT -1
SFAC C  
C      1  0.5642890000000  0.4819110000000  0.4544780000000 1.0
C      1  0.4334950000000  0.4751870000000  0.4870540000000 1.0
C      1  0.5045350000000  0.5496460000000  0.5025690000000 1.0
C      1  0.3955990000000  0.4582310000000  0.5163690000000 1.0
C      1  0.4829000000000  0.5697230000000  0.4348930000000 1.0
C      1  0.5063420000000  0.4027710000000  0.5079090000000 1.0
C      1  0.4584460000000  0.5922830000000  0.5136310000000 1.0
C      1  0.4907270000000  0.5431290000000  0.6242310000000 1.0
C      1  0.4599480000000  0.4844160000000  0.4334640000000 1.0
C      1  0.4762340000000  0.4810840000000  0.4632820000000 1.0
C      1  0.5739340000000  0.5201840000000  0.5719740000000 1.0
C      1  0.4220040000000  0.5599960000000  0.4840310000000 1.0
C      1  0.4029040000000  0.4749190000000  0.4951690000000 1.0
C      1  0.4683550000000  0.5666130000000  0.5341600000000 1.0
C      1  0.5102320000000  0.5964700000000  0.4456940000000 1.0
C      1  0.4676050000000  0.4503520000000  0.4718470000000 1.0
C      1  0.4409310000000  0.4206810000000  0.4697360000000 1.0
C      1  0.5659800000000  0.4999690000000  0.5041660000000 1.0
C      1  0.4903790000000  0.4681200000000  0.3911580000000 1.0
C      1  0.4952030000000  0.5452470000000  0.5349920000000 1.0
C      1  0.5889590000000  0.5566760000000  0.5247040000000 1.0
C      1  0.5134550000000  0.5101770000000  0.5218050000000 1.0
C      1  0.4520740000000  0.5452260000000  0.5792110000000 1.0
C      1  0.4453540000000  0.5196690000000  0.5597590000000 1.0
C      1  0.4180970000000  0.5026390000000  0.4361850000000 1.0
C      1  0.5389570000000  0.5112910000000  0.4770040000000 1.0
C      1  0.4230260000000  0.4691250000000  0.4322930000000 1.0
C      1  0.5228000000000  0.5695740000000  0.4375720000000 1.0
C      1  0.5107420000000  0.5980030000000  0.4777360000000 1.0
C      1  0.4775070000000  0.5045690000000  0.5774420000000 1.0
C      1  0.4557160000000  0.4865960000000  0.5105240000000 1.0
C      1  0.5294330000000  0.4641180000000  0.5988620000000 1.0
C      1  0.5993630000000  0.5062480000000  0.5026720000000 1.0
C      1  0.5239970000000  0.5627320000000  0.5802720000000 1.0
C      1  0.4859830000000  0.4928740000000  0.5247140000000 1.0
C      1  0.5095430000000  0.4940830000000  0.4411790000000 1.0
C      1  0.4064230000000  0.5223580000000  0.5531550000000 1.0
C      1  0.4638960000000  0.4415840000000  0.5496430000000 1.0
C      1  0.4428930000000  0.5537470000000  0.4241800000000 1.0
C      1  0.5912500000000  0.4978200000000  0.4522000000000 1.0
C      1  0.5152590000000  0.5764820000000  0.5205360000000 1.0
C      1  0.5336080000000  0.5736360000000  0.5491000000000 1.0
C      1  0.4027490000000  0.5355380000000  0.5081910000000 1.0
C      1  0.5312970000000  0.4605550000000  0.4261450000000 1.0
C      1  0.3962220000000  0.5217070000000  0.4811240000000 1.0
C      1  0.5853240000000  0.5196600000000  0.5393130000000 1.0
C      1  0.5023900000000  0.4496350000000  0.5873580000000 1.0
C      1  0.5827960000000  0.4762740000000  0.5548900000000 1.0
C      1  0.6101460000000  0.5331790000000  0.5204080000000 1.0
C      1  0.4981560000000  0.4774200000000  0.5488250000000 1.0
C      1  0.5334760000000  0.5186950000000  0.6012020000000 1.0
C      1  0.4147640000000  0.4499240000000  0.5335580000000 1.0
C      1  0.5446800000000  0.4997710000000  0.5303450000000 1.0
C      1  0.4812150000000  0.5332860000000  0.5920550000000 1.0
C      1  0.4369890000000  0.4355190000000  0.5189730000000 1.0
C      1  0.5166460000000  0.5205860000000  0.3857430000000 1.0
C      1  0.4470360000000  0.4185950000000  0.4307130000000 1.0
C      1  0.5554730000000  0.5379030000000  0.5353130000000 1.0
C      1  0.5256870000000  0.5173470000000  0.5698510000000 1.0
C      1  0.5634050000000  0.4299540000000  0.4812050000000 1.0
C      1  0.5711750000000  0.5200670000000  0.4780310000000 1.0
C      1  0.5224600000000  0.5406990000000  0.4555320000000 1.0
C      1  0.5614890000000  0.5538380000000  0.5068660000000 1.0
C      1  0.4652410000000  0.4700700000000  0.4030730000000 1.0
C      1  0.5071930000000  0.4532100000000  0.4766620000000 1.0
C      1  0.5766870000000  0.5278680000000  0.4457880000000 1.0
C      1  0.5403970000000  0.4717670000000  0.5162190000000 1.0
C      1  0.6026510000000  0.5275860000000  0.4760830000000 1.0
C      1  0.5115980000000  0.4320840000000  0.5243240000000 1.0
C      1  0.5638190000000  0.5695730000000  0.5444440000000 1.0
C      1  0.5007400000000  0.5703590000000  0.5572440000000 1.0
C      1  0.4765830000000  0.4214640000000  0.4874350000000 1.0
C      1  0.5382830000000  0.4500380000000  0.4781200000000 1.0
C      1  0.5435050000000  0.4167790000000  0.4569890000000 1.0
C      1  0.5607240000000  0.5773530000000  0.4881830000000 1.0
C      1  0.4785020000000  0.5966530000000  0.4554140000000 1.0
C      1  0.4678000000000  0.5121440000000  0.4184250000000 1.0
C      1  0.5396730000000  0.5431680000000  0.4848110000000 1.0
C      1  0.5212190000000  0.4870020000000  0.5672620000000 1.0
C      1  0.4702080000000  0.4465700000000  0.5908170000000 1.0
C      1  0.4863870000000  0.5945110000000  0.5414230000000 1.0
C      1  0.5382720000000  0.4117590000000  0.5299900000000 1.0
C      1  0.5976890000000  0.4602970000000  0.5115910000000 1.0
C      1  0.5108160000000  0.5165620000000  0.4916040000000 1.0
C      1  0.5654900000000  0.4556910000000  0.5112270000000 1.0
C      1  0.4649160000000  0.4548050000000  0.5183160000000 1.0
C      1  0.5841120000000  0.4333660000000  0.5288600000000 1.0
C      1  0.4990880000000  0.5102280000000  0.4136370000000 1.0
C      1  0.5092480000000  0.4022660000000  0.5571430000000 1.0
C      1  0.5896620000000  0.4518190000000  0.4796180000000 1.0
C      1  0.5716020000000  0.5126070000000  0.3957460000000 1.0
C      1  0.4677530000000  0.4516650000000  0.4382410000000 1.0
C      1  0.4796670000000  0.5653260000000  0.5807600000000 1.0
C      1  0.4615010000000  0.4115040000000  0.5467010000000 1.0
C      1  0.4367330000000  0.4850400000000  0.4583330000000 1.0
C      1  0.5990620000000  0.4880430000000  0.5313420000000 1.0
C      1  0.4913560000000  0.4462660000000  0.5034690000000 1.0
C      1  0.5073880000000  0.4873280000000  0.4744390000000 1.0
C      1  0.3865300000000  0.4933140000000  0.4846240000000 1.0
C      1  0.5389670000000  0.3927900000000  0.5019670000000 1.0
C      1  0.5207930000000  0.4923700000000  0.6099740000000 1.0
C      1  0.4434470000000  0.5587110000000  0.5518490000000 1.0
C      1  0.4012350000000  0.5274050000000  0.4502130000000 1.0
C      1  0.4396640000000  0.4926680000000  0.5398420000000 1.0
C      1  0.4933960000000  0.4489250000000  0.5483890000000 1.0
C      1  0.5729130000000  0.4528320000000  0.4500140000000 1.0
C      1  0.4158920000000  0.5541440000000  0.5451740000000 1.0
C      1  0.5133950000000  0.5419280000000  0.5989060000000 1.0
C      1  0.4972970000000  0.4639730000000  0.4310870000000 1.0
C      1  0.4405650000000  0.5239680000000  0.4502630000000 1.0
C      1  0.5488770000000  0.4684670000000  0.5742200000000 1.0
C      1  0.4716050000000  0.5391170000000  0.3995890000000 1.0
C      1  0.6020120000000  0.4830090000000  0.4779930000000 1.0
C      1  0.4547940000000  0.5277190000000  0.5291760000000 1.0
C      1  0.4298590000000  0.5267000000000  0.4803490000000 1.0
C      1  0.5426920000000  0.4909030000000  0.4332380000000 1.0
C      1  0.5401190000000  0.5416820000000  0.4284360000000 1.0
C      1  0.4522170000000  0.5595740000000  0.4761650000000 1.0
C      1  0.4562810000000  0.5179330000000  0.4973180000000 1.0
C      1  0.4569220000000  0.5740320000000  0.4540360000000 1.0
C      1  0.4870470000000  0.3971060000000  0.5427630000000 1.0
C      1  0.4218940000000  0.5523810000000  0.4508910000000 1.0
C      1  0.4994320000000  0.6018390000000  0.5156770000000 1.0
C      1  0.4707910000000  0.4146150000000  0.4546380000000 1.0
C      1  0.5030660000000  0.4248770000000  0.4578210000000 1.0
C      1  0.5254240000000  0.5320540000000  0.5433770000000 1.0
C      1  0.4758780000000  0.5112160000000  0.4721940000000 1.0
C      1  0.4973580000000  0.5239910000000  0.4518790000000 1.0
C      1  0.4796900000000  0.6024900000000  0.4891060000000 1.0
C      1  0.4240890000000  0.4697320000000  0.5541910000000 1.0
C      1  0.5473390000000  0.5724310000000  0.4591570000000 1.0
C      1  0.4744130000000  0.3987710000000  0.5111720000000 1.0
C      1  0.5483810000000  0.4793220000000  0.4839410000000 1.0
C      1  0.5585500000000  0.4963430000000  0.5573180000000 1.0
C      1  0.5499050000000  0.4398690000000  0.4401720000000 1.0
C      1  0.5643440000000  0.5216790000000  0.5987990000000 1.0
C      1  0.4133500000000  0.4983240000000  0.5691900000000 1.0
C      1  0.5564390000000  0.5161410000000  0.4218530000000 1.0
C      1  0.5025910000000  0.4922180000000  0.3881610000000 1.0
C      1  0.4919710000000  0.5550460000000  0.4093090000000 1.0
C      1  0.4492700000000  0.4584610000000  0.5724960000000 1.0
C      1  0.4822170000000  0.5165530000000  0.5459160000000 1.0
C      1  0.4095670000000  0.5671930000000  0.5144160000000 1.0
C      1  0.5652990000000  0.4502370000000  0.5506350000000 1.0
C      1  0.5206580000000  0.4088150000000  0.4787840000000 1.0
C      1  0.5161080000000  0.4319270000000  0.5639090000000 1.0
C      1  0.4218300000000  0.5207770000000  0.5244770000000 1.0
C      1  0.4433810000000  0.4055750000000  0.5232850000000 1.0
C      1  0.4401320000000  0.4440950000000  0.4888490000000 1.0
C      1  0.4382320000000  0.4465190000000  0.4259840000000 1.0
C      1  0.4962270000000  0.4831500000000  0.5883510000000 1.0
C      1  0.5345250000000  0.4500900000000  0.5418260000000 1.0
C      1  0.5220970000000  0.5701740000000  0.4818720000000 1.0
C      1  0.4460030000000  0.4916690000000  0.5790370000000 1.0
C      1  0.5739130000000  0.5592780000000  0.4463680000000 1.0
C      1  0.5866850000000  0.5482090000000  0.5577480000000 1.0
C      1  0.5124660000000  0.4257160000000  0.4303650000000 1.0
C      1  0.4305600000000  0.5924210000000  0.5104410000000 1.0
C      1  0.4693820000000  0.5388380000000  0.4394310000000 1.0
C      1  0.5173830000000  0.5446280000000  0.4047670000000 1.0
C      1  0.4721200000000  0.5470070000000  0.4925520000000 1.0
C      1  0.5094440000000  0.4470920000000  0.4041850000000 1.0
C      1  0.5635570000000  0.4158850000000  0.5089520000000 1.0
END
