TITL C-2847958-8115-254 -0.00139591791456872 125000 -576.797159349865 0 0 110 (C1) n - 1
REM
REM in /home/bkarasulu/work/CARBON/AIRSS/Generating-Clusters/AIREBO/with-SteepDescent/Only-C1/SD-CG-opt/Try1-1.4A-POS3A/HFTN-CG
REM
REM
REM
REM
REM
REM ./C.cell (11c1c37f851c82e70ff6c80c92926a4b)
REM
REM compiler GCC version 9.2.1 20190827 (Red Hat 9.2.1-1)
REM options -cpp -mtune=generic -march=x86-64 -g -O0 -fpre-include=/usr/include/finclude/math-vector-fortran.h
REM seed -794525364 -1725231651 -298356187 -1041706206 -1852419619 -1424840108 1987211498 -1780214344 654262809 434630010 -180363369 -1604835387 2006078341 -983221291 -475642724 1971496192 -677153442 -185371193 -195630438 733478409 -1329380253 -1736819480 1006133241 -724724855 1737097006 1698065986 -1114609407 1290759936 -447615920 496094592 -1283652211 -1164502691 -2085854482
REM
CELL 1.54180   50.00000   50.00000   50.00000   90.00000   90.00000   90.00000
LATT -1
SFAC C  
C      1  0.4535090000000  0.4287970000000  0.5124900000000 1.0
C      1  0.4946180000000  0.4529360000000  0.5763480000000 1.0
C      1  0.5572980000000  0.4768150000000  0.5122860000000 1.0
C      1  0.4912940000000  0.5450170000000  0.4636190000000 1.0
C      1  0.5173770000000  0.4603070000000  0.5443270000000 1.0
C      1  0.4883570000000  0.5847990000000  0.4665070000000 1.0
C      1  0.4734810000000  0.4842240000000  0.4436700000000 1.0
C      1  0.4681930000000  0.5756540000000  0.5372190000000 1.0
C      1  0.5516710000000  0.4669500000000  0.5749770000000 1.0
C      1  0.5723200000000  0.5483470000000  0.4676430000000 1.0
C      1  0.4291610000000  0.4705490000000  0.4566670000000 1.0
C      1  0.4454740000000  0.5123290000000  0.4267520000000 1.0
C      1  0.5250720000000  0.4906950000000  0.5577960000000 1.0
C      1  0.5350280000000  0.4808110000000  0.4779610000000 1.0
C      1  0.4897540000000  0.4137880000000  0.5372410000000 1.0
C      1  0.5649860000000  0.5198260000000  0.5722920000000 1.0
C      1  0.5525870000000  0.5741390000000  0.4604820000000 1.0
C      1  0.5361860000000  0.5176070000000  0.5754330000000 1.0
C      1  0.4463880000000  0.5466250000000  0.5535770000000 1.0
C      1  0.4413120000000  0.4921440000000  0.5823130000000 1.0
C      1  0.5063330000000  0.5740330000000  0.4901490000000 1.0
C      1  0.5674780000000  0.4526570000000  0.4820950000000 1.0
C      1  0.5340030000000  0.4971840000000  0.4183610000000 1.0
C      1  0.4863460000000  0.5162240000000  0.5698610000000 1.0
C      1  0.4408030000000  0.5665200000000  0.4947100000000 1.0
C      1  0.4137700000000  0.5149280000000  0.5269950000000 1.0
C      1  0.5188170000000  0.4707750000000  0.5829010000000 1.0
C      1  0.4515380000000  0.4766110000000  0.5247500000000 1.0
C      1  0.4872390000000  0.5120760000000  0.4562210000000 1.0
C      1  0.5423910000000  0.4460350000000  0.4600790000000 1.0
C      1  0.5345380000000  0.5440290000000  0.5427600000000 1.0
C      1  0.4567710000000  0.5826560000000  0.4697380000000 1.0
C      1  0.4516950000000  0.5312800000000  0.4491730000000 1.0
C      1  0.5071500000000  0.4704120000000  0.4616600000000 1.0
C      1  0.4686420000000  0.4465470000000  0.5553610000000 1.0
C      1  0.5595820000000  0.5157680000000  0.4864730000000 1.0
C      1  0.4920070000000  0.5267890000000  0.4194010000000 1.0
C      1  0.5212900000000  0.5437480000000  0.5717020000000 1.0
C      1  0.4979470000000  0.4952270000000  0.4819650000000 1.0
C      1  0.4259000000000  0.5019490000000  0.4525430000000 1.0
C      1  0.4440860000000  0.5240120000000  0.5025710000000 1.0
C      1  0.5568690000000  0.4756740000000  0.4518370000000 1.0
C      1  0.4401880000000  0.5712000000000  0.5279600000000 1.0
C      1  0.5741140000000  0.4850300000000  0.4863270000000 1.0
C      1  0.4572780000000  0.4818140000000  0.4722670000000 1.0
C      1  0.5545840000000  0.5166060000000  0.4286760000000 1.0
C      1  0.5152060000000  0.5123320000000  0.4381690000000 1.0
C      1  0.5769120000000  0.5054090000000  0.5361110000000 1.0
C      1  0.4194020000000  0.5162100000000  0.4804790000000 1.0
C      1  0.4974380000000  0.4792820000000  0.5248300000000 1.0
C      1  0.5174010000000  0.4112910000000  0.5086210000000 1.0
C      1  0.5645900000000  0.5402180000000  0.5508960000000 1.0
C      1  0.4994840000000  0.4398710000000  0.4563650000000 1.0
C      1  0.4541610000000  0.4563100000000  0.4417860000000 1.0
C      1  0.5728780000000  0.5414400000000  0.5009330000000 1.0
C      1  0.4972410000000  0.5794850000000  0.4394650000000 1.0
C      1  0.4642800000000  0.5588390000000  0.4482790000000 1.0
C      1  0.4290510000000  0.4531510000000  0.5321390000000 1.0
C      1  0.4977730000000  0.5592580000000  0.5713260000000 1.0
C      1  0.5755760000000  0.4892980000000  0.5657150000000 1.0
C      1  0.4616910000000  0.4937350000000  0.5482730000000 1.0
C      1  0.5322270000000  0.5774140000000  0.5079640000000 1.0
C      1  0.4890920000000  0.5101090000000  0.5365250000000 1.0
C      1  0.4980680000000  0.4975310000000  0.5861890000000 1.0
C      1  0.4877740000000  0.5538950000000  0.4248820000000 1.0
C      1  0.5598400000000  0.4396790000000  0.5263840000000 1.0
C      1  0.4711020000000  0.5072980000000  0.4114530000000 1.0
C      1  0.5480930000000  0.5031200000000  0.5402870000000 1.0
C      1  0.5826290000000  0.5337120000000  0.5279500000000 1.0
C      1  0.4277500000000  0.5413780000000  0.5268700000000 1.0
C      1  0.5224980000000  0.4435150000000  0.4324470000000 1.0
C      1  0.4444230000000  0.5172740000000  0.5657050000000 1.0
C      1  0.5220350000000  0.5595440000000  0.4636930000000 1.0
C      1  0.4671240000000  0.4729580000000  0.5747750000000 1.0
C      1  0.4751190000000  0.5426720000000  0.5704320000000 1.0
C      1  0.4920250000000  0.4487880000000  0.4182770000000 1.0
C      1  0.4986500000000  0.5793340000000  0.5474370000000 1.0
C      1  0.4164270000000  0.5478440000000  0.4853870000000 1.0
C      1  0.5731590000000  0.4998850000000  0.4432370000000 1.0
C      1  0.4962910000000  0.4473660000000  0.4976970000000 1.0
C      1  0.5267910000000  0.4881480000000  0.5101310000000 1.0
C      1  0.5265050000000  0.5718580000000  0.5344180000000 1.0
C      1  0.4692870000000  0.5511280000000  0.4875780000000 1.0
C      1  0.4913760000000  0.5621040000000  0.5182760000000 1.0
C      1  0.5208680000000  0.5176410000000  0.5260020000000 1.0
C      1  0.4301680000000  0.4944970000000  0.5121310000000 1.0
C      1  0.4784580000000  0.4169640000000  0.4701440000000 1.0
C      1  0.5048460000000  0.4305480000000  0.5529930000000 1.0
C      1  0.5848390000000  0.5140520000000  0.4661630000000 1.0
C      1  0.5390710000000  0.4695690000000  0.4264610000000 1.0
C      1  0.5567710000000  0.5695830000000  0.4998290000000 1.0
C      1  0.4302430000000  0.4497120000000  0.4991520000000 1.0
C      1  0.5121320000000  0.5212810000000  0.4934480000000 1.0
C      1  0.5309540000000  0.5131590000000  0.4683110000000 1.0
C      1  0.4842270000000  0.4170570000000  0.5038390000000 1.0
C      1  0.5741340000000  0.4367120000000  0.5033080000000 1.0
C      1  0.5266320000000  0.4501080000000  0.4899330000000 1.0
C      1  0.5448570000000  0.5374880000000  0.4507850000000 1.0
C      1  0.4820240000000  0.4762020000000  0.4144690000000 1.0
C      1  0.5299430000000  0.4388350000000  0.5211080000000 1.0
C      1  0.4719690000000  0.4311450000000  0.4396900000000 1.0
C      1  0.4473050000000  0.4266330000000  0.4797650000000 1.0
C      1  0.5648820000000  0.4658170000000  0.5435600000000 1.0
C      1  0.4587240000000  0.5151220000000  0.4744890000000 1.0
C      1  0.5295400000000  0.3885400000000  0.5054720000000 1.0
C      1  0.4740060000000  0.4869560000000  0.5014190000000 1.0
C      1  0.4667050000000  0.4523930000000  0.4833090000000 1.0
C      1  0.4755840000000  0.4525710000000  0.5241690000000 1.0
C      1  0.4742180000000  0.5327650000000  0.5157890000000 1.0
C      1  0.4201020000000  0.4798250000000  0.4867480000000 1.0
END
