TITL C-2847946-5639-273 -0.00023005716781289 125000 -807.23273144904 0 0 157 (C1) n - 1
REM
REM in /home/bkarasulu/work/CARBON/AIRSS/Generating-Clusters/AIREBO/with-SteepDescent/Only-C1/SD-CG-opt/Try1-1.4A-POS3A/HFTN-CG
REM
REM
REM
REM
REM
REM ./C.cell (11c1c37f851c82e70ff6c80c92926a4b)
REM
REM compiler GCC version 9.2.1 20190827 (Red Hat 9.2.1-1)
REM options -cpp -mtune=generic -march=x86-64 -g -O0 -fpre-include=/usr/include/finclude/math-vector-fortran.h
REM seed -740094811 488923057 -1916373686 -1178968834 837423903 -2144442037 2033778775 -1512729453 1731356158 -922372787 -448482828 -2001146125 -1810289491 1832127135 684401716 -1162132023 620004911 -387923257 169239107 1889458410 1360551114 -977178242 818249541 250906746 1855973496 -260235512 707149142 -986651691 -1842596466 -621571952 186418104 1973470401 19734391
REM
CELL 1.54180   50.00000   50.00000   50.00000   90.00000   90.00000   90.00000
LATT -1
SFAC C  
C      1  0.5316890000000  0.5015420000000  0.4704860000000 1.0
C      1  0.4752280000000  0.4650510000000  0.5763450000000 1.0
C      1  0.5144450000000  0.6200030000000  0.4282350000000 1.0
C      1  0.4058310000000  0.5385710000000  0.5143690000000 1.0
C      1  0.4886750000000  0.4914870000000  0.6144150000000 1.0
C      1  0.4523160000000  0.4744820000000  0.4742270000000 1.0
C      1  0.5668570000000  0.5507730000000  0.5550150000000 1.0
C      1  0.5640140000000  0.5244810000000  0.4673730000000 1.0
C      1  0.4778610000000  0.4848890000000  0.4148190000000 1.0
C      1  0.5263410000000  0.4280820000000  0.5533570000000 1.0
C      1  0.4761940000000  0.5317400000000  0.4617950000000 1.0
C      1  0.5193020000000  0.5366520000000  0.5005940000000 1.0
C      1  0.5671200000000  0.4361590000000  0.5206650000000 1.0
C      1  0.4875820000000  0.5839750000000  0.4529670000000 1.0
C      1  0.5371550000000  0.5846530000000  0.4549790000000 1.0
C      1  0.4498690000000  0.5440330000000  0.5773690000000 1.0
C      1  0.4206960000000  0.5485170000000  0.5373370000000 1.0
C      1  0.5771980000000  0.4601220000000  0.5701040000000 1.0
C      1  0.4690190000000  0.4828270000000  0.4461430000000 1.0
C      1  0.4885860000000  0.5288870000000  0.4908320000000 1.0
C      1  0.4604690000000  0.5038590000000  0.5585740000000 1.0
C      1  0.4740140000000  0.4465150000000  0.4247630000000 1.0
C      1  0.5520710000000  0.4391780000000  0.4234880000000 1.0
C      1  0.5157500000000  0.4724950000000  0.4417390000000 1.0
C      1  0.5388960000000  0.4479160000000  0.4674500000000 1.0
C      1  0.4231880000000  0.5517270000000  0.5651020000000 1.0
C      1  0.5159970000000  0.5629740000000  0.5403860000000 1.0
C      1  0.4040800000000  0.5103230000000  0.5153130000000 1.0
C      1  0.5387640000000  0.4641810000000  0.5050110000000 1.0
C      1  0.5167160000000  0.4434580000000  0.5144840000000 1.0
C      1  0.4114010000000  0.5492030000000  0.4878040000000 1.0
C      1  0.4464220000000  0.4492170000000  0.4290080000000 1.0
C      1  0.5258580000000  0.4710960000000  0.5473860000000 1.0
C      1  0.5868750000000  0.4582140000000  0.5314040000000 1.0
C      1  0.5293550000000  0.5345170000000  0.5454300000000 1.0
C      1  0.4054110000000  0.4542620000000  0.4723510000000 1.0
C      1  0.5471290000000  0.4183410000000  0.4996990000000 1.0
C      1  0.4851440000000  0.5455530000000  0.5586180000000 1.0
C      1  0.5198920000000  0.4061010000000  0.4614400000000 1.0
C      1  0.5581010000000  0.4199240000000  0.4673450000000 1.0
C      1  0.4996090000000  0.5532410000000  0.4611610000000 1.0
C      1  0.4618140000000  0.5361770000000  0.4345660000000 1.0
C      1  0.5846190000000  0.4859330000000  0.4923630000000 1.0
C      1  0.4163550000000  0.5100770000000  0.4446480000000 1.0
C      1  0.5936700000000  0.4894290000000  0.4622790000000 1.0
C      1  0.5758680000000  0.4838520000000  0.5379710000000 1.0
C      1  0.5640230000000  0.3921100000000  0.4242750000000 1.0
C      1  0.3873550000000  0.4580230000000  0.4991370000000 1.0
C      1  0.4899630000000  0.4562260000000  0.4494500000000 1.0
C      1  0.5558920000000  0.4151100000000  0.4365450000000 1.0
C      1  0.5500210000000  0.5539340000000  0.4770040000000 1.0
C      1  0.5124450000000  0.4944620000000  0.5769280000000 1.0
C      1  0.6078390000000  0.4896720000000  0.5148020000000 1.0
C      1  0.5154760000000  0.4792150000000  0.4025630000000 1.0
C      1  0.5179860000000  0.4272820000000  0.4846010000000 1.0
C      1  0.4686480000000  0.4027470000000  0.4820810000000 1.0
C      1  0.5495530000000  0.5363810000000  0.5026790000000 1.0
C      1  0.3967440000000  0.5369340000000  0.4667920000000 1.0
C      1  0.5785460000000  0.4442690000000  0.4703320000000 1.0
C      1  0.5428350000000  0.5552960000000  0.5767110000000 1.0
C      1  0.4669120000000  0.5289770000000  0.5934470000000 1.0
C      1  0.5174210000000  0.4983430000000  0.5288610000000 1.0
C      1  0.5614560000000  0.5071540000000  0.4965910000000 1.0
C      1  0.4396380000000  0.4885890000000  0.6038700000000 1.0
C      1  0.4392670000000  0.4898710000000  0.5431130000000 1.0
C      1  0.5521290000000  0.5014240000000  0.4453120000000 1.0
C      1  0.5051570000000  0.4094940000000  0.5343260000000 1.0
C      1  0.4519880000000  0.4312910000000  0.5448520000000 1.0
C      1  0.5853370000000  0.5259550000000  0.5691150000000 1.0
C      1  0.5504050000000  0.5553800000000  0.4430340000000 1.0
C      1  0.4220270000000  0.4824060000000  0.4635850000000 1.0
C      1  0.5229580000000  0.5505940000000  0.6039970000000 1.0
C      1  0.4690590000000  0.5103870000000  0.5263250000000 1.0
C      1  0.5815050000000  0.5406720000000  0.4431230000000 1.0
C      1  0.4458060000000  0.4146010000000  0.4723370000000 1.0
C      1  0.3987440000000  0.5376250000000  0.4352910000000 1.0
C      1  0.4901290000000  0.5418780000000  0.6017690000000 1.0
C      1  0.4911080000000  0.4461120000000  0.4786200000000 1.0
C      1  0.4757640000000  0.6048110000000  0.4770320000000 1.0
C      1  0.5352290000000  0.5811120000000  0.4871140000000 1.0
C      1  0.3894320000000  0.5053610000000  0.4648740000000 1.0
C      1  0.4328840000000  0.4386570000000  0.4740830000000 1.0
C      1  0.5821830000000  0.4657960000000  0.4505300000000 1.0
C      1  0.5811860000000  0.4920910000000  0.5679940000000 1.0
C      1  0.4773940000000  0.5651330000000  0.4265510000000 1.0
C      1  0.4932120000000  0.4914100000000  0.4684450000000 1.0
C      1  0.4369340000000  0.4235050000000  0.5102810000000 1.0
C      1  0.5076310000000  0.4752440000000  0.6140050000000 1.0
C      1  0.4481390000000  0.5367980000000  0.5245740000000 1.0
C      1  0.4986220000000  0.5304900000000  0.3897700000000 1.0
C      1  0.5697140000000  0.4584920000000  0.4954860000000 1.0
C      1  0.4584360000000  0.5570700000000  0.5471160000000 1.0
C      1  0.5034080000000  0.4511370000000  0.5633190000000 1.0
C      1  0.5145350000000  0.5974400000000  0.4436150000000 1.0
C      1  0.4880680000000  0.4590360000000  0.4009970000000 1.0
C      1  0.4982870000000  0.5259920000000  0.5341080000000 1.0
C      1  0.4056370000000  0.4713130000000  0.4146820000000 1.0
C      1  0.4444740000000  0.4554600000000  0.5012980000000 1.0
C      1  0.3837240000000  0.4806200000000  0.4749030000000 1.0
C      1  0.6016160000000  0.5169000000000  0.4571480000000 1.0
C      1  0.5379710000000  0.5018780000000  0.4142710000000 1.0
C      1  0.4566240000000  0.5699520000000  0.4542350000000 1.0
C      1  0.5872610000000  0.5135010000000  0.5264650000000 1.0
C      1  0.5581320000000  0.5277830000000  0.5315310000000 1.0
C      1  0.4882160000000  0.4969570000000  0.5016240000000 1.0
C      1  0.5210230000000  0.5388440000000  0.4427210000000 1.0
C      1  0.5588190000000  0.5104490000000  0.5835900000000 1.0
C      1  0.5494650000000  0.4902690000000  0.5207890000000 1.0
C      1  0.4984460000000  0.5068960000000  0.4125590000000 1.0
C      1  0.5920440000000  0.5355730000000  0.4831260000000 1.0
C      1  0.4909110000000  0.4770520000000  0.5290590000000 1.0
C      1  0.5765870000000  0.5621950000000  0.5243700000000 1.0
C      1  0.4717050000000  0.5704280000000  0.4966780000000 1.0
C      1  0.5136610000000  0.5968940000000  0.5406760000000 1.0
C      1  0.4999780000000  0.6122180000000  0.5235040000000 1.0
C      1  0.4924510000000  0.4252580000000  0.5824880000000 1.0
C      1  0.4679030000000  0.4137950000000  0.5204140000000 1.0
C      1  0.5537140000000  0.5642020000000  0.4138610000000 1.0
C      1  0.4433010000000  0.5265320000000  0.4951790000000 1.0
C      1  0.3953880000000  0.4896280000000  0.5325620000000 1.0
C      1  0.4262670000000  0.4488750000000  0.5302510000000 1.0
C      1  0.4235120000000  0.4989290000000  0.4933510000000 1.0
C      1  0.5025020000000  0.5480380000000  0.4175320000000 1.0
C      1  0.4548410000000  0.4454710000000  0.5721780000000 1.0
C      1  0.4256180000000  0.4675190000000  0.4332200000000 1.0
C      1  0.4889080000000  0.4891200000000  0.5588600000000 1.0
C      1  0.4658260000000  0.4950600000000  0.5909780000000 1.0
C      1  0.4913140000000  0.5564570000000  0.5206950000000 1.0
C      1  0.5476840000000  0.4521920000000  0.5793760000000 1.0
C      1  0.5608610000000  0.5786060000000  0.5089740000000 1.0
C      1  0.5206990000000  0.5057900000000  0.4962460000000 1.0
C      1  0.5283010000000  0.5245540000000  0.5763370000000 1.0
C      1  0.5292330000000  0.5306840000000  0.4045770000000 1.0
C      1  0.4899810000000  0.4466300000000  0.5323950000000 1.0
C      1  0.5383760000000  0.4081710000000  0.5284010000000 1.0
C      1  0.5493680000000  0.4676980000000  0.4418330000000 1.0
C      1  0.4579540000000  0.5077300000000  0.4753690000000 1.0
C      1  0.5418200000000  0.4895520000000  0.5648660000000 1.0
C      1  0.4577940000000  0.5852130000000  0.5333420000000 1.0
C      1  0.3987680000000  0.4625950000000  0.5240530000000 1.0
C      1  0.4749490000000  0.4421270000000  0.5029850000000 1.0
C      1  0.4477460000000  0.5095450000000  0.4435480000000 1.0
C      1  0.5054070000000  0.5651370000000  0.4909860000000 1.0
C      1  0.5895300000000  0.5406560000000  0.5103930000000 1.0
C      1  0.4681810000000  0.5322660000000  0.4048160000000 1.0
C      1  0.5222950000000  0.4640380000000  0.5884970000000 1.0
C      1  0.5241840000000  0.5821600000000  0.5674080000000 1.0
C      1  0.4958080000000  0.4080900000000  0.5018330000000 1.0
C      1  0.5468180000000  0.4692340000000  0.4079430000000 1.0
C      1  0.4466710000000  0.4871590000000  0.5134630000000 1.0
C      1  0.4813510000000  0.4179520000000  0.5558940000000 1.0
C      1  0.4743510000000  0.6012500000000  0.5098700000000 1.0
C      1  0.5033010000000  0.5601350000000  0.5782560000000 1.0
C      1  0.5134060000000  0.4687200000000  0.4837270000000 1.0
C      1  0.5590030000000  0.4376320000000  0.5513420000000 1.0
C      1  0.5115710000000  0.5061770000000  0.4439170000000 1.0
C      1  0.4438720000000  0.5575610000000  0.4819890000000 1.0
END
