TITL C-2847946-5639-156 -0.00114997330961432 125000 -924.938966909201 0 0 171 (C1) n - 1
REM
REM in /home/bkarasulu/work/CARBON/AIRSS/Generating-Clusters/AIREBO/with-SteepDescent/Only-C1/SD-CG-opt/Try1-1.4A-POS3A/HFTN-CG
REM
REM
REM
REM
REM
REM ./C.cell (11c1c37f851c82e70ff6c80c92926a4b)
REM
REM compiler GCC version 9.2.1 20190827 (Red Hat 9.2.1-1)
REM options -cpp -mtune=generic -march=x86-64 -g -O0 -fpre-include=/usr/include/finclude/math-vector-fortran.h
REM seed -607716369 666236116 -1056270973 -2125030427 508608347 -1446932652 1307898158 -1286793832 14912348 796703081 140860200 -432322980 1474312558 183826423 1501201023 -1175694966 303905259 1011991566 352037777 -1124669541 -873790492 2101356712 1692142815 2035591286 1601656465 1469546978 -1517260482 312602861 -902152386 -399518784 -1025565566 -65750211 -669713883
REM
CELL 1.54180   50.00000   50.00000   50.00000   90.00000   90.00000   90.00000
LATT -1
SFAC C  
C      1  0.3886510000000  0.4862390000000  0.4370350000000 1.0
C      1  0.4536290000000  0.4834720000000  0.6096330000000 1.0
C      1  0.5509470000000  0.4307360000000  0.5170660000000 1.0
C      1  0.5885840000000  0.5745320000000  0.4884580000000 1.0
C      1  0.4481970000000  0.4225170000000  0.5286850000000 1.0
C      1  0.4731000000000  0.4720530000000  0.5127150000000 1.0
C      1  0.4850320000000  0.5033550000000  0.4432350000000 1.0
C      1  0.5630520000000  0.4757860000000  0.5793700000000 1.0
C      1  0.5175190000000  0.4897750000000  0.6002750000000 1.0
C      1  0.5726230000000  0.5721870000000  0.5409740000000 1.0
C      1  0.4697600000000  0.4620430000000  0.4226900000000 1.0
C      1  0.5221680000000  0.5304360000000  0.4232540000000 1.0
C      1  0.4784640000000  0.4475810000000  0.4942680000000 1.0
C      1  0.5513910000000  0.5502440000000  0.4944100000000 1.0
C      1  0.5315320000000  0.5191120000000  0.5901560000000 1.0
C      1  0.5552890000000  0.5074230000000  0.5566520000000 1.0
C      1  0.5313450000000  0.4711480000000  0.5679660000000 1.0
C      1  0.4177090000000  0.4688450000000  0.5405100000000 1.0
C      1  0.4723760000000  0.4284100000000  0.4306380000000 1.0
C      1  0.4844110000000  0.4986640000000  0.4948260000000 1.0
C      1  0.4715460000000  0.4781210000000  0.3960560000000 1.0
C      1  0.4675060000000  0.4018270000000  0.4752130000000 1.0
C      1  0.5456490000000  0.5496160000000  0.5849660000000 1.0
C      1  0.5513940000000  0.5691470000000  0.4424750000000 1.0
C      1  0.4137740000000  0.4727020000000  0.4836420000000 1.0
C      1  0.5051080000000  0.4793470000000  0.4759950000000 1.0
C      1  0.5897210000000  0.5494880000000  0.4716080000000 1.0
C      1  0.5232700000000  0.5773910000000  0.4455870000000 1.0
C      1  0.4336260000000  0.5123700000000  0.4371210000000 1.0
C      1  0.5951580000000  0.4635520000000  0.4756620000000 1.0
C      1  0.4601680000000  0.5974390000000  0.4754900000000 1.0
C      1  0.4394430000000  0.5385730000000  0.5265360000000 1.0
C      1  0.4663850000000  0.4494310000000  0.5777610000000 1.0
C      1  0.4213800000000  0.5422010000000  0.4323610000000 1.0
C      1  0.4497250000000  0.4799740000000  0.4640020000000 1.0
C      1  0.5942090000000  0.4308490000000  0.4680050000000 1.0
C      1  0.4545090000000  0.4507030000000  0.4749550000000 1.0
C      1  0.4727770000000  0.4014920000000  0.5289290000000 1.0
C      1  0.4759810000000  0.5832240000000  0.4975830000000 1.0
C      1  0.4274140000000  0.5630340000000  0.4529690000000 1.0
C      1  0.5979470000000  0.4410530000000  0.4999650000000 1.0
C      1  0.5422540000000  0.4703550000000  0.3960350000000 1.0
C      1  0.4779530000000  0.4725790000000  0.5604250000000 1.0
C      1  0.5256850000000  0.5171390000000  0.5566590000000 1.0
C      1  0.4609430000000  0.6247960000000  0.4737950000000 1.0
C      1  0.3971620000000  0.5229890000000  0.5479530000000 1.0
C      1  0.3818380000000  0.5039280000000  0.4854280000000 1.0
C      1  0.4253420000000  0.4917020000000  0.5086260000000 1.0
C      1  0.5039890000000  0.5492610000000  0.4135040000000 1.0
C      1  0.5397320000000  0.4569110000000  0.4694870000000 1.0
C      1  0.5200600000000  0.5020410000000  0.4059620000000 1.0
C      1  0.4742610000000  0.4154730000000  0.4983600000000 1.0
C      1  0.5040580000000  0.4511630000000  0.5644430000000 1.0
C      1  0.4004930000000  0.5114180000000  0.4674880000000 1.0
C      1  0.5578630000000  0.4803310000000  0.5357170000000 1.0
C      1  0.4323550000000  0.5092410000000  0.5348490000000 1.0
C      1  0.4868730000000  0.5189440000000  0.4685660000000 1.0
C      1  0.4997340000000  0.5492920000000  0.4669230000000 1.0
C      1  0.5013980000000  0.5714930000000  0.4298290000000 1.0
C      1  0.4522080000000  0.4941500000000  0.5557150000000 1.0
C      1  0.4664390000000  0.5652990000000  0.4018140000000 1.0
C      1  0.4493880000000  0.4169820000000  0.4522020000000 1.0
C      1  0.4576470000000  0.4182950000000  0.5762840000000 1.0
C      1  0.5263430000000  0.5344730000000  0.4535450000000 1.0
C      1  0.5234230000000  0.5330240000000  0.5299340000000 1.0
C      1  0.5578980000000  0.5099140000000  0.4521810000000 1.0
C      1  0.5858740000000  0.4716380000000  0.5628410000000 1.0
C      1  0.4422090000000  0.5131850000000  0.4700140000000 1.0
C      1  0.4342230000000  0.4899590000000  0.5831560000000 1.0
C      1  0.5106160000000  0.4345330000000  0.4208110000000 1.0
C      1  0.5874400000000  0.4958190000000  0.4503010000000 1.0
C      1  0.4726490000000  0.5936140000000  0.5268300000000 1.0
C      1  0.4795240000000  0.5122400000000  0.5648190000000 1.0
C      1  0.5593470000000  0.5230940000000  0.5087180000000 1.0
C      1  0.4152500000000  0.4533820000000  0.5115810000000 1.0
C      1  0.4809140000000  0.4714880000000  0.4533950000000 1.0
C      1  0.5546370000000  0.5930170000000  0.5392430000000 1.0
C      1  0.5017200000000  0.5685580000000  0.4924580000000 1.0
C      1  0.5025840000000  0.5202810000000  0.5117580000000 1.0
C      1  0.4432030000000  0.4447740000000  0.4336160000000 1.0
C      1  0.4290180000000  0.4287430000000  0.5081210000000 1.0
C      1  0.4962130000000  0.4412110000000  0.4509050000000 1.0
C      1  0.5946840000000  0.4942190000000  0.5427610000000 1.0
C      1  0.5571590000000  0.6035320000000  0.5109920000000 1.0
C      1  0.5746020000000  0.4549850000000  0.5203940000000 1.0
C      1  0.4875230000000  0.5058040000000  0.3968180000000 1.0
C      1  0.4943870000000  0.4276210000000  0.5314500000000 1.0
C      1  0.4182500000000  0.4864010000000  0.4528190000000 1.0
C      1  0.4225160000000  0.4607020000000  0.5710000000000 1.0
C      1  0.5375420000000  0.5033510000000  0.5211140000000 1.0
C      1  0.5313600000000  0.5714880000000  0.4768820000000 1.0
C      1  0.4896310000000  0.4202790000000  0.5643260000000 1.0
C      1  0.5535900000000  0.4964830000000  0.4048640000000 1.0
C      1  0.5746690000000  0.5209030000000  0.5360440000000 1.0
C      1  0.4361780000000  0.5241200000000  0.5873310000000 1.0
C      1  0.4986830000000  0.4797610000000  0.5270230000000 1.0
C      1  0.4803240000000  0.5658000000000  0.5658640000000 1.0
C      1  0.5367120000000  0.4907830000000  0.4706920000000 1.0
C      1  0.4460760000000  0.5887670000000  0.5370170000000 1.0
C      1  0.5582860000000  0.5424540000000  0.4620390000000 1.0
C      1  0.5034290000000  0.5359340000000  0.5981100000000 1.0
C      1  0.5328660000000  0.4240010000000  0.4643440000000 1.0
C      1  0.4967080000000  0.4365340000000  0.3933990000000 1.0
C      1  0.5929910000000  0.5472050000000  0.5421710000000 1.0
C      1  0.5110030000000  0.4878600000000  0.4331020000000 1.0
C      1  0.5796830000000  0.6013330000000  0.4924670000000 1.0
C      1  0.4944250000000  0.4618260000000  0.3832750000000 1.0
C      1  0.4262910000000  0.5812040000000  0.5166780000000 1.0
C      1  0.4488990000000  0.5809080000000  0.4549320000000 1.0
C      1  0.4561020000000  0.5440600000000  0.4731540000000 1.0
C      1  0.5903400000000  0.6227040000000  0.4800780000000 1.0
C      1  0.3990670000000  0.4939860000000  0.5383310000000 1.0
C      1  0.5606730000000  0.4053670000000  0.4995190000000 1.0
C      1  0.4592910000000  0.5603760000000  0.5091030000000 1.0
C      1  0.4462070000000  0.5459340000000  0.5721410000000 1.0
C      1  0.5259520000000  0.4657830000000  0.4404160000000 1.0
C      1  0.4083420000000  0.5411730000000  0.5340390000000 1.0
C      1  0.5489520000000  0.4518580000000  0.5508530000000 1.0
C      1  0.5342100000000  0.5868190000000  0.5054320000000 1.0
C      1  0.5791990000000  0.5573300000000  0.5126570000000 1.0
C      1  0.4316390000000  0.5579110000000  0.4924470000000 1.0
C      1  0.4736310000000  0.4654030000000  0.6035070000000 1.0
C      1  0.4710530000000  0.5296920000000  0.5176620000000 1.0
C      1  0.5628580000000  0.4984170000000  0.4906920000000 1.0
C      1  0.4173830000000  0.5363980000000  0.4715920000000 1.0
C      1  0.4295510000000  0.4346330000000  0.5782420000000 1.0
C      1  0.4570430000000  0.5129790000000  0.6063520000000 1.0
C      1  0.5885180000000  0.4462190000000  0.5500520000000 1.0
C      1  0.4527360000000  0.4440270000000  0.5470600000000 1.0
C      1  0.5196610000000  0.4190900000000  0.5105120000000 1.0
C      1  0.4194050000000  0.4584660000000  0.4334650000000 1.0
C      1  0.5944760000000  0.4946340000000  0.4835450000000 1.0
C      1  0.6039280000000  0.5271540000000  0.4800980000000 1.0
C      1  0.4475630000000  0.4793670000000  0.3815030000000 1.0
C      1  0.5571600000000  0.4075970000000  0.4746150000000 1.0
C      1  0.4642170000000  0.5218570000000  0.4299020000000 1.0
C      1  0.5177220000000  0.4767880000000  0.3806530000000 1.0
C      1  0.5014470000000  0.4674830000000  0.5941820000000 1.0
C      1  0.5025020000000  0.5608980000000  0.5851390000000 1.0
C      1  0.4930320000000  0.5862640000000  0.5453190000000 1.0
C      1  0.4519980000000  0.5071760000000  0.5002080000000 1.0
C      1  0.5215510000000  0.4113220000000  0.4388520000000 1.0
C      1  0.4713960000000  0.5378850000000  0.5506620000000 1.0
C      1  0.5275070000000  0.5680880000000  0.5750790000000 1.0
C      1  0.5963230000000  0.4804790000000  0.5144180000000 1.0
C      1  0.4373830000000  0.4271300000000  0.4815270000000 1.0
C      1  0.5739740000000  0.5085510000000  0.4223300000000 1.0
C      1  0.4483460000000  0.5762000000000  0.5632040000000 1.0
C      1  0.5903840000000  0.5272310000000  0.4097790000000 1.0
C      1  0.5620670000000  0.5041590000000  0.5898100000000 1.0
C      1  0.5175540000000  0.5167710000000  0.4813910000000 1.0
C      1  0.4728540000000  0.5498110000000  0.4475440000000 1.0
C      1  0.5065450000000  0.4326430000000  0.4822170000000 1.0
C      1  0.5142060000000  0.4523680000000  0.5319890000000 1.0
C      1  0.5697720000000  0.4526600000000  0.4592560000000 1.0
C      1  0.4697940000000  0.5786310000000  0.4315170000000 1.0
C      1  0.4504690000000  0.4703190000000  0.5315220000000 1.0
C      1  0.5198800000000  0.4841650000000  0.5062510000000 1.0
C      1  0.4774000000000  0.5347670000000  0.4034820000000 1.0
C      1  0.5371280000000  0.4522550000000  0.4168890000000 1.0
C      1  0.3914770000000  0.4947420000000  0.5083310000000 1.0
C      1  0.5028790000000  0.3923830000000  0.5158710000000 1.0
C      1  0.5180720000000  0.5620080000000  0.5217600000000 1.0
C      1  0.5069070000000  0.3975890000000  0.5749870000000 1.0
C      1  0.5557620000000  0.4233440000000  0.5491980000000 1.0
C      1  0.4815170000000  0.5197730000000  0.5941840000000 1.0
C      1  0.6121640000000  0.5216700000000  0.5489250000000 1.0
C      1  0.5332040000000  0.4557540000000  0.5029130000000 1.0
C      1  0.5058690000000  0.4917280000000  0.5572150000000 1.0
C      1  0.5263090000000  0.5828770000000  0.5464290000000 1.0
C      1  0.5837520000000  0.4177700000000  0.5580990000000 1.0
END
