TITL C-2847952-8118-338 -0.00332757204066142 125000 -536.465490455845 0 0 101 (C1) n - 1
REM
REM in /home/bkarasulu/work/CARBON/AIRSS/Generating-Clusters/AIREBO/with-SteepDescent/Only-C1/SD-CG-opt/Try1-1.4A-POS3A/HFTN-CG
REM
REM
REM
REM
REM
REM ./C.cell (11c1c37f851c82e70ff6c80c92926a4b)
REM
REM compiler GCC version 9.2.1 20190827 (Red Hat 9.2.1-1)
REM options -cpp -mtune=generic -march=x86-64 -g -O0 -fpre-include=/usr/include/finclude/math-vector-fortran.h
REM seed 1452021994 1685337278 176795895 1611256604 -1737230192 1073408473 -1875327728 1843555509 -424281150 -1108705726 1764471930 -2128726271 1814265225 451742003 1074339544 -2004540157 -179090488 1870257371 947272426 1436905186 -1960692699 1559607423 724518118 -1051970075 -297335952 73273478 -765415435 1861024188 -1267855667 -764614043 702708468 924995552 -164044356
REM
CELL 1.54180   50.00000   50.00000   50.00000   90.00000   90.00000   90.00000
LATT -1
SFAC C  
C      1  0.5437850000000  0.4517680000000  0.5675420000000 1.0
C      1  0.4752850000000  0.4511240000000  0.4800400000000 1.0
C      1  0.5058610000000  0.4711040000000  0.4058600000000 1.0
C      1  0.5222300000000  0.5734640000000  0.5416340000000 1.0
C      1  0.4271040000000  0.5038220000000  0.4952860000000 1.0
C      1  0.5183240000000  0.5308990000000  0.4495220000000 1.0
C      1  0.5022940000000  0.5679620000000  0.4342630000000 1.0
C      1  0.4042010000000  0.5288190000000  0.4361420000000 1.0
C      1  0.4506390000000  0.4363440000000  0.5360030000000 1.0
C      1  0.4822320000000  0.4993620000000  0.5504010000000 1.0
C      1  0.4832520000000  0.3990330000000  0.4939700000000 1.0
C      1  0.4593600000000  0.4819790000000  0.5780490000000 1.0
C      1  0.5741340000000  0.4600230000000  0.4977330000000 1.0
C      1  0.5073420000000  0.5727710000000  0.4977090000000 1.0
C      1  0.4649700000000  0.4593620000000  0.5291180000000 1.0
C      1  0.5725360000000  0.4576240000000  0.5258530000000 1.0
C      1  0.4568710000000  0.4117900000000  0.5161700000000 1.0
C      1  0.5069620000000  0.4536020000000  0.4326980000000 1.0
C      1  0.5171090000000  0.4808300000000  0.5733230000000 1.0
C      1  0.4799830000000  0.5422290000000  0.5506880000000 1.0
C      1  0.5752260000000  0.5393050000000  0.4850090000000 1.0
C      1  0.5544710000000  0.5354870000000  0.5538170000000 1.0
C      1  0.4441920000000  0.5026360000000  0.5616440000000 1.0
C      1  0.4882030000000  0.4380750000000  0.5536570000000 1.0
C      1  0.5937930000000  0.5053960000000  0.5244630000000 1.0
C      1  0.4513870000000  0.5306490000000  0.5550390000000 1.0
C      1  0.5402550000000  0.4810160000000  0.4993830000000 1.0
C      1  0.4367500000000  0.5415430000000  0.5321260000000 1.0
C      1  0.5157150000000  0.5284740000000  0.5403540000000 1.0
C      1  0.4319720000000  0.4904710000000  0.5381710000000 1.0
C      1  0.5124120000000  0.4773110000000  0.4641730000000 1.0
C      1  0.5044910000000  0.4224320000000  0.4981340000000 1.0
C      1  0.5611900000000  0.4485470000000  0.5921900000000 1.0
C      1  0.4494560000000  0.4828330000000  0.5100120000000 1.0
C      1  0.5367570000000  0.5560190000000  0.5602510000000 1.0
C      1  0.4667180000000  0.5250340000000  0.4721800000000 1.0
C      1  0.5549030000000  0.4373180000000  0.5400940000000 1.0
C      1  0.5627870000000  0.4958400000000  0.5201140000000 1.0
C      1  0.4713160000000  0.5376000000000  0.4999270000000 1.0
C      1  0.5100450000000  0.5170780000000  0.6095880000000 1.0
C      1  0.4778790000000  0.5084470000000  0.4112600000000 1.0
C      1  0.4372960000000  0.4301190000000  0.4988830000000 1.0
C      1  0.5539930000000  0.5038900000000  0.4782920000000 1.0
C      1  0.5570470000000  0.4780360000000  0.4338030000000 1.0
C      1  0.5477130000000  0.5106580000000  0.4315990000000 1.0
C      1  0.5027880000000  0.5518690000000  0.4798310000000 1.0
C      1  0.5353830000000  0.5291740000000  0.4788950000000 1.0
C      1  0.5601580000000  0.5597490000000  0.5079850000000 1.0
C      1  0.5365110000000  0.4271770000000  0.4905460000000 1.0
C      1  0.4623360000000  0.5673670000000  0.4533870000000 1.0
C      1  0.5808830000000  0.4848420000000  0.4862790000000 1.0
C      1  0.4529640000000  0.5589210000000  0.5131190000000 1.0
C      1  0.4322510000000  0.4543910000000  0.5028190000000 1.0
C      1  0.5031240000000  0.5411140000000  0.5986510000000 1.0
C      1  0.4378530000000  0.5184050000000  0.4698940000000 1.0
C      1  0.5398210000000  0.5067990000000  0.5506070000000 1.0
C      1  0.4562320000000  0.5875280000000  0.4707090000000 1.0
C      1  0.5643780000000  0.5296830000000  0.5234170000000 1.0
C      1  0.5075140000000  0.5454400000000  0.5688980000000 1.0
C      1  0.5192690000000  0.4967850000000  0.5941110000000 1.0
C      1  0.4804880000000  0.4653450000000  0.5728140000000 1.0
C      1  0.4501600000000  0.5468880000000  0.4352900000000 1.0
C      1  0.5172860000000  0.5004140000000  0.4396570000000 1.0
C      1  0.5199890000000  0.4566390000000  0.5117440000000 1.0
C      1  0.4865920000000  0.5430400000000  0.4512640000000 1.0
C      1  0.5523260000000  0.4764760000000  0.5457920000000 1.0
C      1  0.4579970000000  0.4879090000000  0.4135070000000 1.0
C      1  0.4933310000000  0.5719800000000  0.5427270000000 1.0
C      1  0.4848500000000  0.4972150000000  0.4648520000000 1.0
C      1  0.5068100000000  0.4526030000000  0.4827360000000 1.0
C      1  0.4564170000000  0.5874100000000  0.4974520000000 1.0
C      1  0.5149060000000  0.5849170000000  0.4199550000000 1.0
C      1  0.4041050000000  0.4882790000000  0.4881820000000 1.0
C      1  0.5032420000000  0.4973050000000  0.4131030000000 1.0
C      1  0.4295770000000  0.4343740000000  0.5527680000000 1.0
C      1  0.5889760000000  0.5234210000000  0.4686990000000 1.0
C      1  0.4514720000000  0.4640970000000  0.4312070000000 1.0
C      1  0.5129280000000  0.4886150000000  0.5404880000000 1.0
C      1  0.4285680000000  0.5312330000000  0.4470910000000 1.0
C      1  0.5374360000000  0.5418790000000  0.4264170000000 1.0
C      1  0.4732980000000  0.5333910000000  0.4214880000000 1.0
C      1  0.5117740000000  0.4978030000000  0.5073380000000 1.0
C      1  0.4643560000000  0.4766870000000  0.4810560000000 1.0
C      1  0.5465900000000  0.4542530000000  0.4793550000000 1.0
C      1  0.4328010000000  0.4463890000000  0.4363380000000 1.0
C      1  0.5722660000000  0.5023190000000  0.4514370000000 1.0
C      1  0.5355970000000  0.4306150000000  0.5217580000000 1.0
C      1  0.5342050000000  0.5301150000000  0.5128660000000 1.0
C      1  0.4880560000000  0.5262810000000  0.5221700000000 1.0
C      1  0.4822590000000  0.5795250000000  0.5152020000000 1.0
C      1  0.5512150000000  0.5588830000000  0.4752380000000 1.0
C      1  0.5008240000000  0.4264040000000  0.4308630000000 1.0
C      1  0.5366090000000  0.4607990000000  0.4480480000000 1.0
C      1  0.4203610000000  0.5245930000000  0.5182700000000 1.0
C      1  0.5106830000000  0.4497690000000  0.5744020000000 1.0
C      1  0.4866470000000  0.4225320000000  0.5256840000000 1.0
C      1  0.4799340000000  0.4950070000000  0.5189350000000 1.0
C      1  0.4966700000000  0.4608660000000  0.5311580000000 1.0
C      1  0.5309450000000  0.5731330000000  0.5142420000000 1.0
C      1  0.5038560000000  0.5176500000000  0.4843030000000 1.0
C      1  0.4816940000000  0.4755770000000  0.4387890000000 1.0
END
