TITL C-2848495-5024-216 -0.00202349414942103 125000 -922.638995363855 0 0 173 (C1) n - 1
REM
REM in /home/bkarasulu/work/CARBON/AIRSS/Generating-Clusters/AIREBO/with-SteepDescent/Only-C1/SD-CG-opt/Try1-1.4A-POS3A/HFTN-CG
REM
REM
REM
REM
REM
REM ./C.cell (11c1c37f851c82e70ff6c80c92926a4b)
REM
REM compiler GCC version 9.2.1 20190827 (Red Hat 9.2.1-1)
REM options -cpp -mtune=generic -march=x86-64 -g -O0 -fpre-include=/usr/include/finclude/math-vector-fortran.h
REM seed 1333177132 -634292590 -227370912 -397486009 -1172308916 2067737671 941517653 -1021790608 -1900817191 933366478 1169516351 -1966599637 -1501046765 1147562503 1755687832 266984723 1164313553 1333828499 -110785401 327272193 -578862656 -412206915 705720402 -812656124 1645072472 -59435917 -1137700095 -746770938 -280834046 -2114571135 -1233863922 -2082868064 -457979963
REM
CELL 1.54180   50.00000   50.00000   50.00000   90.00000   90.00000   90.00000
LATT -1
SFAC C  
C      1  0.3889430000000  0.4758840000000  0.5051680000000 1.0
C      1  0.5569680000000  0.4724810000000  0.4331290000000 1.0
C      1  0.5069310000000  0.4119680000000  0.5642720000000 1.0
C      1  0.4319450000000  0.5389940000000  0.5348000000000 1.0
C      1  0.5876230000000  0.4818540000000  0.4444910000000 1.0
C      1  0.5314600000000  0.4486770000000  0.3946050000000 1.0
C      1  0.4587650000000  0.5439250000000  0.4584030000000 1.0
C      1  0.4692040000000  0.4328690000000  0.4280500000000 1.0
C      1  0.4687170000000  0.4449480000000  0.5866400000000 1.0
C      1  0.4746420000000  0.5320770000000  0.5900790000000 1.0
C      1  0.5262840000000  0.5098960000000  0.3892000000000 1.0
C      1  0.4481070000000  0.4723760000000  0.4758120000000 1.0
C      1  0.5287570000000  0.5388760000000  0.4647850000000 1.0
C      1  0.4900230000000  0.5810990000000  0.4660610000000 1.0
C      1  0.4468760000000  0.4559110000000  0.4162670000000 1.0
C      1  0.4351810000000  0.5109440000000  0.4073220000000 1.0
C      1  0.5703950000000  0.5178570000000  0.4093380000000 1.0
C      1  0.4992580000000  0.5054260000000  0.4515990000000 1.0
C      1  0.4529350000000  0.4306310000000  0.5396090000000 1.0
C      1  0.4093490000000  0.5605970000000  0.5454750000000 1.0
C      1  0.4406950000000  0.5772290000000  0.5271980000000 1.0
C      1  0.4796500000000  0.5442220000000  0.5073970000000 1.0
C      1  0.5551350000000  0.5603980000000  0.4668920000000 1.0
C      1  0.3868970000000  0.4839000000000  0.4557750000000 1.0
C      1  0.5519550000000  0.4157370000000  0.5070120000000 1.0
C      1  0.4844450000000  0.4202630000000  0.4741870000000 1.0
C      1  0.5534330000000  0.5086560000000  0.3852620000000 1.0
C      1  0.5620600000000  0.5469580000000  0.4173110000000 1.0
C      1  0.4072810000000  0.5745960000000  0.5145540000000 1.0
C      1  0.5576920000000  0.4030280000000  0.4605110000000 1.0
C      1  0.5167840000000  0.4675890000000  0.5808760000000 1.0
C      1  0.5877520000000  0.4492060000000  0.5507640000000 1.0
C      1  0.5074850000000  0.5586290000000  0.4470780000000 1.0
C      1  0.4734290000000  0.4678630000000  0.3736870000000 1.0
C      1  0.4250900000000  0.5378870000000  0.4255100000000 1.0
C      1  0.5367330000000  0.4903580000000  0.5074820000000 1.0
C      1  0.5176370000000  0.5451460000000  0.5555800000000 1.0
C      1  0.5589140000000  0.4486160000000  0.4855600000000 1.0
C      1  0.5640320000000  0.4245730000000  0.4467070000000 1.0
C      1  0.4969000000000  0.4763310000000  0.5361630000000 1.0
C      1  0.5460700000000  0.5453160000000  0.5440030000000 1.0
C      1  0.4694230000000  0.5176380000000  0.4417230000000 1.0
C      1  0.4238750000000  0.4434930000000  0.5274660000000 1.0
C      1  0.4482010000000  0.5628130000000  0.5528500000000 1.0
C      1  0.5511020000000  0.5195870000000  0.5302750000000 1.0
C      1  0.4623430000000  0.5691780000000  0.5050140000000 1.0
C      1  0.5376240000000  0.5582590000000  0.5071820000000 1.0
C      1  0.4336890000000  0.5814810000000  0.4942580000000 1.0
C      1  0.4126160000000  0.4352450000000  0.5038700000000 1.0
C      1  0.4455690000000  0.4226070000000  0.4851590000000 1.0
C      1  0.4863400000000  0.5210840000000  0.4142770000000 1.0
C      1  0.4600860000000  0.4623950000000  0.5297470000000 1.0
C      1  0.5126050000000  0.4561720000000  0.4722100000000 1.0
C      1  0.5567940000000  0.5001350000000  0.6032250000000 1.0
C      1  0.5515160000000  0.5593870000000  0.5710790000000 1.0
C      1  0.4799670000000  0.4664880000000  0.4462010000000 1.0
C      1  0.5054540000000  0.5145900000000  0.5034760000000 1.0
C      1  0.4898340000000  0.4877530000000  0.5098610000000 1.0
C      1  0.4368850000000  0.3939430000000  0.4786150000000 1.0
C      1  0.4666200000000  0.4744420000000  0.5831150000000 1.0
C      1  0.4125730000000  0.5339810000000  0.5871030000000 1.0
C      1  0.5616960000000  0.5391460000000  0.4926210000000 1.0
C      1  0.3870340000000  0.5562830000000  0.5014790000000 1.0
C      1  0.5277380000000  0.5162390000000  0.4394270000000 1.0
C      1  0.4876250000000  0.4006710000000  0.5020560000000 1.0
C      1  0.5336570000000  0.5061500000000  0.5775780000000 1.0
C      1  0.4602900000000  0.5735200000000  0.4521580000000 1.0
C      1  0.5509330000000  0.4420770000000  0.5369580000000 1.0
C      1  0.5260340000000  0.4640280000000  0.4217900000000 1.0
C      1  0.5856380000000  0.5490320000000  0.5440310000000 1.0
C      1  0.4831920000000  0.5108210000000  0.4783660000000 1.0
C      1  0.5294080000000  0.5812170000000  0.4590780000000 1.0
C      1  0.5435830000000  0.4503760000000  0.4552510000000 1.0
C      1  0.5389880000000  0.4593020000000  0.5110570000000 1.0
C      1  0.5127260000000  0.5146670000000  0.5581690000000 1.0
C      1  0.5078980000000  0.5469750000000  0.4185820000000 1.0
C      1  0.5210920000000  0.5076110000000  0.5302380000000 1.0
C      1  0.5386180000000  0.5109130000000  0.4814410000000 1.0
C      1  0.4625140000000  0.5015490000000  0.5988810000000 1.0
C      1  0.4099190000000  0.4712770000000  0.4867350000000 1.0
C      1  0.4217190000000  0.4429760000000  0.4720180000000 1.0
C      1  0.6013010000000  0.5451290000000  0.5141070000000 1.0
C      1  0.3987030000000  0.4568600000000  0.4511860000000 1.0
C      1  0.4668760000000  0.5124890000000  0.5140070000000 1.0
C      1  0.4347110000000  0.5170010000000  0.5870000000000 1.0
C      1  0.4933540000000  0.6043290000000  0.5265740000000 1.0
C      1  0.5132920000000  0.4511840000000  0.5278630000000 1.0
C      1  0.5831370000000  0.5296960000000  0.5681670000000 1.0
C      1  0.5406150000000  0.6075760000000  0.5098400000000 1.0
C      1  0.4826770000000  0.5602510000000  0.5858060000000 1.0
C      1  0.5171210000000  0.4796720000000  0.4506350000000 1.0
C      1  0.4327510000000  0.4852820000000  0.4191380000000 1.0
C      1  0.4648070000000  0.4219880000000  0.5089350000000 1.0
C      1  0.5388600000000  0.4195150000000  0.5581810000000 1.0
C      1  0.4624760000000  0.4448130000000  0.4657270000000 1.0
C      1  0.5200660000000  0.5147460000000  0.6075380000000 1.0
C      1  0.5734500000000  0.5533180000000  0.4420490000000 1.0
C      1  0.5220380000000  0.4244450000000  0.4506590000000 1.0
C      1  0.4425160000000  0.5056350000000  0.5602920000000 1.0
C      1  0.4452380000000  0.4735530000000  0.5582360000000 1.0
C      1  0.4903980000000  0.5151130000000  0.6131820000000 1.0
C      1  0.5474730000000  0.4754720000000  0.5733020000000 1.0
C      1  0.5009130000000  0.4441560000000  0.4332430000000 1.0
C      1  0.5159240000000  0.5849160000000  0.5530890000000 1.0
C      1  0.5614060000000  0.4877200000000  0.5287690000000 1.0
C      1  0.3881040000000  0.5320420000000  0.5077740000000 1.0
C      1  0.5428500000000  0.4813170000000  0.4693530000000 1.0
C      1  0.5958160000000  0.5077850000000  0.4288820000000 1.0
C      1  0.5728380000000  0.4787880000000  0.5544790000000 1.0
C      1  0.5996300000000  0.4986830000000  0.5326240000000 1.0
C      1  0.5938170000000  0.5391570000000  0.4814690000000 1.0
C      1  0.5026540000000  0.3863350000000  0.5514510000000 1.0
C      1  0.4314050000000  0.4440030000000  0.5673440000000 1.0
C      1  0.4877520000000  0.4771940000000  0.4774820000000 1.0
C      1  0.4846810000000  0.4874530000000  0.4194380000000 1.0
C      1  0.4387660000000  0.4369700000000  0.4426510000000 1.0
C      1  0.4410280000000  0.4030300000000  0.5485790000000 1.0
C      1  0.5797340000000  0.4876000000000  0.5001310000000 1.0
C      1  0.5569150000000  0.5062850000000  0.4374250000000 1.0
C      1  0.4104020000000  0.5047670000000  0.4636060000000 1.0
C      1  0.5385060000000  0.4049510000000  0.5287940000000 1.0
C      1  0.5619170000000  0.5681670000000  0.5288500000000 1.0
C      1  0.4510260000000  0.5165430000000  0.4770140000000 1.0
C      1  0.4587420000000  0.5329580000000  0.4064000000000 1.0
C      1  0.5946120000000  0.4665340000000  0.5223200000000 1.0
C      1  0.5138600000000  0.3838590000000  0.4884310000000 1.0
C      1  0.4926430000000  0.5414940000000  0.5363450000000 1.0
C      1  0.5596140000000  0.4442130000000  0.5691870000000 1.0
C      1  0.5646800000000  0.5275950000000  0.5907240000000 1.0
C      1  0.4847400000000  0.4473760000000  0.5117140000000 1.0
C      1  0.4905480000000  0.5830820000000  0.5001400000000 1.0
C      1  0.5083190000000  0.4451780000000  0.5584420000000 1.0
C      1  0.5716120000000  0.4899640000000  0.4729590000000 1.0
C      1  0.5064140000000  0.6035670000000  0.4497650000000 1.0
C      1  0.5347820000000  0.5430430000000  0.5956880000000 1.0
C      1  0.4828010000000  0.5119960000000  0.5659910000000 1.0
C      1  0.5756890000000  0.5184700000000  0.4614630000000 1.0
C      1  0.5295140000000  0.4820850000000  0.6082430000000 1.0
C      1  0.5739100000000  0.4407670000000  0.5142320000000 1.0
C      1  0.5329740000000  0.5859700000000  0.4891010000000 1.0
C      1  0.4825560000000  0.5942360000000  0.5534730000000 1.0
C      1  0.5805040000000  0.5190250000000  0.5132060000000 1.0
C      1  0.4260250000000  0.5004540000000  0.4935150000000 1.0
C      1  0.5105190000000  0.5433030000000  0.4930780000000 1.0
C      1  0.5666730000000  0.5916130000000  0.5093420000000 1.0
C      1  0.5131150000000  0.5340800000000  0.3876130000000 1.0
C      1  0.5123110000000  0.3884920000000  0.5216870000000 1.0
C      1  0.5385500000000  0.5569200000000  0.4079260000000 1.0
C      1  0.4258570000000  0.4774170000000  0.4505970000000 1.0
C      1  0.4185440000000  0.4691150000000  0.5390610000000 1.0
C      1  0.4036260000000  0.5552930000000  0.5714970000000 1.0
C      1  0.4020380000000  0.4875480000000  0.5278300000000 1.0
C      1  0.4506060000000  0.4832430000000  0.5078830000000 1.0
C      1  0.4673210000000  0.5753890000000  0.5677130000000 1.0
C      1  0.5171810000000  0.4959740000000  0.4142150000000 1.0
C      1  0.4131100000000  0.5166870000000  0.5194090000000 1.0
C      1  0.5313390000000  0.4106840000000  0.4803450000000 1.0
C      1  0.5731320000000  0.5838890000000  0.4836490000000 1.0
C      1  0.6009230000000  0.5354370000000  0.4482380000000 1.0
C      1  0.4355630000000  0.5158560000000  0.4467410000000 1.0
C      1  0.4626530000000  0.5268850000000  0.5429990000000 1.0
C      1  0.5086300000000  0.4330810000000  0.4921510000000 1.0
C      1  0.5228250000000  0.6099000000000  0.5310750000000 1.0
C      1  0.5098500000000  0.5682630000000  0.5240700000000 1.0
C      1  0.4923490000000  0.4811270000000  0.5655680000000 1.0
C      1  0.5827720000000  0.4533320000000  0.4624040000000 1.0
C      1  0.4373820000000  0.5894860000000  0.4673620000000 1.0
C      1  0.4812360000000  0.4117420000000  0.4459480000000 1.0
C      1  0.4785830000000  0.4309070000000  0.5623590000000 1.0
C      1  0.4694480000000  0.4701570000000  0.3992180000000 1.0
C      1  0.5932320000000  0.5035630000000  0.5615420000000 1.0
C      1  0.5129490000000  0.5641200000000  0.5798620000000 1.0
C      1  0.4493500000000  0.5594070000000  0.4231710000000 1.0
END
