TITL C-2848507-1641-530 -0.00133875378677731 125000 -658.679173694191 0 0 122 (C1) n - 1
REM
REM in /home/bkarasulu/work/CARBON/AIRSS/Generating-Clusters/AIREBO/with-SteepDescent/Only-C1/SD-CG-opt/Try1-1.4A-POS3A/HFTN-CG
REM
REM
REM
REM
REM
REM ./C.cell (11c1c37f851c82e70ff6c80c92926a4b)
REM
REM compiler GCC version 9.2.1 20190827 (Red Hat 9.2.1-1)
REM options -cpp -mtune=generic -march=x86-64 -g -O0 -fpre-include=/usr/include/finclude/math-vector-fortran.h
REM seed -1946543533 1981610890 619671274 744467114 2004124364 -2056850677 -384226404 -1844178370 754078283 1425975399 -1445653763 310089957 -379241071 1816441909 1583900719 564487315 -14392458 948977274 -235290443 902883553 721102153 1233562107 -1751897178 -225140610 1736448141 -1080146707 168068474 -749142076 1732586121 1567381475 741246352 1294876456 475154599
REM
CELL 1.54180   50.00000   50.00000   50.00000   90.00000   90.00000   90.00000
LATT -1
SFAC C  
C      1  0.5339960000000  0.4070560000000  0.4779250000000 1.0
C      1  0.4198260000000  0.5109380000000  0.4830450000000 1.0
C      1  0.5369810000000  0.4035340000000  0.5099530000000 1.0
C      1  0.4316860000000  0.5006610000000  0.5608290000000 1.0
C      1  0.4959140000000  0.5440960000000  0.4216730000000 1.0
C      1  0.4479620000000  0.5783640000000  0.5044630000000 1.0
C      1  0.5658580000000  0.5688410000000  0.4638800000000 1.0
C      1  0.5400700000000  0.5502070000000  0.4514910000000 1.0
C      1  0.4603960000000  0.4552920000000  0.5501650000000 1.0
C      1  0.4861790000000  0.4547360000000  0.5035830000000 1.0
C      1  0.4349250000000  0.4856230000000  0.4199210000000 1.0
C      1  0.5684770000000  0.5747550000000  0.4903980000000 1.0
C      1  0.4937960000000  0.5921160000000  0.5025450000000 1.0
C      1  0.5445090000000  0.4576430000000  0.4179910000000 1.0
C      1  0.4522620000000  0.4290090000000  0.5547640000000 1.0
C      1  0.4594510000000  0.5704850000000  0.5651310000000 1.0
C      1  0.5810230000000  0.5127770000000  0.4613500000000 1.0
C      1  0.5036990000000  0.4358220000000  0.4509020000000 1.0
C      1  0.4452370000000  0.4290880000000  0.4583770000000 1.0
C      1  0.5413480000000  0.5297420000000  0.5805820000000 1.0
C      1  0.3982710000000  0.4982610000000  0.5674960000000 1.0
C      1  0.4937710000000  0.4976200000000  0.4596260000000 1.0
C      1  0.4542160000000  0.4740590000000  0.4811220000000 1.0
C      1  0.5456480000000  0.4580830000000  0.5630070000000 1.0
C      1  0.5701360000000  0.4874570000000  0.5084480000000 1.0
C      1  0.5582950000000  0.5755930000000  0.5577740000000 1.0
C      1  0.5467200000000  0.4584260000000  0.4813780000000 1.0
C      1  0.5725870000000  0.5403130000000  0.4527340000000 1.0
C      1  0.5086650000000  0.4809790000000  0.4459460000000 1.0
C      1  0.5175150000000  0.4892850000000  0.5068350000000 1.0
C      1  0.4583240000000  0.5508110000000  0.4874280000000 1.0
C      1  0.5603900000000  0.4748610000000  0.5804570000000 1.0
C      1  0.5128010000000  0.5742640000000  0.4674090000000 1.0
C      1  0.5574800000000  0.4403840000000  0.4564200000000 1.0
C      1  0.4683460000000  0.4995030000000  0.4917280000000 1.0
C      1  0.5462790000000  0.4973220000000  0.5230920000000 1.0
C      1  0.6029510000000  0.5285690000000  0.5358650000000 1.0
C      1  0.5510930000000  0.5236870000000  0.5403830000000 1.0
C      1  0.4736590000000  0.5755950000000  0.4600980000000 1.0
C      1  0.4735660000000  0.5666680000000  0.4340390000000 1.0
C      1  0.5014750000000  0.4925610000000  0.5772060000000 1.0
C      1  0.4884190000000  0.4638430000000  0.5649190000000 1.0
C      1  0.4894680000000  0.5529140000000  0.4798920000000 1.0
C      1  0.5600660000000  0.5275790000000  0.4919320000000 1.0
C      1  0.4070330000000  0.5102170000000  0.5398760000000 1.0
C      1  0.4999430000000  0.5119320000000  0.4898540000000 1.0
C      1  0.5134910000000  0.5513340000000  0.5615980000000 1.0
C      1  0.5067060000000  0.6153540000000  0.5089370000000 1.0
C      1  0.5374210000000  0.5612170000000  0.5411890000000 1.0
C      1  0.5498330000000  0.4346990000000  0.5131900000000 1.0
C      1  0.5507090000000  0.5014650000000  0.5799250000000 1.0
C      1  0.4407720000000  0.5404700000000  0.5146140000000 1.0
C      1  0.4750770000000  0.5211350000000  0.5850030000000 1.0
C      1  0.4661580000000  0.4965190000000  0.5224860000000 1.0
C      1  0.5176160000000  0.4600830000000  0.4912140000000 1.0
C      1  0.5754260000000  0.4674240000000  0.4208680000000 1.0
C      1  0.5146810000000  0.5639320000000  0.4378720000000 1.0
C      1  0.5392020000000  0.3788680000000  0.5211840000000 1.0
C      1  0.4702570000000  0.5889200000000  0.4869100000000 1.0
C      1  0.5320260000000  0.4760990000000  0.5416810000000 1.0
C      1  0.4066000000000  0.4662900000000  0.5138140000000 1.0
C      1  0.5079910000000  0.5264590000000  0.5841320000000 1.0
C      1  0.6086310000000  0.5199520000000  0.5128340000000 1.0
C      1  0.5304130000000  0.4354790000000  0.5651810000000 1.0
C      1  0.4657170000000  0.5284660000000  0.5317820000000 1.0
C      1  0.4522880000000  0.5785690000000  0.5322060000000 1.0
C      1  0.5036890000000  0.4565520000000  0.3880700000000 1.0
C      1  0.4967750000000  0.5307470000000  0.5181110000000 1.0
C      1  0.5043120000000  0.4393330000000  0.5473940000000 1.0
C      1  0.5767890000000  0.5949390000000  0.5439480000000 1.0
C      1  0.4953040000000  0.4707420000000  0.4178140000000 1.0
C      1  0.5288650000000  0.4713660000000  0.3965800000000 1.0
C      1  0.5957690000000  0.4471320000000  0.5003050000000 1.0
C      1  0.5253580000000  0.4343600000000  0.4337300000000 1.0
C      1  0.4659370000000  0.5346380000000  0.4313070000000 1.0
C      1  0.5535820000000  0.4955570000000  0.4552000000000 1.0
C      1  0.4416860000000  0.5295430000000  0.4513930000000 1.0
C      1  0.4428380000000  0.4803340000000  0.4496950000000 1.0
C      1  0.5171630000000  0.5349380000000  0.4716560000000 1.0
C      1  0.5597490000000  0.5475150000000  0.5712310000000 1.0
C      1  0.4191330000000  0.4287420000000  0.5087940000000 1.0
C      1  0.5248310000000  0.5004500000000  0.5591260000000 1.0
C      1  0.5010980000000  0.5644400000000  0.5165430000000 1.0
C      1  0.4145720000000  0.4908440000000  0.4629640000000 1.0
C      1  0.4633310000000  0.3987440000000  0.5016790000000 1.0
C      1  0.5795210000000  0.4898460000000  0.4362190000000 1.0
C      1  0.5870320000000  0.5097350000000  0.4939180000000 1.0
C      1  0.5496710000000  0.5544240000000  0.5101300000000 1.0
C      1  0.5764010000000  0.5431710000000  0.5418880000000 1.0
C      1  0.5235850000000  0.5667100000000  0.4949370000000 1.0
C      1  0.5131400000000  0.4967830000000  0.4047230000000 1.0
C      1  0.5389270000000  0.4683230000000  0.4497890000000 1.0
C      1  0.4355720000000  0.4571560000000  0.5041510000000 1.0
C      1  0.3913730000000  0.4823420000000  0.4545950000000 1.0
C      1  0.5697650000000  0.4574270000000  0.5029130000000 1.0
C      1  0.5078790000000  0.5224960000000  0.4040570000000 1.0
C      1  0.4501740000000  0.5204680000000  0.4814740000000 1.0
C      1  0.4491200000000  0.4773450000000  0.5688660000000 1.0
C      1  0.4188000000000  0.5447210000000  0.4616590000000 1.0
C      1  0.4834040000000  0.4507970000000  0.4390110000000 1.0
C      1  0.5517230000000  0.4141390000000  0.4587970000000 1.0
C      1  0.5047620000000  0.4661850000000  0.5283090000000 1.0
C      1  0.4123150000000  0.5218680000000  0.5143550000000 1.0
C      1  0.4528040000000  0.5467940000000  0.5828370000000 1.0
C      1  0.4613210000000  0.4655160000000  0.5218670000000 1.0
C      1  0.4525500000000  0.5223720000000  0.5604870000000 1.0
C      1  0.5085090000000  0.4281570000000  0.4838380000000 1.0
C      1  0.4032060000000  0.4312020000000  0.5324900000000 1.0
C      1  0.5771800000000  0.5696560000000  0.5231070000000 1.0
C      1  0.5432170000000  0.5177200000000  0.4741440000000 1.0
C      1  0.4654020000000  0.4436280000000  0.4812090000000 1.0
C      1  0.4400330000000  0.4060560000000  0.5132440000000 1.0
C      1  0.4660440000000  0.5051490000000  0.4482350000000 1.0
C      1  0.4793830000000  0.4162420000000  0.4899610000000 1.0
C      1  0.4564570000000  0.4512030000000  0.4430600000000 1.0
C      1  0.4933450000000  0.5748200000000  0.5666400000000 1.0
C      1  0.4166160000000  0.5464030000000  0.4912090000000 1.0
C      1  0.4030630000000  0.4232800000000  0.4858770000000 1.0
C      1  0.4712690000000  0.4874120000000  0.5873530000000 1.0
C      1  0.5182840000000  0.5262920000000  0.5416080000000 1.0
C      1  0.4792580000000  0.5593140000000  0.5398470000000 1.0
C      1  0.5163820000000  0.4296240000000  0.5171040000000 1.0
END
