TITL C-2847953-8112-207 -0.0390716740618561 125000 -860.207016400531 0 0 159 (C1) n - 1
REM
REM in /home/bkarasulu/work/CARBON/AIRSS/Generating-Clusters/AIREBO/with-SteepDescent/Only-C1/SD-CG-opt/Try1-1.4A-POS3A/HFTN-CG
REM
REM
REM
REM
REM
REM ./C.cell (11c1c37f851c82e70ff6c80c92926a4b)
REM
REM compiler GCC version 9.2.1 20190827 (Red Hat 9.2.1-1)
REM options -cpp -mtune=generic -march=x86-64 -g -O0 -fpre-include=/usr/include/finclude/math-vector-fortran.h
REM seed 811643124 1863457674 -1264844624 410723251 -1220533453 -422216249 1867194773 -1679959328 -220636727 2072909924 -2000850153 877213030 -1339762933 -1567627857 2078246780 -379768771 683050993 1283329278 -1917166805 -1986533142 543851335 919443179 -1821760694 -1305532119 -2050948756 331797371 959956937 -1963447717 1985058316 1188076064 -233363916 830490336 579412823
REM
CELL 1.54180   50.00000   50.00000   50.00000   90.00000   90.00000   90.00000
LATT -1
SFAC C  
C      1  0.5287470000000  0.4967510000000  0.5554840000000 1.0
C      1  0.5160130000000  0.4875630000000  0.6025780000000 1.0
C      1  0.5110120000000  0.4301990000000  0.4225580000000 1.0
C      1  0.5377570000000  0.4973330000000  0.3890850000000 1.0
C      1  0.5466320000000  0.5786840000000  0.4971170000000 1.0
C      1  0.5074350000000  0.6011490000000  0.4722360000000 1.0
C      1  0.5508180000000  0.4947290000000  0.5296840000000 1.0
C      1  0.5252020000000  0.4009430000000  0.4640130000000 1.0
C      1  0.5937210000000  0.4682360000000  0.5346150000000 1.0
C      1  0.4597020000000  0.4548280000000  0.5850560000000 1.0
C      1  0.5366420000000  0.4521010000000  0.4965650000000 1.0
C      1  0.4760010000000  0.4646140000000  0.5583700000000 1.0
C      1  0.4224780000000  0.4388870000000  0.5512140000000 1.0
C      1  0.4065210000000  0.4882380000000  0.5461910000000 1.0
C      1  0.5073260000000  0.5994670000000  0.5328750000000 1.0
C      1  0.5408110000000  0.5497240000000  0.5090040000000 1.0
C      1  0.5622970000000  0.5428050000000  0.5591590000000 1.0
C      1  0.5305050000000  0.5857780000000  0.5536500000000 1.0
C      1  0.5921630000000  0.5038490000000  0.4461800000000 1.0
C      1  0.4582560000000  0.4967340000000  0.4085380000000 1.0
C      1  0.5955130000000  0.5052600000000  0.5044600000000 1.0
C      1  0.4855440000000  0.4822630000000  0.4931950000000 1.0
C      1  0.4768610000000  0.5379190000000  0.5597250000000 1.0
C      1  0.4120710000000  0.5005450000000  0.4736030000000 1.0
C      1  0.4992520000000  0.5629120000000  0.4806050000000 1.0
C      1  0.4927040000000  0.4637870000000  0.6054610000000 1.0
C      1  0.5428610000000  0.4681770000000  0.5962690000000 1.0
C      1  0.4317240000000  0.4753180000000  0.4496450000000 1.0
C      1  0.4540390000000  0.4569020000000  0.5335540000000 1.0
C      1  0.5369480000000  0.4716350000000  0.4321640000000 1.0
C      1  0.5702590000000  0.5272090000000  0.4360010000000 1.0
C      1  0.4905870000000  0.5371100000000  0.6060180000000 1.0
C      1  0.4978310000000  0.5860070000000  0.5630790000000 1.0
C      1  0.5769850000000  0.4600870000000  0.5605020000000 1.0
C      1  0.5048360000000  0.4826150000000  0.5566600000000 1.0
C      1  0.4610070000000  0.5694450000000  0.4431080000000 1.0
C      1  0.5478730000000  0.5263270000000  0.4899850000000 1.0
C      1  0.5273910000000  0.5094670000000  0.5099250000000 1.0
C      1  0.5709160000000  0.5353180000000  0.4681700000000 1.0
C      1  0.4752570000000  0.4007590000000  0.4458710000000 1.0
C      1  0.5808570000000  0.4762450000000  0.4439140000000 1.0
C      1  0.4752150000000  0.4937710000000  0.5310030000000 1.0
C      1  0.5065600000000  0.5408580000000  0.4548980000000 1.0
C      1  0.4339580000000  0.4313900000000  0.4401130000000 1.0
C      1  0.4477330000000  0.4477710000000  0.4222860000000 1.0
C      1  0.5056550000000  0.5073320000000  0.4607470000000 1.0
C      1  0.4402730000000  0.6148510000000  0.5444610000000 1.0
C      1  0.4607790000000  0.5783770000000  0.5142510000000 1.0
C      1  0.5365890000000  0.4071970000000  0.4927320000000 1.0
C      1  0.5173820000000  0.4402380000000  0.5291050000000 1.0
C      1  0.4814480000000  0.4630890000000  0.5191400000000 1.0
C      1  0.4508080000000  0.5471440000000  0.5127220000000 1.0
C      1  0.4211460000000  0.5598150000000  0.5360950000000 1.0
C      1  0.4282560000000  0.4352960000000  0.4902420000000 1.0
C      1  0.5271420000000  0.5395970000000  0.4125120000000 1.0
C      1  0.5208430000000  0.5988970000000  0.5021150000000 1.0
C      1  0.4106720000000  0.5442740000000  0.5626650000000 1.0
C      1  0.5322660000000  0.5834180000000  0.4673360000000 1.0
C      1  0.4429080000000  0.5951100000000  0.4683630000000 1.0
C      1  0.5284750000000  0.5104340000000  0.4158570000000 1.0
C      1  0.4111790000000  0.4624500000000  0.5391200000000 1.0
C      1  0.4792060000000  0.5419690000000  0.4346790000000 1.0
C      1  0.5157210000000  0.5616820000000  0.5375650000000 1.0
C      1  0.4467010000000  0.4734240000000  0.5998390000000 1.0
C      1  0.6087630000000  0.5061650000000  0.4737310000000 1.0
C      1  0.5644920000000  0.4308790000000  0.4313450000000 1.0
C      1  0.4530240000000  0.4802870000000  0.4969710000000 1.0
C      1  0.4111990000000  0.4722270000000  0.4837990000000 1.0
C      1  0.5579450000000  0.4401590000000  0.5613990000000 1.0
C      1  0.4383260000000  0.5648710000000  0.5649960000000 1.0
C      1  0.4563480000000  0.4281030000000  0.4796370000000 1.0
C      1  0.4431550000000  0.4970570000000  0.5248700000000 1.0
C      1  0.5231370000000  0.4569740000000  0.4078490000000 1.0
C      1  0.4690790000000  0.5315720000000  0.5902360000000 1.0
C      1  0.4847160000000  0.4307250000000  0.5290650000000 1.0
C      1  0.4123630000000  0.5545960000000  0.4547480000000 1.0
C      1  0.5242540000000  0.3971350000000  0.5169890000000 1.0
C      1  0.5632780000000  0.4883980000000  0.4695770000000 1.0
C      1  0.4411040000000  0.5144630000000  0.4803580000000 1.0
C      1  0.4786420000000  0.4410780000000  0.4254700000000 1.0
C      1  0.4289370000000  0.4620690000000  0.5111890000000 1.0
C      1  0.4612020000000  0.5256290000000  0.4108890000000 1.0
C      1  0.4020190000000  0.5191120000000  0.5541670000000 1.0
C      1  0.5440380000000  0.4613310000000  0.5280960000000 1.0
C      1  0.4873490000000  0.4375870000000  0.5757400000000 1.0
C      1  0.4717150000000  0.5710230000000  0.5613290000000 1.0
C      1  0.5367310000000  0.4724160000000  0.3852610000000 1.0
C      1  0.5542780000000  0.4152170000000  0.4581430000000 1.0
C      1  0.5648180000000  0.4580260000000  0.4312060000000 1.0
C      1  0.4792820000000  0.5390140000000  0.5269850000000 1.0
C      1  0.4592910000000  0.4753570000000  0.4639170000000 1.0
C      1  0.4708150000000  0.4480510000000  0.4578370000000 1.0
C      1  0.4460280000000  0.5067050000000  0.5573540000000 1.0
C      1  0.6248970000000  0.5750180000000  0.5016610000000 1.0
C      1  0.5309620000000  0.4376330000000  0.5592940000000 1.0
C      1  0.5152350000000  0.5725470000000  0.5877230000000 1.0
C      1  0.5014320000000  0.5018840000000  0.4274500000000 1.0
C      1  0.4141980000000  0.5110610000000  0.5233840000000 1.0
C      1  0.4400580000000  0.4767520000000  0.4178630000000 1.0
C      1  0.5375280000000  0.4136390000000  0.4282180000000 1.0
C      1  0.4520970000000  0.4130940000000  0.4529630000000 1.0
C      1  0.5763410000000  0.4597700000000  0.4824920000000 1.0
C      1  0.4078590000000  0.5343510000000  0.4719800000000 1.0
C      1  0.5776410000000  0.4936090000000  0.5505680000000 1.0
C      1  0.4835370000000  0.4948800000000  0.5953730000000 1.0
C      1  0.5287990000000  0.5251510000000  0.5743120000000 1.0
C      1  0.4161170000000  0.4479870000000  0.4611210000000 1.0
C      1  0.6070250000000  0.4749280000000  0.4811990000000 1.0
C      1  0.5037060000000  0.4034010000000  0.5361130000000 1.0
C      1  0.4570670000000  0.5222220000000  0.4513460000000 1.0
C      1  0.4335630000000  0.5671060000000  0.4414920000000 1.0
C      1  0.4420380000000  0.5334410000000  0.5410290000000 1.0
C      1  0.5030030000000  0.5539270000000  0.4135060000000 1.0
C      1  0.5101740000000  0.5820290000000  0.4190500000000 1.0
C      1  0.4915050000000  0.5828670000000  0.5071400000000 1.0
C      1  0.5693270000000  0.4945520000000  0.5011500000000 1.0
C      1  0.4816490000000  0.5865140000000  0.4635900000000 1.0
C      1  0.4596210000000  0.5722390000000  0.4829570000000 1.0
C      1  0.4267630000000  0.5080930000000  0.4438790000000 1.0
C      1  0.5272490000000  0.5651840000000  0.4431740000000 1.0
C      1  0.4780820000000  0.4206170000000  0.4981400000000 1.0
C      1  0.5666860000000  0.5769250000000  0.5227770000000 1.0
C      1  0.5481990000000  0.5020990000000  0.4422910000000 1.0
C      1  0.5156170000000  0.4526920000000  0.5830170000000 1.0
C      1  0.4794340000000  0.5041730000000  0.5631650000000 1.0
C      1  0.5053090000000  0.4397220000000  0.4961570000000 1.0
C      1  0.5254240000000  0.5338930000000  0.5429690000000 1.0
C      1  0.5384070000000  0.5299370000000  0.4597340000000 1.0
C      1  0.5156750000000  0.4753880000000  0.4546500000000 1.0
C      1  0.5561940000000  0.5283040000000  0.5305580000000 1.0
C      1  0.5155450000000  0.4766570000000  0.4854070000000 1.0
C      1  0.4168030000000  0.4123350000000  0.5079390000000 1.0
C      1  0.6121820000000  0.5558190000000  0.4891480000000 1.0
C      1  0.5017650000000  0.4458460000000  0.4641820000000 1.0
C      1  0.5673800000000  0.5151480000000  0.5717450000000 1.0
C      1  0.5985570000000  0.5359120000000  0.4789480000000 1.0
C      1  0.4536750000000  0.4256840000000  0.5423890000000 1.0
C      1  0.4729110000000  0.5132170000000  0.4869370000000 1.0
C      1  0.6007150000000  0.5091440000000  0.5310070000000 1.0
C      1  0.5520940000000  0.5506620000000  0.4252910000000 1.0
C      1  0.4510280000000  0.5039150000000  0.5911000000000 1.0
C      1  0.5448530000000  0.5018490000000  0.5915540000000 1.0
C      1  0.4924120000000  0.4607180000000  0.4056500000000 1.0
C      1  0.5069990000000  0.5461580000000  0.5085960000000 1.0
C      1  0.4229200000000  0.5313840000000  0.5023240000000 1.0
C      1  0.4502590000000  0.5865770000000  0.5417000000000 1.0
C      1  0.4927130000000  0.4101920000000  0.5623820000000 1.0
C      1  0.5585510000000  0.4322560000000  0.4850830000000 1.0
C      1  0.5141140000000  0.5457090000000  0.5925200000000 1.0
C      1  0.4842230000000  0.4866510000000  0.4081690000000 1.0
C      1  0.5034550000000  0.5176830000000  0.4907210000000 1.0
C      1  0.5027080000000  0.4155990000000  0.4505130000000 1.0
C      1  0.4649680000000  0.5444280000000  0.4757870000000 1.0
C      1  0.5017920000000  0.5142410000000  0.5317900000000 1.0
C      1  0.5966550000000  0.4645340000000  0.5089420000000 1.0
C      1  0.5568780000000  0.5697860000000  0.5475270000000 1.0
C      1  0.5165280000000  0.4783150000000  0.5181430000000 1.0
C      1  0.4246810000000  0.4121720000000  0.5339200000000 1.0
C      1  0.4756230000000  0.4972550000000  0.4500110000000 1.0
END
