TITL C-2848494-1720-423 0.000759156023818039 125000 -506.145818719583 0 0 90 (C1) n - 1
REM
REM in /home/bkarasulu/work/CARBON/AIRSS/Generating-Clusters/AIREBO/with-SteepDescent/Only-C1/SD-CG-opt/Try1-1.4A-POS3A/HFTN-CG
REM
REM
REM
REM
REM
REM ./C.cell (11c1c37f851c82e70ff6c80c92926a4b)
REM
REM compiler GCC version 9.2.1 20190827 (Red Hat 9.2.1-1)
REM options -cpp -mtune=generic -march=x86-64 -g -O0 -fpre-include=/usr/include/finclude/math-vector-fortran.h
REM seed -1033680593 -731234103 80708982 -1356179464 -1294949182 -410061319 -1786870304 460713555 -459345002 2107586525 -1402036622 721258950 679227338 -849929530 1616175404 419584670 1327297202 123213738 -1433122730 -615790327 17199586 767310186 -1195842147 2026414648 1710127833 -1903228149 1052721044 -1443569832 1170078625 636860473 1698893716 -601918236 -2040772890
REM
CELL 1.54180   50.00000   50.00000   50.00000   90.00000   90.00000   90.00000
LATT -1
SFAC C  
C      1  0.4490230000000  0.5679140000000  0.4799430000000 1.0
C      1  0.4105330000000  0.4843440000000  0.5163860000000 1.0
C      1  0.4210150000000  0.5296530000000  0.4970170000000 1.0
C      1  0.4902890000000  0.4293530000000  0.4681200000000 1.0
C      1  0.5129430000000  0.4980380000000  0.5669740000000 1.0
C      1  0.4809580000000  0.5199140000000  0.4664510000000 1.0
C      1  0.4751850000000  0.5057950000000  0.5301500000000 1.0
C      1  0.5241790000000  0.5123710000000  0.4341820000000 1.0
C      1  0.4409710000000  0.4847140000000  0.4638520000000 1.0
C      1  0.5481470000000  0.4254410000000  0.5272560000000 1.0
C      1  0.4466260000000  0.4210110000000  0.5213970000000 1.0
C      1  0.5442130000000  0.5372150000000  0.5051380000000 1.0
C      1  0.4607480000000  0.4646140000000  0.4511870000000 1.0
C      1  0.4041120000000  0.4972130000000  0.4556490000000 1.0
C      1  0.4815760000000  0.5321640000000  0.4158760000000 1.0
C      1  0.5890250000000  0.5520990000000  0.5087950000000 1.0
C      1  0.4605220000000  0.5102650000000  0.5781330000000 1.0
C      1  0.5169380000000  0.5182440000000  0.4835190000000 1.0
C      1  0.5342690000000  0.5313920000000  0.4578090000000 1.0
C      1  0.3961860000000  0.5384400000000  0.5080550000000 1.0
C      1  0.5309130000000  0.4358360000000  0.4281060000000 1.0
C      1  0.4693360000000  0.5242990000000  0.5565160000000 1.0
C      1  0.4893400000000  0.5476000000000  0.5593720000000 1.0
C      1  0.5210620000000  0.4284680000000  0.4573980000000 1.0
C      1  0.5135360000000  0.4193440000000  0.4892900000000 1.0
C      1  0.5396580000000  0.4651540000000  0.4307120000000 1.0
C      1  0.5133870000000  0.5842690000000  0.5318150000000 1.0
C      1  0.4580510000000  0.4925590000000  0.5090750000000 1.0
C      1  0.5727870000000  0.5018770000000  0.4730860000000 1.0
C      1  0.5169180000000  0.4226490000000  0.5228340000000 1.0
C      1  0.5340650000000  0.4033730000000  0.3858920000000 1.0
C      1  0.4729730000000  0.4502840000000  0.4704430000000 1.0
C      1  0.5260760000000  0.4477330000000  0.5029920000000 1.0
C      1  0.5457140000000  0.4809010000000  0.5821170000000 1.0
C      1  0.4794350000000  0.4603780000000  0.5492550000000 1.0
C      1  0.4614220000000  0.4711150000000  0.4234300000000 1.0
C      1  0.5485180000000  0.5577310000000  0.4678350000000 1.0
C      1  0.4588630000000  0.5524450000000  0.5230900000000 1.0
C      1  0.4418710000000  0.5513100000000  0.5009450000000 1.0
C      1  0.4467400000000  0.4939330000000  0.4162850000000 1.0
C      1  0.5221270000000  0.4768900000000  0.4706130000000 1.0
C      1  0.4718530000000  0.5906940000000  0.4863960000000 1.0
C      1  0.4701060000000  0.4933780000000  0.4773290000000 1.0
C      1  0.4108290000000  0.4724850000000  0.4709610000000 1.0
C      1  0.5313030000000  0.4196530000000  0.4062460000000 1.0
C      1  0.5858580000000  0.5271300000000  0.5262740000000 1.0
C      1  0.5673360000000  0.5558690000000  0.4901710000000 1.0
C      1  0.5610590000000  0.5094670000000  0.5373180000000 1.0
C      1  0.4832640000000  0.5343800000000  0.5204940000000 1.0
C      1  0.5580450000000  0.4521790000000  0.5087880000000 1.0
C      1  0.5058580000000  0.5436680000000  0.5854810000000 1.0
C      1  0.4967300000000  0.4763580000000  0.4892290000000 1.0
C      1  0.4685950000000  0.4610640000000  0.5006590000000 1.0
C      1  0.4182220000000  0.5231920000000  0.4675200000000 1.0
C      1  0.5187020000000  0.5593550000000  0.5092950000000 1.0
C      1  0.4026940000000  0.4665090000000  0.4968170000000 1.0
C      1  0.5206500000000  0.5642290000000  0.4756870000000 1.0
C      1  0.5345900000000  0.5047020000000  0.5077110000000 1.0
C      1  0.5198810000000  0.5226510000000  0.5867600000000 1.0
C      1  0.5307670000000  0.5202380000000  0.5483860000000 1.0
C      1  0.5690860000000  0.5017820000000  0.4397050000000 1.0
C      1  0.5559600000000  0.4822310000000  0.5216580000000 1.0
C      1  0.4517250000000  0.4631400000000  0.5661820000000 1.0
C      1  0.4876320000000  0.5670170000000  0.4977890000000 1.0
C      1  0.5436490000000  0.4929620000000  0.4290750000000 1.0
C      1  0.5413490000000  0.5012080000000  0.4684770000000 1.0
C      1  0.5165980000000  0.4773230000000  0.5168050000000 1.0
C      1  0.5301620000000  0.6057850000000  0.5323420000000 1.0
C      1  0.4326440000000  0.5080090000000  0.4406290000000 1.0
C      1  0.4680460000000  0.4830900000000  0.5818040000000 1.0
C      1  0.5404600000000  0.4531910000000  0.4625340000000 1.0
C      1  0.5522900000000  0.5041700000000  0.5692790000000 1.0
C      1  0.5842690000000  0.4724540000000  0.4733550000000 1.0
C      1  0.4672810000000  0.4369750000000  0.5196780000000 1.0
C      1  0.5655060000000  0.4531060000000  0.4793620000000 1.0
C      1  0.4751770000000  0.5713700000000  0.4600840000000 1.0
C      1  0.5370270000000  0.4638820000000  0.5406330000000 1.0
C      1  0.4297360000000  0.5027360000000  0.5104940000000 1.0
C      1  0.4954170000000  0.4857890000000  0.5404790000000 1.0
C      1  0.5121080000000  0.5402380000000  0.5366380000000 1.0
C      1  0.4914730000000  0.5782540000000  0.5479520000000 1.0
C      1  0.4966270000000  0.5293410000000  0.4395400000000 1.0
C      1  0.4939920000000  0.4323920000000  0.5389820000000 1.0
C      1  0.4957620000000  0.4768630000000  0.5815060000000 1.0
C      1  0.4624350000000  0.5722360000000  0.5430620000000 1.0
C      1  0.5026640000000  0.4458500000000  0.5693920000000 1.0
C      1  0.5713520000000  0.5174680000000  0.4995170000000 1.0
C      1  0.5304340000000  0.4620010000000  0.5674330000000 1.0
C      1  0.4928670000000  0.5351320000000  0.4907300000000 1.0
C      1  0.4996830000000  0.5584670000000  0.4563690000000 1.0
END
