TITL C-2847956-8218-712 0.000137470839210439 125000 -790.582316730161 0 0 145 (C1) n - 1
REM
REM in /home/bkarasulu/work/CARBON/AIRSS/Generating-Clusters/AIREBO/with-SteepDescent/Only-C1/SD-CG-opt/Try1-1.4A-POS3A/HFTN-CG
REM
REM
REM
REM
REM
REM ./C.cell (11c1c37f851c82e70ff6c80c92926a4b)
REM
REM compiler GCC version 9.2.1 20190827 (Red Hat 9.2.1-1)
REM options -cpp -mtune=generic -march=x86-64 -g -O0 -fpre-include=/usr/include/finclude/math-vector-fortran.h
REM seed 1230729460 -497916307 756629370 1840193047 969022777 2123815473 2091053042 1086267538 1792188759 -194825017 7229637 -18329602 -13644310 1401500886 -503561594 -388632734 -1929786949 839404581 -744024203 747378128 612591093 -1580939259 1364989063 -1058396515 -86118762 -159507716 -581048230 982076530 -1324730856 756052814 -467400175 633749529 -1386528067
REM
CELL 1.54180   50.00000   50.00000   50.00000   90.00000   90.00000   90.00000
LATT -1
SFAC C  
C      1  0.4418960000000  0.5605350000000  0.4539670000000 1.0
C      1  0.5662620000000  0.4400670000000  0.5258280000000 1.0
C      1  0.5678010000000  0.5627990000000  0.5394170000000 1.0
C      1  0.5446740000000  0.4533930000000  0.5075170000000 1.0
C      1  0.4847040000000  0.4397640000000  0.5176020000000 1.0
C      1  0.5026290000000  0.4551650000000  0.4288590000000 1.0
C      1  0.5126130000000  0.4761040000000  0.5220730000000 1.0
C      1  0.5494020000000  0.5253650000000  0.4282010000000 1.0
C      1  0.5113200000000  0.4529320000000  0.5469500000000 1.0
C      1  0.5273830000000  0.5209870000000  0.4981970000000 1.0
C      1  0.4920020000000  0.4951200000000  0.4672900000000 1.0
C      1  0.5430080000000  0.4554650000000  0.4245170000000 1.0
C      1  0.4598920000000  0.5201850000000  0.5163980000000 1.0
C      1  0.5316970000000  0.5744890000000  0.4753850000000 1.0
C      1  0.4191730000000  0.4809250000000  0.5430570000000 1.0
C      1  0.4856020000000  0.5067020000000  0.4286620000000 1.0
C      1  0.4766550000000  0.4827640000000  0.5769210000000 1.0
C      1  0.4857340000000  0.5791280000000  0.4487020000000 1.0
C      1  0.4755360000000  0.4067110000000  0.4970980000000 1.0
C      1  0.4399960000000  0.5412460000000  0.5342500000000 1.0
C      1  0.4956060000000  0.4792350000000  0.4103670000000 1.0
C      1  0.4281900000000  0.4735140000000  0.5748190000000 1.0
C      1  0.4982350000000  0.5471420000000  0.4118860000000 1.0
C      1  0.4487400000000  0.4999630000000  0.5757710000000 1.0
C      1  0.4165010000000  0.5286100000000  0.5512340000000 1.0
C      1  0.4028420000000  0.5078820000000  0.5397680000000 1.0
C      1  0.5450820000000  0.4589500000000  0.5661700000000 1.0
C      1  0.4454730000000  0.5024330000000  0.5415970000000 1.0
C      1  0.4257630000000  0.5620930000000  0.5156040000000 1.0
C      1  0.5567010000000  0.5152100000000  0.5246680000000 1.0
C      1  0.5607830000000  0.5518460000000  0.4410970000000 1.0
C      1  0.4338290000000  0.4262120000000  0.5222590000000 1.0
C      1  0.5546120000000  0.4201490000000  0.4670180000000 1.0
C      1  0.5063280000000  0.5559980000000  0.5918440000000 1.0
C      1  0.4344300000000  0.5101160000000  0.4957750000000 1.0
C      1  0.4966290000000  0.5244020000000  0.5946520000000 1.0
C      1  0.4711420000000  0.3971620000000  0.5454340000000 1.0
C      1  0.4728310000000  0.4591040000000  0.5393420000000 1.0
C      1  0.5650090000000  0.4466590000000  0.4482040000000 1.0
C      1  0.6121160000000  0.4934500000000  0.5483250000000 1.0
C      1  0.5622010000000  0.5298980000000  0.4812310000000 1.0
C      1  0.5408520000000  0.5504840000000  0.4969070000000 1.0
C      1  0.4623610000000  0.5511820000000  0.5026220000000 1.0
C      1  0.4852330000000  0.5153710000000  0.5385530000000 1.0
C      1  0.6106630000000  0.4760320000000  0.5256720000000 1.0
C      1  0.4976130000000  0.4023680000000  0.5515330000000 1.0
C      1  0.4698180000000  0.4447630000000  0.5666870000000 1.0
C      1  0.5656010000000  0.5174000000000  0.5543020000000 1.0
C      1  0.4878440000000  0.5780970000000  0.5533670000000 1.0
C      1  0.5599940000000  0.4829690000000  0.5143700000000 1.0
C      1  0.5384720000000  0.5225130000000  0.5715630000000 1.0
C      1  0.4909370000000  0.4869910000000  0.5464910000000 1.0
C      1  0.5492960000000  0.4513670000000  0.4778260000000 1.0
C      1  0.4529430000000  0.5310130000000  0.4785790000000 1.0
C      1  0.4608880000000  0.4160020000000  0.5227300000000 1.0
C      1  0.4235620000000  0.5227640000000  0.5772850000000 1.0
C      1  0.4114140000000  0.5134960000000  0.4512840000000 1.0
C      1  0.4752530000000  0.4547290000000  0.4885560000000 1.0
C      1  0.5785840000000  0.5590370000000  0.4874960000000 1.0
C      1  0.4687400000000  0.5566840000000  0.4524170000000 1.0
C      1  0.5095910000000  0.5681360000000  0.5676230000000 1.0
C      1  0.4596420000000  0.5505550000000  0.5589920000000 1.0
C      1  0.5260730000000  0.4539810000000  0.4530750000000 1.0
C      1  0.4889290000000  0.5341770000000  0.5632000000000 1.0
C      1  0.5986170000000  0.5262610000000  0.4591100000000 1.0
C      1  0.4853430000000  0.5143850000000  0.4945130000000 1.0
C      1  0.4188200000000  0.5757000000000  0.4644910000000 1.0
C      1  0.5800860000000  0.5040760000000  0.4770240000000 1.0
C      1  0.5020230000000  0.5862180000000  0.4741790000000 1.0
C      1  0.5097070000000  0.5478150000000  0.4436260000000 1.0
C      1  0.5699110000000  0.4997990000000  0.4200440000000 1.0
C      1  0.4779900000000  0.5242120000000  0.4565920000000 1.0
C      1  0.4049130000000  0.5082850000000  0.4903930000000 1.0
C      1  0.5745550000000  0.5425010000000  0.5167670000000 1.0
C      1  0.4728290000000  0.6003090000000  0.5583900000000 1.0
C      1  0.5193980000000  0.4281130000000  0.4895970000000 1.0
C      1  0.5883350000000  0.4577990000000  0.5307980000000 1.0
C      1  0.4307260000000  0.5055000000000  0.4289350000000 1.0
C      1  0.5411340000000  0.4863520000000  0.4289020000000 1.0
C      1  0.5785230000000  0.4723230000000  0.4304050000000 1.0
C      1  0.4087790000000  0.5579960000000  0.4899710000000 1.0
C      1  0.5375210000000  0.5255070000000  0.4601220000000 1.0
C      1  0.5425800000000  0.4957990000000  0.4881240000000 1.0
C      1  0.4011280000000  0.4351770000000  0.5207250000000 1.0
C      1  0.4908160000000  0.4587550000000  0.5897120000000 1.0
C      1  0.5086270000000  0.4603150000000  0.4918730000000 1.0
C      1  0.5232980000000  0.5083000000000  0.5259410000000 1.0
C      1  0.4672380000000  0.4185290000000  0.4736040000000 1.0
C      1  0.5439640000000  0.4069890000000  0.5283560000000 1.0
C      1  0.5422990000000  0.5701590000000  0.5206070000000 1.0
C      1  0.4461070000000  0.4426300000000  0.4757960000000 1.0
C      1  0.4460990000000  0.4910120000000  0.4729270000000 1.0
C      1  0.4530300000000  0.4566060000000  0.4231370000000 1.0
C      1  0.5175600000000  0.5013980000000  0.4183380000000 1.0
C      1  0.5848900000000  0.5509790000000  0.4563580000000 1.0
C      1  0.4996590000000  0.4284730000000  0.5658250000000 1.0
C      1  0.4517330000000  0.5146480000000  0.4091140000000 1.0
C      1  0.4957200000000  0.6230470000000  0.5068650000000 1.0
C      1  0.5193390000000  0.5079740000000  0.5797470000000 1.0
C      1  0.5024560000000  0.4034790000000  0.5035480000000 1.0
C      1  0.5183500000000  0.4805160000000  0.5655530000000 1.0
C      1  0.4223280000000  0.5362560000000  0.4675260000000 1.0
C      1  0.4799060000000  0.5785880000000  0.4982440000000 1.0
C      1  0.6116330000000  0.4798600000000  0.4746660000000 1.0
C      1  0.5654360000000  0.4754180000000  0.5470970000000 1.0
C      1  0.4014030000000  0.4886880000000  0.4679540000000 1.0
C      1  0.5201840000000  0.4467250000000  0.5858670000000 1.0
C      1  0.5487490000000  0.4144710000000  0.5000310000000 1.0
C      1  0.5016830000000  0.5536990000000  0.4985310000000 1.0
C      1  0.5246450000000  0.5299830000000  0.4078470000000 1.0
C      1  0.5609320000000  0.5837880000000  0.4879510000000 1.0
C      1  0.4631020000000  0.4845260000000  0.4160080000000 1.0
C      1  0.5185430000000  0.4369660000000  0.5218940000000 1.0
C      1  0.5350960000000  0.5633980000000  0.4475810000000 1.0
C      1  0.5225040000000  0.4124210000000  0.4594100000000 1.0
C      1  0.5518230000000  0.4296300000000  0.5500650000000 1.0
C      1  0.4581970000000  0.4809400000000  0.5243570000000 1.0
C      1  0.5581190000000  0.5480830000000  0.5653540000000 1.0
C      1  0.4664530000000  0.4861620000000  0.4964690000000 1.0
C      1  0.5167360000000  0.6079070000000  0.4947910000000 1.0
C      1  0.4232230000000  0.4459670000000  0.4970560000000 1.0
C      1  0.4703300000000  0.5333730000000  0.4024890000000 1.0
C      1  0.4729050000000  0.6070710000000  0.5091880000000 1.0
C      1  0.5067110000000  0.5314550000000  0.4733080000000 1.0
C      1  0.6149760000000  0.5013200000000  0.4576950000000 1.0
C      1  0.3912260000000  0.5315270000000  0.4922250000000 1.0
C      1  0.4213160000000  0.4482010000000  0.5449740000000 1.0
C      1  0.4375390000000  0.4835590000000  0.4481920000000 1.0
C      1  0.5155420000000  0.3978530000000  0.5295890000000 1.0
C      1  0.4788070000000  0.5559130000000  0.5314170000000 1.0
C      1  0.4403850000000  0.4449300000000  0.5723990000000 1.0
C      1  0.5538630000000  0.4974180000000  0.4564030000000 1.0
C      1  0.5913380000000  0.4839370000000  0.5007150000000 1.0
C      1  0.5873470000000  0.4968330000000  0.5596940000000 1.0
C      1  0.5210470000000  0.4794880000000  0.4716780000000 1.0
C      1  0.5296040000000  0.5556970000000  0.5483470000000 1.0
C      1  0.4120930000000  0.4627650000000  0.4709630000000 1.0
C      1  0.4830360000000  0.4298610000000  0.4526870000000 1.0
C      1  0.4747970000000  0.4382770000000  0.4243990000000 1.0
C      1  0.4954650000000  0.5786720000000  0.4228320000000 1.0
C      1  0.5398660000000  0.5983780000000  0.5063990000000 1.0
C      1  0.4323360000000  0.4523040000000  0.4462390000000 1.0
C      1  0.5079150000000  0.5385580000000  0.5283420000000 1.0
C      1  0.4643580000000  0.5276920000000  0.5841240000000 1.0
C      1  0.4870750000000  0.4635290000000  0.4579130000000 1.0
END
