TITL C-2847951-7423-156 0.00517185792915976 125000 -886.950239040812 0 0 177 (C1) n - 1
REM
REM in /home/bkarasulu/work/CARBON/AIRSS/Generating-Clusters/AIREBO/with-SteepDescent/Only-C1/SD-CG-opt/Try1-1.4A-POS3A/HFTN-CG
REM
REM
REM
REM
REM
REM ./C.cell (11c1c37f851c82e70ff6c80c92926a4b)
REM
REM compiler GCC version 9.2.1 20190827 (Red Hat 9.2.1-1)
REM options -cpp -mtune=generic -march=x86-64 -g -O0 -fpre-include=/usr/include/finclude/math-vector-fortran.h
REM seed 323710191 2123068454 -1401333638 -176815279 -1694343321 -1510161025 657296919 826204035 -122136925 18956351 -260896880 -1541456925 925615072 884309079 59178557 -1183702213 -1760471342 1956740706 -1840614992 -884626824 -782460967 -1295044648 1142213431 -1370147675 1066657328 158911230 1122993019 -960893119 -1049025087 1286324693 -1589579362 1288641644 -496133829
REM
CELL 1.54180   50.00000   50.00000   50.00000   90.00000   90.00000   90.00000
LATT -1
SFAC C  
C      1  0.4131230000000  0.4346480000000  0.4777000000000 1.0
C      1  0.4989910000000  0.4844980000000  0.4662260000000 1.0
C      1  0.5096500000000  0.4216220000000  0.5294810000000 1.0
C      1  0.5008910000000  0.3962720000000  0.4775950000000 1.0
C      1  0.4332250000000  0.4940050000000  0.5633820000000 1.0
C      1  0.5679070000000  0.4887790000000  0.5863080000000 1.0
C      1  0.5546480000000  0.4399670000000  0.5593380000000 1.0
C      1  0.4824670000000  0.3896970000000  0.5016300000000 1.0
C      1  0.4321460000000  0.5434690000000  0.5188090000000 1.0
C      1  0.4882140000000  0.3998400000000  0.5337840000000 1.0
C      1  0.4532810000000  0.4283400000000  0.5444040000000 1.0
C      1  0.5565810000000  0.5010110000000  0.5119120000000 1.0
C      1  0.5132230000000  0.5931940000000  0.5521330000000 1.0
C      1  0.4684460000000  0.4866380000000  0.3866350000000 1.0
C      1  0.3997460000000  0.5566530000000  0.4245610000000 1.0
C      1  0.4663690000000  0.5736750000000  0.4402600000000 1.0
C      1  0.5087320000000  0.4913700000000  0.5077580000000 1.0
C      1  0.4783350000000  0.4666950000000  0.5158820000000 1.0
C      1  0.5392800000000  0.5143790000000  0.3909170000000 1.0
C      1  0.5791300000000  0.4701940000000  0.5686110000000 1.0
C      1  0.5491420000000  0.4687990000000  0.4604850000000 1.0
C      1  0.4987310000000  0.5782880000000  0.4798410000000 1.0
C      1  0.5396250000000  0.5645210000000  0.4889920000000 1.0
C      1  0.6062520000000  0.5426570000000  0.5037780000000 1.0
C      1  0.5289300000000  0.4619670000000  0.5915990000000 1.0
C      1  0.4877110000000  0.5185230000000  0.5329840000000 1.0
C      1  0.5797140000000  0.4787590000000  0.4657080000000 1.0
C      1  0.5927080000000  0.4559930000000  0.5255680000000 1.0
C      1  0.4604420000000  0.4082290000000  0.5277060000000 1.0
C      1  0.5228310000000  0.5053420000000  0.4418210000000 1.0
C      1  0.5496080000000  0.4880920000000  0.3776180000000 1.0
C      1  0.5336770000000  0.4645020000000  0.5486330000000 1.0
C      1  0.4849010000000  0.4179740000000  0.4570170000000 1.0
C      1  0.5692680000000  0.3999050000000  0.5239900000000 1.0
C      1  0.4675590000000  0.4940290000000  0.4295780000000 1.0
C      1  0.5113760000000  0.4626750000000  0.4206130000000 1.0
C      1  0.4934910000000  0.4119300000000  0.5652590000000 1.0
C      1  0.5732670000000  0.4384460000000  0.4379330000000 1.0
C      1  0.5723840000000  0.5621650000000  0.4448300000000 1.0
C      1  0.4150900000000  0.5356120000000  0.5447040000000 1.0
C      1  0.5147250000000  0.5287260000000  0.4651440000000 1.0
C      1  0.5033520000000  0.5445550000000  0.5073660000000 1.0
C      1  0.4922950000000  0.4451240000000  0.5614860000000 1.0
C      1  0.5073050000000  0.5182230000000  0.5688000000000 1.0
C      1  0.5322780000000  0.4495780000000  0.4825290000000 1.0
C      1  0.4636760000000  0.5396600000000  0.4056970000000 1.0
C      1  0.5186510000000  0.5846310000000  0.5066700000000 1.0
C      1  0.3871260000000  0.4836870000000  0.5005790000000 1.0
C      1  0.5779590000000  0.5292480000000  0.4382690000000 1.0
C      1  0.4078210000000  0.5276700000000  0.4680630000000 1.0
C      1  0.4909620000000  0.4702320000000  0.5828990000000 1.0
C      1  0.5740210000000  0.5369460000000  0.5534040000000 1.0
C      1  0.4274840000000  0.4343980000000  0.5148730000000 1.0
C      1  0.4939250000000  0.4136740000000  0.4245170000000 1.0
C      1  0.5318900000000  0.4928210000000  0.4684920000000 1.0
C      1  0.5204870000000  0.5266510000000  0.5385810000000 1.0
C      1  0.5508350000000  0.4315300000000  0.5130150000000 1.0
C      1  0.4775390000000  0.5243720000000  0.6095090000000 1.0
C      1  0.4603840000000  0.5406780000000  0.5601150000000 1.0
C      1  0.6029710000000  0.4855740000000  0.5128340000000 1.0
C      1  0.4950910000000  0.4320020000000  0.5010470000000 1.0
C      1  0.5083640000000  0.5395960000000  0.4272530000000 1.0
C      1  0.5308520000000  0.5371070000000  0.4018660000000 1.0
C      1  0.5942360000000  0.4333080000000  0.5043040000000 1.0
C      1  0.5761670000000  0.4778260000000  0.4965830000000 1.0
C      1  0.5650710000000  0.4717040000000  0.5376790000000 1.0
C      1  0.5119190000000  0.5789690000000  0.4229390000000 1.0
C      1  0.5266600000000  0.5674030000000  0.5697980000000 1.0
C      1  0.4648270000000  0.4900270000000  0.5603350000000 1.0
C      1  0.4548450000000  0.4659820000000  0.4040850000000 1.0
C      1  0.5241280000000  0.5025540000000  0.6142540000000 1.0
C      1  0.4746600000000  0.5731960000000  0.5248510000000 1.0
C      1  0.5509450000000  0.5126650000000  0.4808020000000 1.0
C      1  0.4241120000000  0.4316920000000  0.5468760000000 1.0
C      1  0.4003010000000  0.5071060000000  0.5074630000000 1.0
C      1  0.4483220000000  0.5550830000000  0.4841370000000 1.0
C      1  0.5894570000000  0.4535240000000  0.4496730000000 1.0
C      1  0.4858210000000  0.6102060000000  0.5471310000000 1.0
C      1  0.5317280000000  0.4978610000000  0.5268090000000 1.0
C      1  0.4840260000000  0.5598340000000  0.4192420000000 1.0
C      1  0.5361990000000  0.6033590000000  0.5295270000000 1.0
C      1  0.5141050000000  0.6138370000000  0.4898300000000 1.0
C      1  0.5276830000000  0.4159550000000  0.4847260000000 1.0
C      1  0.4538470000000  0.4075660000000  0.4970790000000 1.0
C      1  0.4875540000000  0.4608700000000  0.4448160000000 1.0
C      1  0.5032850000000  0.4639860000000  0.4929260000000 1.0
C      1  0.4570940000000  0.5808060000000  0.5001080000000 1.0
C      1  0.4385300000000  0.4946060000000  0.4118700000000 1.0
C      1  0.4224220000000  0.4969780000000  0.4663220000000 1.0
C      1  0.5355180000000  0.4369420000000  0.5821860000000 1.0
C      1  0.4146130000000  0.5578470000000  0.4823830000000 1.0
C      1  0.5421600000000  0.4319860000000  0.4466700000000 1.0
C      1  0.4203490000000  0.5391710000000  0.4386160000000 1.0
C      1  0.5102870000000  0.5303600000000  0.6004230000000 1.0
C      1  0.4235790000000  0.4755970000000  0.5145620000000 1.0
C      1  0.4039250000000  0.4580220000000  0.4929260000000 1.0
C      1  0.5977210000000  0.5160120000000  0.5231720000000 1.0
C      1  0.3943900000000  0.4912970000000  0.4500170000000 1.0
C      1  0.4553020000000  0.4278570000000  0.4434500000000 1.0
C      1  0.4733820000000  0.4244640000000  0.5896960000000 1.0
C      1  0.4780840000000  0.6265240000000  0.5013900000000 1.0
C      1  0.5925510000000  0.5086360000000  0.4556400000000 1.0
C      1  0.5594520000000  0.4080670000000  0.4636430000000 1.0
C      1  0.5001220000000  0.5614430000000  0.5896590000000 1.0
C      1  0.5593130000000  0.5439440000000  0.4704000000000 1.0
C      1  0.4218490000000  0.4113590000000  0.4944630000000 1.0
C      1  0.5829130000000  0.5157570000000  0.4861240000000 1.0
C      1  0.5408210000000  0.5639500000000  0.5327610000000 1.0
C      1  0.4788710000000  0.5117430000000  0.4694470000000 1.0
C      1  0.4101610000000  0.4684020000000  0.5438300000000 1.0
C      1  0.4677840000000  0.4340280000000  0.4808880000000 1.0
C      1  0.4433640000000  0.4802430000000  0.4872800000000 1.0
C      1  0.4780220000000  0.5076260000000  0.5789530000000 1.0
C      1  0.5010420000000  0.4919840000000  0.4239920000000 1.0
C      1  0.6109070000000  0.4973730000000  0.4823090000000 1.0
C      1  0.4739250000000  0.6003470000000  0.4851540000000 1.0
C      1  0.4351890000000  0.5944650000000  0.5357750000000 1.0
C      1  0.4309000000000  0.4673550000000  0.4515480000000 1.0
C      1  0.5166340000000  0.5864320000000  0.4518820000000 1.0
C      1  0.5702110000000  0.4126120000000  0.4924550000000 1.0
C      1  0.4614240000000  0.4521920000000  0.5854660000000 1.0
C      1  0.5109020000000  0.4398850000000  0.4578850000000 1.0
C      1  0.5361720000000  0.5387190000000  0.5108910000000 1.0
C      1  0.5735550000000  0.4308750000000  0.5383030000000 1.0
C      1  0.5416290000000  0.5376480000000  0.5628590000000 1.0
C      1  0.5021010000000  0.4334170000000  0.4109410000000 1.0
C      1  0.5245250000000  0.4146680000000  0.5659220000000 1.0
C      1  0.5467480000000  0.5045020000000  0.5684770000000 1.0
C      1  0.3852110000000  0.4694150000000  0.5512130000000 1.0
C      1  0.5027200000000  0.4909690000000  0.5401640000000 1.0
C      1  0.4652380000000  0.4590520000000  0.5463140000000 1.0
C      1  0.4871180000000  0.6305950000000  0.5271810000000 1.0
C      1  0.5710340000000  0.5048860000000  0.5424450000000 1.0
C      1  0.5042720000000  0.6139270000000  0.4631700000000 1.0
C      1  0.4518050000000  0.4507060000000  0.5018900000000 1.0
C      1  0.4734860000000  0.5117930000000  0.4011750000000 1.0
C      1  0.4465530000000  0.5208230000000  0.4640060000000 1.0
C      1  0.5429810000000  0.4851260000000  0.6032550000000 1.0
C      1  0.4936150000000  0.5478420000000  0.5591840000000 1.0
C      1  0.5468850000000  0.4869860000000  0.4114910000000 1.0
C      1  0.4650920000000  0.5432460000000  0.5272170000000 1.0
C      1  0.5068110000000  0.5660850000000  0.5326310000000 1.0
C      1  0.5694110000000  0.5318880000000  0.5130310000000 1.0
C      1  0.5393190000000  0.4105090000000  0.5371370000000 1.0
C      1  0.4321620000000  0.5249960000000  0.5698000000000 1.0
C      1  0.5458320000000  0.5797560000000  0.4592200000000 1.0
C      1  0.4468600000000  0.5531480000000  0.4525770000000 1.0
C      1  0.4546180000000  0.5370690000000  0.5924400000000 1.0
C      1  0.5505890000000  0.4617450000000  0.5085270000000 1.0
C      1  0.5875130000000  0.5551380000000  0.4862760000000 1.0
C      1  0.4679640000000  0.5300030000000  0.4960210000000 1.0
C      1  0.5320890000000  0.3899510000000  0.4651560000000 1.0
C      1  0.5516260000000  0.5150950000000  0.4287130000000 1.0
C      1  0.4679320000000  0.4971150000000  0.5047790000000 1.0
C      1  0.4397940000000  0.5241980000000  0.4186170000000 1.0
C      1  0.4904980000000  0.5487540000000  0.4787410000000 1.0
C      1  0.5392740000000  0.5474000000000  0.5953540000000 1.0
C      1  0.4230150000000  0.5044040000000  0.5326360000000 1.0
C      1  0.4934010000000  0.4946170000000  0.6063470000000 1.0
C      1  0.4644790000000  0.4481400000000  0.4233320000000 1.0
C      1  0.4360470000000  0.4589070000000  0.5637640000000 1.0
C      1  0.4766480000000  0.5971970000000  0.4525150000000 1.0
C      1  0.4865680000000  0.5209190000000  0.4380550000000 1.0
C      1  0.4566380000000  0.5047030000000  0.5328270000000 1.0
C      1  0.5378400000000  0.5421350000000  0.4440420000000 1.0
C      1  0.5039600000000  0.5141690000000  0.4922920000000 1.0
C      1  0.5182400000000  0.4859980000000  0.5700090000000 1.0
C      1  0.4607050000000  0.4768990000000  0.4582090000000 1.0
C      1  0.5377150000000  0.5641820000000  0.4173780000000 1.0
C      1  0.4621780000000  0.5941050000000  0.5429770000000 1.0
C      1  0.5695400000000  0.5799860000000  0.4842620000000 1.0
C      1  0.5055470000000  0.4527380000000  0.5335400000000 1.0
C      1  0.4298510000000  0.4395330000000  0.4549070000000 1.0
C      1  0.5655390000000  0.5631860000000  0.5436020000000 1.0
C      1  0.4272730000000  0.5231520000000  0.4953420000000 1.0
C      1  0.5417820000000  0.4618650000000  0.4304140000000 1.0
C      1  0.4253010000000  0.5742610000000  0.5102330000000 1.0
END
