TITL C-2847958-8115-446 -0.000743621611662894 125000 -667.187992994608 0 0 120 (C1) n - 1
REM
REM in /home/bkarasulu/work/CARBON/AIRSS/Generating-Clusters/AIREBO/with-SteepDescent/Only-C1/SD-CG-opt/Try1-1.4A-POS3A/HFTN-CG
REM
REM
REM
REM
REM
REM ./C.cell (11c1c37f851c82e70ff6c80c92926a4b)
REM
REM compiler GCC version 9.2.1 20190827 (Red Hat 9.2.1-1)
REM options -cpp -mtune=generic -march=x86-64 -g -O0 -fpre-include=/usr/include/finclude/math-vector-fortran.h
REM seed 1612232905 -1486365462 -759224477 588013609 -1667410467 -989447366 -1451440642 1881856804 1067580749 1855815058 1229468229 1893358745 -8435995 1468335252 -2126215348 1077360736 -1044291983 -797558516 93386958 627474301 1098021003 1910391202 -641966646 1772788013 -191611584 1087341867 -373741755 -1704857062 -1091352833 37177544 71912963 -1317436244 -753584639
REM
CELL 1.54180   50.00000   50.00000   50.00000   90.00000   90.00000   90.00000
LATT -1
SFAC C  
C      1  0.5796270000000  0.4421130000000  0.5108620000000 1.0
C      1  0.4445040000000  0.5350050000000  0.4526360000000 1.0
C      1  0.5309460000000  0.5102220000000  0.4718860000000 1.0
C      1  0.5703920000000  0.5449210000000  0.4705590000000 1.0
C      1  0.4937770000000  0.4735650000000  0.4649360000000 1.0
C      1  0.4973680000000  0.4145430000000  0.4214430000000 1.0
C      1  0.5821670000000  0.4875150000000  0.5251610000000 1.0
C      1  0.4829790000000  0.4859100000000  0.4004290000000 1.0
C      1  0.5251690000000  0.4197100000000  0.5352070000000 1.0
C      1  0.4290030000000  0.4805880000000  0.4213010000000 1.0
C      1  0.4876790000000  0.5768190000000  0.4258890000000 1.0
C      1  0.5431270000000  0.4392310000000  0.5558100000000 1.0
C      1  0.5681570000000  0.5361110000000  0.4413980000000 1.0
C      1  0.5915150000000  0.5553080000000  0.4926850000000 1.0
C      1  0.4968140000000  0.5408710000000  0.4388580000000 1.0
C      1  0.5015910000000  0.4421590000000  0.5374440000000 1.0
C      1  0.3806840000000  0.5201870000000  0.5001960000000 1.0
C      1  0.5670800000000  0.4732560000000  0.4891450000000 1.0
C      1  0.4749030000000  0.4485710000000  0.4537160000000 1.0
C      1  0.5462150000000  0.5305100000000  0.5701350000000 1.0
C      1  0.4394770000000  0.4990570000000  0.5646750000000 1.0
C      1  0.5087750000000  0.4368450000000  0.4809590000000 1.0
C      1  0.4951090000000  0.5200830000000  0.4172340000000 1.0
C      1  0.5188210000000  0.4056010000000  0.5099990000000 1.0
C      1  0.3958740000000  0.4726030000000  0.5104540000000 1.0
C      1  0.5285890000000  0.4578010000000  0.5238730000000 1.0
C      1  0.5836540000000  0.4693810000000  0.4628520000000 1.0
C      1  0.5577940000000  0.4407280000000  0.5272890000000 1.0
C      1  0.5245970000000  0.5030370000000  0.4450610000000 1.0
C      1  0.4547760000000  0.4553730000000  0.5322570000000 1.0
C      1  0.4904380000000  0.4094370000000  0.5033040000000 1.0
C      1  0.5353460000000  0.5800120000000  0.5295280000000 1.0
C      1  0.5274780000000  0.4684490000000  0.4658510000000 1.0
C      1  0.4270950000000  0.4342510000000  0.5127440000000 1.0
C      1  0.5445010000000  0.5327170000000  0.5142360000000 1.0
C      1  0.5437100000000  0.4689680000000  0.4370260000000 1.0
C      1  0.5419600000000  0.5575330000000  0.4759500000000 1.0
C      1  0.4739910000000  0.6017720000000  0.5019870000000 1.0
C      1  0.4627860000000  0.5646960000000  0.4716650000000 1.0
C      1  0.5201280000000  0.5363400000000  0.4907890000000 1.0
C      1  0.4521880000000  0.4635210000000  0.4395610000000 1.0
C      1  0.4659860000000  0.5247400000000  0.5502700000000 1.0
C      1  0.4459890000000  0.5551880000000  0.5880700000000 1.0
C      1  0.4864480000000  0.5047780000000  0.5659550000000 1.0
C      1  0.5737170000000  0.4417830000000  0.4800820000000 1.0
C      1  0.4756420000000  0.4668270000000  0.5077620000000 1.0
C      1  0.4681780000000  0.4856420000000  0.5348330000000 1.0
C      1  0.4003580000000  0.5041630000000  0.5117560000000 1.0
C      1  0.6075910000000  0.5331960000000  0.5015310000000 1.0
C      1  0.4296570000000  0.5045330000000  0.4990520000000 1.0
C      1  0.4748340000000  0.5171390000000  0.4948620000000 1.0
C      1  0.5764740000000  0.5092420000000  0.4356110000000 1.0
C      1  0.5102760000000  0.4878900000000  0.3990440000000 1.0
C      1  0.4311520000000  0.5574720000000  0.4745440000000 1.0
C      1  0.5417810000000  0.5082750000000  0.5327050000000 1.0
C      1  0.4957400000000  0.4716210000000  0.5419890000000 1.0
C      1  0.5007000000000  0.5606150000000  0.5045870000000 1.0
C      1  0.5013000000000  0.4996900000000  0.5894530000000 1.0
C      1  0.5207200000000  0.5397290000000  0.5784160000000 1.0
C      1  0.5188510000000  0.4891420000000  0.5489610000000 1.0
C      1  0.4278640000000  0.4698860000000  0.4585770000000 1.0
C      1  0.5899160000000  0.5112290000000  0.5084660000000 1.0
C      1  0.5719580000000  0.4813320000000  0.4410560000000 1.0
C      1  0.5356750000000  0.4084540000000  0.4876170000000 1.0
C      1  0.4272090000000  0.5315760000000  0.5433640000000 1.0
C      1  0.4938460000000  0.5272400000000  0.4685410000000 1.0
C      1  0.4748880000000  0.5686960000000  0.5253910000000 1.0
C      1  0.5851380000000  0.4898360000000  0.5557740000000 1.0
C      1  0.5449700000000  0.4994080000000  0.5656820000000 1.0
C      1  0.5188000000000  0.5641040000000  0.4318270000000 1.0
C      1  0.4087490000000  0.5113010000000  0.5395850000000 1.0
C      1  0.5914720000000  0.5942120000000  0.5220670000000 1.0
C      1  0.4775170000000  0.4190310000000  0.4393170000000 1.0
C      1  0.5801250000000  0.5709870000000  0.5128810000000 1.0
C      1  0.5619450000000  0.5465630000000  0.5553310000000 1.0
C      1  0.5424790000000  0.4410440000000  0.4793120000000 1.0
C      1  0.4686900000000  0.5566360000000  0.4424270000000 1.0
C      1  0.5219580000000  0.4138000000000  0.4596990000000 1.0
C      1  0.5028830000000  0.5152740000000  0.5380950000000 1.0
C      1  0.4182340000000  0.5747770000000  0.4907280000000 1.0
C      1  0.4672000000000  0.4867870000000  0.4815610000000 1.0
C      1  0.5199880000000  0.4781740000000  0.5899770000000 1.0
C      1  0.5448020000000  0.4659610000000  0.5719160000000 1.0
C      1  0.4531990000000  0.5941210000000  0.5219030000000 1.0
C      1  0.4493800000000  0.4236820000000  0.5334680000000 1.0
C      1  0.5296540000000  0.4896370000000  0.4187140000000 1.0
C      1  0.4105420000000  0.4922750000000  0.4442240000000 1.0
C      1  0.4546400000000  0.5107020000000  0.5214550000000 1.0
C      1  0.5411450000000  0.4397860000000  0.4252190000000 1.0
C      1  0.5502210000000  0.4823680000000  0.5146550000000 1.0
C      1  0.5046470000000  0.5119760000000  0.5087730000000 1.0
C      1  0.4409810000000  0.5295730000000  0.5727990000000 1.0
C      1  0.4359540000000  0.4742670000000  0.4864150000000 1.0
C      1  0.5234480000000  0.4868680000000  0.4941690000000 1.0
C      1  0.4673830000000  0.4897460000000  0.4271810000000 1.0
C      1  0.4628120000000  0.5483010000000  0.5011480000000 1.0
C      1  0.4180930000000  0.4578970000000  0.5044220000000 1.0
C      1  0.4930260000000  0.5017960000000  0.4459940000000 1.0
C      1  0.5229180000000  0.4193740000000  0.4325060000000 1.0
C      1  0.5319030000000  0.5758400000000  0.4582550000000 1.0
C      1  0.5757460000000  0.4755780000000  0.5741970000000 1.0
C      1  0.4791530000000  0.4248830000000  0.5242800000000 1.0
C      1  0.4822270000000  0.4203180000000  0.4722060000000 1.0
C      1  0.5021240000000  0.5404520000000  0.5570400000000 1.0
C      1  0.4842490000000  0.5794420000000  0.4880960000000 1.0
C      1  0.4424610000000  0.4048670000000  0.5522780000000 1.0
C      1  0.4765530000000  0.5566260000000  0.5519370000000 1.0
C      1  0.5552690000000  0.5600110000000  0.5273170000000 1.0
C      1  0.5103810000000  0.5245670000000  0.6004050000000 1.0
C      1  0.4106610000000  0.4872160000000  0.5573590000000 1.0
C      1  0.4258990000000  0.5106730000000  0.4671970000000 1.0
C      1  0.4541900000000  0.5021950000000  0.4541770000000 1.0
C      1  0.5972740000000  0.4615440000000  0.5176510000000 1.0
C      1  0.4380980000000  0.4693350000000  0.5554460000000 1.0
C      1  0.4640010000000  0.5696330000000  0.5771490000000 1.0
C      1  0.4299920000000  0.5767390000000  0.5168520000000 1.0
C      1  0.4384670000000  0.5494020000000  0.5249720000000 1.0
C      1  0.5670390000000  0.5239120000000  0.4952650000000 1.0
C      1  0.5039840000000  0.4595260000000  0.5015580000000 1.0
C      1  0.5498040000000  0.5515840000000  0.4276500000000 1.0
END
