TITL C-2848506-1665-608 -1.96937001200628e-07 125000 -123.493591695667 0 0 24 (C1) n - 1
REM
REM in /home/bkarasulu/work/CARBON/AIRSS/Generating-Clusters/AIREBO/with-SteepDescent/Only-C1/SD-CG-opt/Try1-1.4A-POS3A/HFTN-CG
REM
REM
REM
REM
REM
REM ./C.cell (11c1c37f851c82e70ff6c80c92926a4b)
REM
REM compiler GCC version 9.2.1 20190827 (Red Hat 9.2.1-1)
REM options -cpp -mtune=generic -march=x86-64 -g -O0 -fpre-include=/usr/include/finclude/math-vector-fortran.h
REM seed -433436393 1362377893 -1321314515 949619525 -1230195704 -1722800082 -74237590 981229302 1424045049 -1412579764 806181768 -2120344778 -628144211 -1357313219 -593165685 453196132 4900007 -578827268 1465237759 2047749383 359619477 978431410 -666946139 60140837 -1874637421 -1529483589 -374709168 455242742 476434754 -1788464004 936222697 237664272 -1639860861
REM
CELL 1.54180   50.00000   50.00000   50.00000   90.00000   90.00000   90.00000
LATT -1
SFAC C  
C      1  0.5424660000000  0.5257780000000  0.5114880000000 1.0
C      1  0.5471740000000  0.5642530000000  0.5473210000000 1.0
C      1  0.4804440000000  0.5147050000000  0.4993540000000 1.0
C      1  0.4674380000000  0.5341470000000  0.5187400000000 1.0
C      1  0.4960750000000  0.4925440000000  0.5127520000000 1.0
C      1  0.4857800000000  0.5268480000000  0.4688200000000 1.0
C      1  0.4477330000000  0.4741460000000  0.5648260000000 1.0
C      1  0.4621740000000  0.5068960000000  0.4726520000000 1.0
C      1  0.5216250000000  0.4830720000000  0.4965620000000 1.0
C      1  0.4975400000000  0.4501140000000  0.4610680000000 1.0
C      1  0.4408890000000  0.4943710000000  0.4628200000000 1.0
C      1  0.5392690000000  0.5072530000000  0.4913830000000 1.0
C      1  0.5002560000000  0.5420500000000  0.4525130000000 1.0
C      1  0.5542340000000  0.5077340000000  0.4682870000000 1.0
C      1  0.5665500000000  0.5095320000000  0.4452180000000 1.0
C      1  0.5092430000000  0.5036650000000  0.5388420000000 1.0
C      1  0.5435850000000  0.5450660000000  0.5298270000000 1.0
C      1  0.4751170000000  0.4482810000000  0.5027420000000 1.0
C      1  0.4772210000000  0.4696410000000  0.5202320000000 1.0
C      1  0.5127470000000  0.4711890000000  0.4690110000000 1.0
C      1  0.4764900000000  0.4412150000000  0.4764110000000 1.0
C      1  0.4587890000000  0.5515440000000  0.5352920000000 1.0
C      1  0.4611730000000  0.4725640000000  0.5423780000000 1.0
C      1  0.5359860000000  0.4633930000000  0.5114640000000 1.0
END
