TITL C-2847956-8218-585 4.81902375330909e-05 125000 -131.262274020378 0 0 23 (C1) n - 1
REM
REM in /home/bkarasulu/work/CARBON/AIRSS/Generating-Clusters/AIREBO/with-SteepDescent/Only-C1/SD-CG-opt/Try1-1.4A-POS3A/HFTN-CG
REM
REM
REM
REM
REM
REM ./C.cell (11c1c37f851c82e70ff6c80c92926a4b)
REM
REM compiler GCC version 9.2.1 20190827 (Red Hat 9.2.1-1)
REM options -cpp -mtune=generic -march=x86-64 -g -O0 -fpre-include=/usr/include/finclude/math-vector-fortran.h
REM seed 1767803952 1212592421 367450061 -1444789556 1841697865 -72220278 -1071136995 -663817627 -1024018891 -1138205675 1622036510 -1829592905 -1895682698 1941794088 -992239494 1362608637 -992173191 2005067877 -1174224659 -953320984 -1262205161 388257912 -1472015886 1311789336 -591155684 130838169 -977230631 -1877271238 -2051584852 -48164655 -1777382358 1800313089 -1889516253
REM
CELL 1.54180   50.00000   50.00000   50.00000   90.00000   90.00000   90.00000
LATT -1
SFAC C  
C      1  0.5076440000000  0.4575700000000  0.4793630000000 1.0
C      1  0.4252180000000  0.4763750000000  0.5790740000000 1.0
C      1  0.5520540000000  0.5098950000000  0.4965580000000 1.0
C      1  0.5143510000000  0.4631820000000  0.4520450000000 1.0
C      1  0.5120190000000  0.5415030000000  0.5002850000000 1.0
C      1  0.5493280000000  0.4767600000000  0.4950460000000 1.0
C      1  0.5540520000000  0.4917950000000  0.4679250000000 1.0
C      1  0.4545060000000  0.4957320000000  0.5154120000000 1.0
C      1  0.4879780000000  0.5352810000000  0.4873330000000 1.0
C      1  0.4689450000000  0.4907140000000  0.4921340000000 1.0
C      1  0.4385130000000  0.4900180000000  0.5610700000000 1.0
C      1  0.4545800000000  0.5026480000000  0.5424870000000 1.0
C      1  0.4836480000000  0.5067140000000  0.4484900000000 1.0
C      1  0.4821780000000  0.4662820000000  0.4875120000000 1.0
C      1  0.5053960000000  0.4916590000000  0.4404420000000 1.0
C      1  0.4717500000000  0.5236280000000  0.5492370000000 1.0
C      1  0.4969980000000  0.5327650000000  0.5461220000000 1.0
C      1  0.5431940000000  0.5207160000000  0.5263730000000 1.0
C      1  0.4765270000000  0.5125590000000  0.4752670000000 1.0
C      1  0.5301620000000  0.4566860000000  0.4967040000000 1.0
C      1  0.5366120000000  0.4867520000000  0.4473050000000 1.0
C      1  0.5173680000000  0.5334230000000  0.5273760000000 1.0
C      1  0.5369830000000  0.5373460000000  0.4864410000000 1.0
END
