TITL C-2848494-1720-266 -6.56383686358881e-05 125000 -141.605961339408 0 0 25 (C1) n - 1
REM
REM in /home/bkarasulu/work/CARBON/AIRSS/Generating-Clusters/AIREBO/with-SteepDescent/Only-C1/SD-CG-opt/Try1-1.4A-POS3A/HFTN-CG
REM
REM
REM
REM
REM
REM ./C.cell (11c1c37f851c82e70ff6c80c92926a4b)
REM
REM compiler GCC version 9.2.1 20190827 (Red Hat 9.2.1-1)
REM options -cpp -mtune=generic -march=x86-64 -g -O0 -fpre-include=/usr/include/finclude/math-vector-fortran.h
REM seed 768190587 -555340821 716931058 -1303681942 -712836246 4280542 -877002523 -1869403605 656798423 -1749288594 1735104703 516414812 -213263078 1539035829 -790162683 -2018898717 1737283647 -1862463645 1685483114 -814334682 1747594018 1628060214 -1569270078 -1846171339 242441105 -211226611 -767643429 -2063027085 -511358712 541465809 -828680501 -477246920 -1918362196
REM
CELL 1.54180   50.00000   50.00000   50.00000   90.00000   90.00000   90.00000
LATT -1
SFAC C  
C      1  0.5523990000000  0.4949980000000  0.5540840000000 1.0
C      1  0.4700060000000  0.5221860000000  0.5211390000000 1.0
C      1  0.5238300000000  0.5395440000000  0.4721760000000 1.0
C      1  0.4808840000000  0.5018720000000  0.4561990000000 1.0
C      1  0.5147220000000  0.4581220000000  0.5064470000000 1.0
C      1  0.5393540000000  0.5016390000000  0.5312560000000 1.0
C      1  0.5221470000000  0.4500870000000  0.5317040000000 1.0
C      1  0.5108330000000  0.4604220000000  0.4602430000000 1.0
C      1  0.4400890000000  0.5270880000000  0.4680630000000 1.0
C      1  0.4425380000000  0.5465490000000  0.4875060000000 1.0
C      1  0.4988100000000  0.4844390000000  0.4691060000000 1.0
C      1  0.5186970000000  0.4446600000000  0.4817850000000 1.0
C      1  0.4525330000000  0.5409590000000  0.5124630000000 1.0
C      1  0.4538800000000  0.4873280000000  0.4918900000000 1.0
C      1  0.5315730000000  0.5555730000000  0.5162390000000 1.0
C      1  0.4721860000000  0.4751640000000  0.5375760000000 1.0
C      1  0.4918450000000  0.5217930000000  0.4397120000000 1.0
C      1  0.5031850000000  0.4880270000000  0.5010700000000 1.0
C      1  0.4558070000000  0.5036430000000  0.4686240000000 1.0
C      1  0.5263550000000  0.5349750000000  0.4995140000000 1.0
C      1  0.5390540000000  0.4491020000000  0.5529640000000 1.0
C      1  0.4755620000000  0.4916880000000  0.5149970000000 1.0
C      1  0.5510090000000  0.4701790000000  0.5660640000000 1.0
C      1  0.5238770000000  0.5090410000000  0.5095500000000 1.0
C      1  0.5088270000000  0.5409190000000  0.4496300000000 1.0
END
