TITL C-2847945-6269-544 0.000719366447338937 125000 -943.917368920357 0 0 172 (C1) n - 1
REM
REM in /home/bkarasulu/work/CARBON/AIRSS/Generating-Clusters/AIREBO/with-SteepDescent/Only-C1/SD-CG-opt/Try1-1.4A-POS3A/HFTN-CG
REM
REM
REM
REM
REM
REM ./C.cell (11c1c37f851c82e70ff6c80c92926a4b)
REM
REM compiler GCC version 9.2.1 20190827 (Red Hat 9.2.1-1)
REM options -cpp -mtune=generic -march=x86-64 -g -O0 -fpre-include=/usr/include/finclude/math-vector-fortran.h
REM seed -1219857137 -1397133071 1396943553 -1386677817 97349166 773249912 621779657 847848638 -250030175 1662496453 1553817866 -582064969 -240437004 -951067659 742423900 -713626712 -390992457 1922510248 -781133849 517912380 2011479120 1521056355 1781553910 -1891723979 -1935141106 627071477 1080153285 414377131 -1105698530 -404911290 469190496 -1573697399 1826528723
REM
CELL 1.54180   50.00000   50.00000   50.00000   90.00000   90.00000   90.00000
LATT -1
SFAC C  
C      1  0.4803310000000  0.4537290000000  0.4897650000000 1.0
C      1  0.5582970000000  0.5678480000000  0.4922760000000 1.0
C      1  0.4706080000000  0.5926190000000  0.4522890000000 1.0
C      1  0.4936090000000  0.6131230000000  0.5240790000000 1.0
C      1  0.4940200000000  0.4533350000000  0.4363270000000 1.0
C      1  0.5684800000000  0.5384290000000  0.4399050000000 1.0
C      1  0.4727370000000  0.5484680000000  0.4612970000000 1.0
C      1  0.4078820000000  0.4751800000000  0.4318110000000 1.0
C      1  0.5516750000000  0.5668300000000  0.4469790000000 1.0
C      1  0.5690470000000  0.4640700000000  0.5837500000000 1.0
C      1  0.4282020000000  0.5048320000000  0.4137420000000 1.0
C      1  0.4362830000000  0.4984390000000  0.5514940000000 1.0
C      1  0.4498190000000  0.5004790000000  0.5792860000000 1.0
C      1  0.5830240000000  0.4390300000000  0.4851310000000 1.0
C      1  0.6101370000000  0.5099310000000  0.4816960000000 1.0
C      1  0.5324180000000  0.4415530000000  0.4725140000000 1.0
C      1  0.5057420000000  0.4968710000000  0.4361730000000 1.0
C      1  0.6033590000000  0.5410080000000  0.4797400000000 1.0
C      1  0.5367320000000  0.4085260000000  0.4740290000000 1.0
C      1  0.4548240000000  0.4212920000000  0.4590720000000 1.0
C      1  0.5315120000000  0.5828590000000  0.5000690000000 1.0
C      1  0.5143440000000  0.4127950000000  0.5777300000000 1.0
C      1  0.5513070000000  0.5508560000000  0.5792620000000 1.0
C      1  0.5194430000000  0.6012630000000  0.5260990000000 1.0
C      1  0.5879500000000  0.4903740000000  0.4671250000000 1.0
C      1  0.4055750000000  0.4936580000000  0.5536750000000 1.0
C      1  0.4991330000000  0.5338320000000  0.6196500000000 1.0
C      1  0.5480940000000  0.5640160000000  0.5555840000000 1.0
C      1  0.5788590000000  0.4338680000000  0.5310380000000 1.0
C      1  0.5284660000000  0.4349410000000  0.5912970000000 1.0
C      1  0.5855770000000  0.4822270000000  0.4341780000000 1.0
C      1  0.5931160000000  0.5047320000000  0.5336000000000 1.0
C      1  0.5206610000000  0.5757720000000  0.5485840000000 1.0
C      1  0.4659870000000  0.5749660000000  0.4893710000000 1.0
C      1  0.5215360000000  0.3890360000000  0.5405920000000 1.0
C      1  0.4835290000000  0.4616640000000  0.5872560000000 1.0
C      1  0.4440750000000  0.4891040000000  0.4721840000000 1.0
C      1  0.4538390000000  0.4698160000000  0.5730410000000 1.0
C      1  0.5477040000000  0.4747120000000  0.4563120000000 1.0
C      1  0.5324630000000  0.4501740000000  0.5201130000000 1.0
C      1  0.5236360000000  0.5716880000000  0.5991790000000 1.0
C      1  0.3964930000000  0.5089450000000  0.4858090000000 1.0
C      1  0.5155420000000  0.4843850000000  0.5801560000000 1.0
C      1  0.5734900000000  0.4845990000000  0.6079240000000 1.0
C      1  0.6032090000000  0.5492060000000  0.5094660000000 1.0
C      1  0.4406750000000  0.5531490000000  0.4216210000000 1.0
C      1  0.4657400000000  0.4675950000000  0.3956200000000 1.0
C      1  0.4200160000000  0.5286460000000  0.4800290000000 1.0
C      1  0.4775540000000  0.6115160000000  0.5001790000000 1.0
C      1  0.4282630000000  0.4408020000000  0.4634470000000 1.0
C      1  0.5618560000000  0.5031630000000  0.5083780000000 1.0
C      1  0.5394140000000  0.4755030000000  0.5417790000000 1.0
C      1  0.5591090000000  0.4470730000000  0.4432500000000 1.0
C      1  0.4437120000000  0.5712060000000  0.5222470000000 1.0
C      1  0.4914050000000  0.4137360000000  0.4179240000000 1.0
C      1  0.4620250000000  0.4385630000000  0.5795530000000 1.0
C      1  0.4462270000000  0.4781760000000  0.4210610000000 1.0
C      1  0.4302910000000  0.5264840000000  0.4301970000000 1.0
C      1  0.3970010000000  0.4796110000000  0.4831420000000 1.0
C      1  0.3949610000000  0.5377750000000  0.5292210000000 1.0
C      1  0.5569810000000  0.4164100000000  0.4537310000000 1.0
C      1  0.4478180000000  0.5271990000000  0.5844600000000 1.0
C      1  0.5601870000000  0.5481310000000  0.5343210000000 1.0
C      1  0.5263840000000  0.5493730000000  0.4399970000000 1.0
C      1  0.5799300000000  0.4203580000000  0.5055800000000 1.0
C      1  0.5792560000000  0.5617860000000  0.5160980000000 1.0
C      1  0.5099600000000  0.5359530000000  0.5001200000000 1.0
C      1  0.5187030000000  0.4257410000000  0.4171750000000 1.0
C      1  0.4991750000000  0.5141930000000  0.5801230000000 1.0
C      1  0.5448410000000  0.5037660000000  0.5580510000000 1.0
C      1  0.4781060000000  0.4925730000000  0.5305130000000 1.0
C      1  0.5005420000000  0.5768840000000  0.5753650000000 1.0
C      1  0.5124010000000  0.5119540000000  0.5245120000000 1.0
C      1  0.4973670000000  0.4776990000000  0.3854890000000 1.0
C      1  0.4723530000000  0.5104260000000  0.4089090000000 1.0
C      1  0.4211620000000  0.4119160000000  0.4779940000000 1.0
C      1  0.5104060000000  0.5366190000000  0.4671670000000 1.0
C      1  0.4613120000000  0.5028900000000  0.4388980000000 1.0
C      1  0.5557290000000  0.4985100000000  0.4345560000000 1.0
C      1  0.5232390000000  0.5448760000000  0.6065360000000 1.0
C      1  0.5028120000000  0.4399390000000  0.5114990000000 1.0
C      1  0.4777330000000  0.6100680000000  0.5479000000000 1.0
C      1  0.5418710000000  0.4887470000000  0.4867350000000 1.0
C      1  0.4549400000000  0.4767830000000  0.5397140000000 1.0
C      1  0.5168560000000  0.5920030000000  0.4738410000000 1.0
C      1  0.5372910000000  0.4394000000000  0.5587620000000 1.0
C      1  0.5119200000000  0.4274480000000  0.4493410000000 1.0
C      1  0.5879260000000  0.4576380000000  0.4579000000000 1.0
C      1  0.5052090000000  0.5579670000000  0.4203870000000 1.0
C      1  0.5375050000000  0.5336270000000  0.5169960000000 1.0
C      1  0.4091610000000  0.5275680000000  0.5529350000000 1.0
C      1  0.4376050000000  0.5808590000000  0.4715880000000 1.0
C      1  0.5604760000000  0.5339240000000  0.4939600000000 1.0
C      1  0.4964890000000  0.4084740000000  0.5503290000000 1.0
C      1  0.5467970000000  0.4882220000000  0.5871620000000 1.0
C      1  0.4337700000000  0.4940510000000  0.5042080000000 1.0
C      1  0.4862450000000  0.5587600000000  0.6004340000000 1.0
C      1  0.5781050000000  0.5569010000000  0.4667790000000 1.0
C      1  0.5336140000000  0.5071250000000  0.4025860000000 1.0
C      1  0.5465000000000  0.4565050000000  0.4948180000000 1.0
C      1  0.4385690000000  0.5181230000000  0.4590840000000 1.0
C      1  0.4668700000000  0.5377960000000  0.5366630000000 1.0
C      1  0.4222920000000  0.4339880000000  0.5419200000000 1.0
C      1  0.4507590000000  0.5976650000000  0.5082060000000 1.0
C      1  0.5621410000000  0.5240390000000  0.4130080000000 1.0
C      1  0.5770670000000  0.4713730000000  0.4937770000000 1.0
C      1  0.5429950000000  0.5442600000000  0.3932150000000 1.0
C      1  0.4965270000000  0.4918650000000  0.4674310000000 1.0
C      1  0.4529430000000  0.5646360000000  0.5517850000000 1.0
C      1  0.3851910000000  0.5153380000000  0.5132320000000 1.0
C      1  0.4875230000000  0.4813150000000  0.4178370000000 1.0
C      1  0.5202380000000  0.4591650000000  0.6024840000000 1.0
C      1  0.5315210000000  0.5246230000000  0.5814310000000 1.0
C      1  0.5118430000000  0.3936550000000  0.4904890000000 1.0
C      1  0.4455890000000  0.5725500000000  0.4409870000000 1.0
C      1  0.4961560000000  0.5666390000000  0.4753390000000 1.0
C      1  0.5395180000000  0.5925830000000  0.4520550000000 1.0
C      1  0.4867300000000  0.6051820000000  0.4734550000000 1.0
C      1  0.5124940000000  0.4966500000000  0.4941500000000 1.0
C      1  0.5080980000000  0.4561540000000  0.5645560000000 1.0
C      1  0.4961780000000  0.4088830000000  0.5159730000000 1.0
C      1  0.5077750000000  0.4790120000000  0.5318960000000 1.0
C      1  0.4133430000000  0.4619900000000  0.5431780000000 1.0
C      1  0.5148550000000  0.5422810000000  0.3974860000000 1.0
C      1  0.4393900000000  0.5422520000000  0.5049350000000 1.0
C      1  0.4444360000000  0.4187860000000  0.5382880000000 1.0
C      1  0.5019080000000  0.5109240000000  0.3951210000000 1.0
C      1  0.5654260000000  0.3960490000000  0.5036560000000 1.0
C      1  0.4948700000000  0.4765900000000  0.6133640000000 1.0
C      1  0.4089370000000  0.5553210000000  0.5125630000000 1.0
C      1  0.4711780000000  0.4814640000000  0.4823750000000 1.0
C      1  0.4160460000000  0.4596460000000  0.4881380000000 1.0
C      1  0.5657900000000  0.4568600000000  0.5524280000000 1.0
C      1  0.4318590000000  0.5416560000000  0.5653410000000 1.0
C      1  0.4708860000000  0.4268310000000  0.5530330000000 1.0
C      1  0.4955300000000  0.5044900000000  0.6125180000000 1.0
C      1  0.4774970000000  0.4417920000000  0.4623200000000 1.0
C      1  0.4633570000000  0.4450070000000  0.5149130000000 1.0
C      1  0.5917190000000  0.4783050000000  0.5415140000000 1.0
C      1  0.4900000000000  0.5191140000000  0.5481260000000 1.0
C      1  0.5156980000000  0.4657150000000  0.4588290000000 1.0
C      1  0.4740440000000  0.5354260000000  0.5887450000000 1.0
C      1  0.4782410000000  0.4070640000000  0.4424930000000 1.0
C      1  0.5654200000000  0.5167330000000  0.5393670000000 1.0
C      1  0.6070960000000  0.5179760000000  0.5121960000000 1.0
C      1  0.5281640000000  0.4754140000000  0.3998240000000 1.0
C      1  0.4044540000000  0.4933400000000  0.5214160000000 1.0
C      1  0.4741570000000  0.5861940000000  0.5609530000000 1.0
C      1  0.5278420000000  0.5172890000000  0.4345210000000 1.0
C      1  0.4148040000000  0.5622310000000  0.4810060000000 1.0
C      1  0.4702950000000  0.5354500000000  0.4926380000000 1.0
C      1  0.4822020000000  0.5199770000000  0.4579760000000 1.0
C      1  0.4328570000000  0.4693810000000  0.4511030000000 1.0
C      1  0.4990270000000  0.4018550000000  0.4633630000000 1.0
C      1  0.5899050000000  0.4593570000000  0.5206550000000 1.0
C      1  0.4345500000000  0.4624100000000  0.5166000000000 1.0
C      1  0.5608340000000  0.4740500000000  0.4114750000000 1.0
C      1  0.4287780000000  0.6079920000000  0.4720650000000 1.0
C      1  0.5358230000000  0.3964730000000  0.5121550000000 1.0
C      1  0.4626070000000  0.4121930000000  0.5116790000000 1.0
C      1  0.4803410000000  0.5578090000000  0.5145770000000 1.0
C      1  0.4869470000000  0.4528520000000  0.5381350000000 1.0
C      1  0.4551760000000  0.5358530000000  0.4004410000000 1.0
C      1  0.5690250000000  0.5180990000000  0.4665330000000 1.0
C      1  0.5110040000000  0.5635290000000  0.5184760000000 1.0
C      1  0.4486360000000  0.4031250000000  0.4871440000000 1.0
C      1  0.4844980000000  0.5680070000000  0.4360680000000 1.0
C      1  0.4429930000000  0.5172730000000  0.5266640000000 1.0
C      1  0.5386950000000  0.4486570000000  0.4160710000000 1.0
C      1  0.5323450000000  0.4207970000000  0.5343980000000 1.0
C      1  0.4804530000000  0.5058020000000  0.5012840000000 1.0
C      1  0.5373540000000  0.5154820000000  0.4671140000000 1.0
END
