TITL C-2847952-8118-213 0.00147085139153709 125000 -1051.21531072501 0 0 192 (C1) n - 1
REM
REM in /home/bkarasulu/work/CARBON/AIRSS/Generating-Clusters/AIREBO/with-SteepDescent/Only-C1/SD-CG-opt/Try1-1.4A-POS3A/HFTN-CG
REM
REM
REM
REM
REM
REM ./C.cell (11c1c37f851c82e70ff6c80c92926a4b)
REM
REM compiler GCC version 9.2.1 20190827 (Red Hat 9.2.1-1)
REM options -cpp -mtune=generic -march=x86-64 -g -O0 -fpre-include=/usr/include/finclude/math-vector-fortran.h
REM seed -2077000448 -579405078 -1265633883 -1802405825 -951934503 -451850052 657729848 -185939419 1311492801 -1951854162 24410746 1181273021 1869847802 2060285310 -87108592 -958477871 1282936951 1839299565 1388393596 259409912 1007808490 -1741477821 -155553479 1038384661 -1928650454 874903343 445345282 -1343977322 -1744619630 -1959618190 127877927 61948826 -206391004
REM
CELL 1.54180   50.00000   50.00000   50.00000   90.00000   90.00000   90.00000
LATT -1
SFAC C  
C      1  0.4176710000000  0.4751240000000  0.5723760000000 1.0
C      1  0.4160450000000  0.5266050000000  0.5269570000000 1.0
C      1  0.5956460000000  0.4534060000000  0.5507120000000 1.0
C      1  0.4977750000000  0.4442940000000  0.5009120000000 1.0
C      1  0.5165420000000  0.5166630000000  0.4354780000000 1.0
C      1  0.3818710000000  0.5338030000000  0.4944830000000 1.0
C      1  0.4260470000000  0.5685520000000  0.4897310000000 1.0
C      1  0.5956290000000  0.4235070000000  0.5133030000000 1.0
C      1  0.5934840000000  0.4908290000000  0.4543340000000 1.0
C      1  0.4724390000000  0.3846990000000  0.5192350000000 1.0
C      1  0.5781650000000  0.5696810000000  0.5422040000000 1.0
C      1  0.4889410000000  0.5240050000000  0.4860980000000 1.0
C      1  0.5519700000000  0.5318080000000  0.4459260000000 1.0
C      1  0.6000700000000  0.4945730000000  0.5060720000000 1.0
C      1  0.5045380000000  0.5509790000000  0.4931310000000 1.0
C      1  0.5253390000000  0.4639680000000  0.4552590000000 1.0
C      1  0.3946590000000  0.5135060000000  0.4776400000000 1.0
C      1  0.4648700000000  0.5029480000000  0.5820910000000 1.0
C      1  0.5217210000000  0.4646060000000  0.5139720000000 1.0
C      1  0.5130710000000  0.4829770000000  0.5412610000000 1.0
C      1  0.5207290000000  0.5397560000000  0.4108770000000 1.0
C      1  0.4400690000000  0.4390460000000  0.4107550000000 1.0
C      1  0.4087570000000  0.4439040000000  0.5370800000000 1.0
C      1  0.5384840000000  0.4907850000000  0.4389940000000 1.0
C      1  0.5180800000000  0.4880280000000  0.4921000000000 1.0
C      1  0.4036700000000  0.4978200000000  0.5626530000000 1.0
C      1  0.5818400000000  0.5450990000000  0.4736820000000 1.0
C      1  0.5529420000000  0.4038950000000  0.4946160000000 1.0
C      1  0.5025120000000  0.5642800000000  0.4188910000000 1.0
C      1  0.4554420000000  0.5207180000000  0.4898100000000 1.0
C      1  0.4990530000000  0.6053550000000  0.5365350000000 1.0
C      1  0.5653370000000  0.4188480000000  0.5183680000000 1.0
C      1  0.5478730000000  0.4807050000000  0.4836580000000 1.0
C      1  0.5574350000000  0.5294770000000  0.4854540000000 1.0
C      1  0.4212530000000  0.4535610000000  0.4571660000000 1.0
C      1  0.4492020000000  0.5284840000000  0.5933450000000 1.0
C      1  0.5159260000000  0.4246960000000  0.5219670000000 1.0
C      1  0.4772110000000  0.5223280000000  0.5361490000000 1.0
C      1  0.4600340000000  0.4862810000000  0.4453850000000 1.0
C      1  0.4993410000000  0.6249510000000  0.5173650000000 1.0
C      1  0.5147380000000  0.5671360000000  0.4476460000000 1.0
C      1  0.4680840000000  0.6064290000000  0.4557760000000 1.0
C      1  0.5611430000000  0.5822970000000  0.4364570000000 1.0
C      1  0.5019460000000  0.4361760000000  0.5480270000000 1.0
C      1  0.5528210000000  0.4201180000000  0.4450010000000 1.0
C      1  0.5557680000000  0.5624430000000  0.5176650000000 1.0
C      1  0.4866310000000  0.4758690000000  0.6015370000000 1.0
C      1  0.6085140000000  0.4413490000000  0.5255970000000 1.0
C      1  0.3740250000000  0.5214350000000  0.5197830000000 1.0
C      1  0.5422910000000  0.5250530000000  0.5133770000000 1.0
C      1  0.5493410000000  0.5839600000000  0.5847850000000 1.0
C      1  0.4862770000000  0.4493960000000  0.4188230000000 1.0
C      1  0.4558800000000  0.4137430000000  0.5254660000000 1.0
C      1  0.4758930000000  0.4184110000000  0.4982260000000 1.0
C      1  0.4706780000000  0.5150390000000  0.4039200000000 1.0
C      1  0.5017310000000  0.5178260000000  0.3984220000000 1.0
C      1  0.4667250000000  0.4811420000000  0.4048660000000 1.0
C      1  0.4752120000000  0.4019660000000  0.4255120000000 1.0
C      1  0.4693430000000  0.5723830000000  0.5775490000000 1.0
C      1  0.5670380000000  0.5676310000000  0.5704720000000 1.0
C      1  0.4138020000000  0.5085470000000  0.4563560000000 1.0
C      1  0.5872440000000  0.5503070000000  0.4437100000000 1.0
C      1  0.5003990000000  0.4440500000000  0.4669930000000 1.0
C      1  0.3914940000000  0.4958960000000  0.5339910000000 1.0
C      1  0.5192700000000  0.5757010000000  0.5847770000000 1.0
C      1  0.5323350000000  0.5788660000000  0.4992600000000 1.0
C      1  0.5077500000000  0.5307540000000  0.5326030000000 1.0
C      1  0.4418640000000  0.5258280000000  0.4601610000000 1.0
C      1  0.4320950000000  0.5705990000000  0.4562560000000 1.0
C      1  0.4691980000000  0.5918200000000  0.5381950000000 1.0
C      1  0.6056230000000  0.4642110000000  0.4677030000000 1.0
C      1  0.5510800000000  0.5060300000000  0.4662050000000 1.0
C      1  0.5472600000000  0.5082050000000  0.6086260000000 1.0
C      1  0.4499330000000  0.4112510000000  0.4444370000000 1.0
C      1  0.4998460000000  0.3980020000000  0.4419310000000 1.0
C      1  0.5320600000000  0.4095430000000  0.5482100000000 1.0
C      1  0.4355970000000  0.5119670000000  0.5432610000000 1.0
C      1  0.4946050000000  0.4562700000000  0.5829960000000 1.0
C      1  0.4725600000000  0.4650270000000  0.5104530000000 1.0
C      1  0.4341120000000  0.4829920000000  0.4619510000000 1.0
C      1  0.4935810000000  0.5645260000000  0.5922620000000 1.0
C      1  0.5265700000000  0.5642330000000  0.5585450000000 1.0
C      1  0.4593090000000  0.5620910000000  0.4883190000000 1.0
C      1  0.5724610000000  0.5298930000000  0.4221190000000 1.0
C      1  0.4504550000000  0.4853930000000  0.5415230000000 1.0
C      1  0.5263540000000  0.5855600000000  0.5320580000000 1.0
C      1  0.5994890000000  0.4842070000000  0.5575860000000 1.0
C      1  0.5582390000000  0.5356910000000  0.5385170000000 1.0
C      1  0.5350640000000  0.5512280000000  0.4843460000000 1.0
C      1  0.4109190000000  0.5164200000000  0.4072210000000 1.0
C      1  0.5060990000000  0.5598950000000  0.5227000000000 1.0
C      1  0.4748380000000  0.4229880000000  0.4592930000000 1.0
C      1  0.4358620000000  0.5783460000000  0.5208440000000 1.0
C      1  0.4098200000000  0.4942380000000  0.4274130000000 1.0
C      1  0.5159080000000  0.5029440000000  0.5686460000000 1.0
C      1  0.5318150000000  0.4686170000000  0.4140810000000 1.0
C      1  0.4174840000000  0.4467970000000  0.5635000000000 1.0
C      1  0.4454960000000  0.5725890000000  0.5532090000000 1.0
C      1  0.4357490000000  0.4957410000000  0.4920120000000 1.0
C      1  0.4440660000000  0.4244150000000  0.4892350000000 1.0
C      1  0.4389530000000  0.4694620000000  0.5130910000000 1.0
C      1  0.4515950000000  0.4729910000000  0.5731780000000 1.0
C      1  0.5954480000000  0.5143480000000  0.4788440000000 1.0
C      1  0.5647490000000  0.4908590000000  0.5389670000000 1.0
C      1  0.4418000000000  0.4669190000000  0.6278390000000 1.0
C      1  0.4237570000000  0.4628260000000  0.4268920000000 1.0
C      1  0.5072390000000  0.5807340000000  0.4763880000000 1.0
C      1  0.5676640000000  0.4787420000000  0.5910490000000 1.0
C      1  0.5763680000000  0.4751790000000  0.4925820000000 1.0
C      1  0.5671830000000  0.4160900000000  0.4715770000000 1.0
C      1  0.4950950000000  0.6154420000000  0.4920120000000 1.0
C      1  0.5219080000000  0.4208370000000  0.4417500000000 1.0
C      1  0.5477380000000  0.4476250000000  0.4889210000000 1.0
C      1  0.5243020000000  0.5308790000000  0.5586260000000 1.0
C      1  0.4964630000000  0.6100010000000  0.4616870000000 1.0
C      1  0.4659590000000  0.5498580000000  0.4603280000000 1.0
C      1  0.4781520000000  0.5622010000000  0.5341110000000 1.0
C      1  0.5590400000000  0.5283040000000  0.5993070000000 1.0
C      1  0.4069520000000  0.4642190000000  0.5028270000000 1.0
C      1  0.4744230000000  0.5663550000000  0.4175890000000 1.0
C      1  0.4765560000000  0.5870320000000  0.4896280000000 1.0
C      1  0.5132300000000  0.5140920000000  0.5055700000000 1.0
C      1  0.5175240000000  0.4584420000000  0.5626460000000 1.0
C      1  0.4906310000000  0.4711300000000  0.3930310000000 1.0
C      1  0.5472630000000  0.4599480000000  0.5721560000000 1.0
C      1  0.4099480000000  0.5232660000000  0.5714260000000 1.0
C      1  0.6032650000000  0.5342730000000  0.5050480000000 1.0
C      1  0.4407080000000  0.4907060000000  0.4182320000000 1.0
C      1  0.5692530000000  0.5942030000000  0.4980300000000 1.0
C      1  0.4999780000000  0.3880060000000  0.5211270000000 1.0
C      1  0.5865990000000  0.5039320000000  0.4237130000000 1.0
C      1  0.5577300000000  0.4519120000000  0.4567040000000 1.0
C      1  0.3992030000000  0.4566390000000  0.4782860000000 1.0
C      1  0.4661480000000  0.5432300000000  0.5120950000000 1.0
C      1  0.4575610000000  0.4722740000000  0.6066600000000 1.0
C      1  0.5507360000000  0.4482270000000  0.5210960000000 1.0
C      1  0.5528910000000  0.6040850000000  0.5215540000000 1.0
C      1  0.4310510000000  0.5378800000000  0.4163170000000 1.0
C      1  0.5904900000000  0.5392890000000  0.5324690000000 1.0
C      1  0.4179240000000  0.5595690000000  0.4349780000000 1.0
C      1  0.5166080000000  0.4435780000000  0.4213470000000 1.0
C      1  0.4658060000000  0.4286990000000  0.4124310000000 1.0
C      1  0.5147920000000  0.4898500000000  0.3968050000000 1.0
C      1  0.4579700000000  0.5239280000000  0.4317180000000 1.0
C      1  0.4596180000000  0.5475590000000  0.4006180000000 1.0
C      1  0.5794910000000  0.4080260000000  0.5644200000000 1.0
C      1  0.5589050000000  0.4076750000000  0.5455890000000 1.0
C      1  0.4411440000000  0.4064620000000  0.5541960000000 1.0
C      1  0.4656030000000  0.5283170000000  0.5630300000000 1.0
C      1  0.5505820000000  0.5481540000000  0.4071860000000 1.0
C      1  0.4723050000000  0.4419050000000  0.5351290000000 1.0
C      1  0.5922230000000  0.5051970000000  0.5330250000000 1.0
C      1  0.5690330000000  0.4761960000000  0.4357560000000 1.0
C      1  0.5949450000000  0.4297330000000  0.5712010000000 1.0
C      1  0.4947740000000  0.5055250000000  0.5916380000000 1.0
C      1  0.5057960000000  0.3964870000000  0.5483270000000 1.0
C      1  0.5190280000000  0.4021320000000  0.4967200000000 1.0
C      1  0.3947380000000  0.5594570000000  0.4908040000000 1.0
C      1  0.5880300000000  0.4427560000000  0.4691220000000 1.0
C      1  0.5884740000000  0.5723890000000  0.5105170000000 1.0
C      1  0.3900900000000  0.4653850000000  0.5269850000000 1.0
C      1  0.4355070000000  0.5420180000000  0.5591850000000 1.0
C      1  0.4388340000000  0.4291780000000  0.5700470000000 1.0
C      1  0.4077470000000  0.5054720000000  0.5056600000000 1.0
C      1  0.4792190000000  0.5124130000000  0.4556400000000 1.0
C      1  0.5357130000000  0.4881850000000  0.5871880000000 1.0
C      1  0.5741970000000  0.4591050000000  0.4090220000000 1.0
C      1  0.6180770000000  0.4719810000000  0.4911970000000 1.0
C      1  0.4508120000000  0.6060000000000  0.5134970000000 1.0
C      1  0.5650120000000  0.4620120000000  0.5463790000000 1.0
C      1  0.4974790000000  0.5406790000000  0.4507700000000 1.0
C      1  0.5410660000000  0.5001710000000  0.5325280000000 1.0
C      1  0.5549690000000  0.5389850000000  0.5708000000000 1.0
C      1  0.4320680000000  0.4363330000000  0.5165630000000 1.0
C      1  0.5909080000000  0.4890840000000  0.5830080000000 1.0
C      1  0.4151980000000  0.5535860000000  0.5269200000000 1.0
C      1  0.4788000000000  0.4614750000000  0.4473210000000 1.0
C      1  0.4781040000000  0.4745660000000  0.4787230000000 1.0
C      1  0.4354340000000  0.4280240000000  0.4634440000000 1.0
C      1  0.5445110000000  0.5602060000000  0.4562060000000 1.0
C      1  0.5713100000000  0.5770790000000  0.4686550000000 1.0
C      1  0.5003170000000  0.4887790000000  0.4275620000000 1.0
C      1  0.4685770000000  0.4438610000000  0.5686240000000 1.0
C      1  0.4844130000000  0.4133450000000  0.5661190000000 1.0
C      1  0.5271850000000  0.4268480000000  0.4748210000000 1.0
C      1  0.5581720000000  0.5748120000000  0.4105090000000 1.0
C      1  0.4926790000000  0.3990380000000  0.4754380000000 1.0
C      1  0.4603440000000  0.5795080000000  0.4446600000000 1.0
C      1  0.4824280000000  0.4902500000000  0.5310140000000 1.0
C      1  0.5034430000000  0.4892470000000  0.4614310000000 1.0
C      1  0.4946880000000  0.5368870000000  0.6014380000000 1.0
C      1  0.4558910000000  0.6134310000000  0.4843050000000 1.0
END
