TITL C-2847954-6904-377 0.00180793382845879 125000 -1091.94374869452 0 0 200 (C1) n - 1
REM
REM in /home/bkarasulu/work/CARBON/AIRSS/Generating-Clusters/AIREBO/with-SteepDescent/Only-C1/SD-CG-opt/Try1-1.4A-POS3A/HFTN-CG
REM
REM
REM
REM
REM
REM ./C.cell (11c1c37f851c82e70ff6c80c92926a4b)
REM
REM compiler GCC version 9.2.1 20190827 (Red Hat 9.2.1-1)
REM options -cpp -mtune=generic -march=x86-64 -g -O0 -fpre-include=/usr/include/finclude/math-vector-fortran.h
REM seed -2110271850 -1732731201 868263784 -2085261519 176292701 1543974095 -484564306 1068515477 605067151 -1455411654 545569633 2135301864 404259438 1290242358 421924441 677755992 127910399 -939837057 1528924964 291662671 1705567211 -1456017712 806072910 1976662555 -1949715024 -280369623 282161752 278578741 -295630615 1578342411 633557662 866462992 947613280
REM
CELL 1.54180   50.00000   50.00000   50.00000   90.00000   90.00000   90.00000
LATT -1
SFAC C  
C      1  0.4416070000000  0.4146220000000  0.4496200000000 1.0
C      1  0.4407670000000  0.3823120000000  0.4612700000000 1.0
C      1  0.5124270000000  0.4373450000000  0.4490520000000 1.0
C      1  0.6045480000000  0.4510940000000  0.4896830000000 1.0
C      1  0.5250240000000  0.6029470000000  0.4709720000000 1.0
C      1  0.5995990000000  0.5252270000000  0.5689030000000 1.0
C      1  0.5394970000000  0.5816950000000  0.5759280000000 1.0
C      1  0.4760520000000  0.4306760000000  0.5798880000000 1.0
C      1  0.4459440000000  0.4688600000000  0.5432700000000 1.0
C      1  0.5672010000000  0.4530770000000  0.4373920000000 1.0
C      1  0.4216940000000  0.5694820000000  0.4640910000000 1.0
C      1  0.5817560000000  0.5597820000000  0.4386330000000 1.0
C      1  0.4612170000000  0.4492430000000  0.5966560000000 1.0
C      1  0.5572260000000  0.5048170000000  0.6035750000000 1.0
C      1  0.4140450000000  0.6016210000000  0.4655510000000 1.0
C      1  0.5856850000000  0.4985470000000  0.4379250000000 1.0
C      1  0.4405150000000  0.5630280000000  0.5624610000000 1.0
C      1  0.4844050000000  0.4613100000000  0.5347170000000 1.0
C      1  0.5829230000000  0.4463450000000  0.5483660000000 1.0
C      1  0.4079620000000  0.4863500000000  0.5243220000000 1.0
C      1  0.5854220000000  0.5207710000000  0.5985720000000 1.0
C      1  0.5510460000000  0.4921440000000  0.4635370000000 1.0
C      1  0.5359360000000  0.4366490000000  0.4996580000000 1.0
C      1  0.4882470000000  0.5820300000000  0.5749580000000 1.0
C      1  0.5395800000000  0.5179190000000  0.3758010000000 1.0
C      1  0.5179070000000  0.4421860000000  0.5446270000000 1.0
C      1  0.4280460000000  0.5095520000000  0.4749540000000 1.0
C      1  0.4949080000000  0.5978680000000  0.4326290000000 1.0
C      1  0.5433350000000  0.5349340000000  0.5517650000000 1.0
C      1  0.4820380000000  0.4898030000000  0.5878860000000 1.0
C      1  0.4847700000000  0.5025000000000  0.3873940000000 1.0
C      1  0.5582240000000  0.6028870000000  0.4748800000000 1.0
C      1  0.4838830000000  0.4013150000000  0.5164890000000 1.0
C      1  0.5267140000000  0.5416310000000  0.4520740000000 1.0
C      1  0.4784690000000  0.4331040000000  0.5400990000000 1.0
C      1  0.5644080000000  0.5131730000000  0.5370480000000 1.0
C      1  0.5409200000000  0.3880720000000  0.5433700000000 1.0
C      1  0.4373250000000  0.5287140000000  0.5817820000000 1.0
C      1  0.5279240000000  0.5509180000000  0.5968650000000 1.0
C      1  0.5198750000000  0.4705690000000  0.4511540000000 1.0
C      1  0.5643610000000  0.4675840000000  0.5665210000000 1.0
C      1  0.4487510000000  0.4616910000000  0.4083050000000 1.0
C      1  0.4184570000000  0.5501740000000  0.4900360000000 1.0
C      1  0.5316660000000  0.4959490000000  0.5839620000000 1.0
C      1  0.4958480000000  0.5039210000000  0.6099350000000 1.0
C      1  0.5151120000000  0.6077900000000  0.5262110000000 1.0
C      1  0.5155170000000  0.5748870000000  0.4183700000000 1.0
C      1  0.5440450000000  0.4654210000000  0.4833910000000 1.0
C      1  0.5244070000000  0.5594600000000  0.5198970000000 1.0
C      1  0.4873890000000  0.5818160000000  0.4603090000000 1.0
C      1  0.5697090000000  0.4679520000000  0.5175470000000 1.0
C      1  0.3951480000000  0.5896860000000  0.5354900000000 1.0
C      1  0.4723390000000  0.5785600000000  0.4972230000000 1.0
C      1  0.5792200000000  0.4276460000000  0.5216060000000 1.0
C      1  0.4376610000000  0.4393530000000  0.5374170000000 1.0
C      1  0.4562100000000  0.5008600000000  0.5486430000000 1.0
C      1  0.5101160000000  0.4672260000000  0.4815740000000 1.0
C      1  0.5087080000000  0.4273680000000  0.4815110000000 1.0
C      1  0.4833380000000  0.4902570000000  0.4235270000000 1.0
C      1  0.4288990000000  0.5160220000000  0.5076720000000 1.0
C      1  0.5521400000000  0.5636820000000  0.4734510000000 1.0
C      1  0.4250790000000  0.5860490000000  0.5263630000000 1.0
C      1  0.5268320000000  0.5255450000000  0.5750880000000 1.0
C      1  0.4062410000000  0.4387230000000  0.5371160000000 1.0
C      1  0.5787060000000  0.5494020000000  0.5805440000000 1.0
C      1  0.6264500000000  0.4879790000000  0.5126340000000 1.0
C      1  0.4040480000000  0.5094910000000  0.5381740000000 1.0
C      1  0.4543630000000  0.4208120000000  0.5575850000000 1.0
C      1  0.5370040000000  0.4599720000000  0.5227960000000 1.0
C      1  0.4772920000000  0.4264910000000  0.4945860000000 1.0
C      1  0.5839420000000  0.4737790000000  0.4512480000000 1.0
C      1  0.4248360000000  0.5564410000000  0.4330570000000 1.0
C      1  0.6086310000000  0.5198440000000  0.4728050000000 1.0
C      1  0.4526520000000  0.5522000000000  0.4459650000000 1.0
C      1  0.5234290000000  0.5019610000000  0.4535660000000 1.0
C      1  0.5081530000000  0.6110810000000  0.4993580000000 1.0
C      1  0.5266830000000  0.4004200000000  0.4536720000000 1.0
C      1  0.5653820000000  0.5387300000000  0.4865070000000 1.0
C      1  0.4722330000000  0.4599110000000  0.4907740000000 1.0
C      1  0.4086430000000  0.5072040000000  0.5648150000000 1.0
C      1  0.5353420000000  0.5208050000000  0.5210680000000 1.0
C      1  0.4243150000000  0.4301130000000  0.4896190000000 1.0
C      1  0.5060890000000  0.4103610000000  0.4353270000000 1.0
C      1  0.4969970000000  0.6039760000000  0.5501400000000 1.0
C      1  0.5594350000000  0.5615230000000  0.5598530000000 1.0
C      1  0.6133300000000  0.5329070000000  0.5000210000000 1.0
C      1  0.5297990000000  0.5182020000000  0.4276170000000 1.0
C      1  0.4658810000000  0.3799260000000  0.4778060000000 1.0
C      1  0.5573030000000  0.4240540000000  0.5482810000000 1.0
C      1  0.4554440000000  0.4088680000000  0.4190470000000 1.0
C      1  0.5318860000000  0.5783240000000  0.4926080000000 1.0
C      1  0.4849940000000  0.5006300000000  0.5132680000000 1.0
C      1  0.5855130000000  0.4799170000000  0.5435330000000 1.0
C      1  0.5775670000000  0.4711660000000  0.4846090000000 1.0
C      1  0.4946510000000  0.4611330000000  0.4324820000000 1.0
C      1  0.4558420000000  0.4619860000000  0.4416030000000 1.0
C      1  0.5686260000000  0.5085240000000  0.4954460000000 1.0
C      1  0.5388610000000  0.4313390000000  0.5760320000000 1.0
C      1  0.4943240000000  0.5314540000000  0.6056910000000 1.0
C      1  0.5599380000000  0.4396390000000  0.4678470000000 1.0
C      1  0.4603820000000  0.6229070000000  0.4805260000000 1.0
C      1  0.3949790000000  0.5273890000000  0.4805540000000 1.0
C      1  0.4929730000000  0.5508560000000  0.5296070000000 1.0
C      1  0.4901390000000  0.5350940000000  0.3897170000000 1.0
C      1  0.5442570000000  0.4105740000000  0.5198910000000 1.0
C      1  0.5064880000000  0.5630100000000  0.5554810000000 1.0
C      1  0.5049030000000  0.4314750000000  0.5741710000000 1.0
C      1  0.5959230000000  0.4986600000000  0.4892460000000 1.0
C      1  0.5197320000000  0.5749090000000  0.4523770000000 1.0
C      1  0.4562420000000  0.5795510000000  0.4606830000000 1.0
C      1  0.3920190000000  0.4696130000000  0.4920320000000 1.0
C      1  0.5144070000000  0.3938370000000  0.4829770000000 1.0
C      1  0.3941130000000  0.4596460000000  0.5224000000000 1.0
C      1  0.4689670000000  0.4095120000000  0.4673810000000 1.0
C      1  0.5245370000000  0.4694860000000  0.5638300000000 1.0
C      1  0.4556960000000  0.4757310000000  0.5924720000000 1.0
C      1  0.4052820000000  0.5362080000000  0.5181190000000 1.0
C      1  0.4231220000000  0.4997650000000  0.4426870000000 1.0
C      1  0.4427650000000  0.6063900000000  0.4661040000000 1.0
C      1  0.4612650000000  0.4769160000000  0.5152930000000 1.0
C      1  0.5437710000000  0.4936490000000  0.5023890000000 1.0
C      1  0.6160110000000  0.5129440000000  0.5207460000000 1.0
C      1  0.4346620000000  0.4442190000000  0.4537130000000 1.0
C      1  0.5310730000000  0.4741740000000  0.3967220000000 1.0
C      1  0.4897790000000  0.3787380000000  0.4938290000000 1.0
C      1  0.4948310000000  0.5526350000000  0.4102480000000 1.0
C      1  0.5306410000000  0.5835590000000  0.5430600000000 1.0
C      1  0.4507280000000  0.5218940000000  0.5276680000000 1.0
C      1  0.5084840000000  0.4760700000000  0.5143650000000 1.0
C      1  0.5522430000000  0.4576490000000  0.4120590000000 1.0
C      1  0.4577390000000  0.5056760000000  0.4073080000000 1.0
C      1  0.5647460000000  0.5576640000000  0.4146830000000 1.0
C      1  0.5730450000000  0.5013150000000  0.4110790000000 1.0
C      1  0.4786740000000  0.4066230000000  0.4369760000000 1.0
C      1  0.5135360000000  0.4885470000000  0.6240340000000 1.0
C      1  0.5623890000000  0.3903510000000  0.4787570000000 1.0
C      1  0.5557470000000  0.5475820000000  0.5162890000000 1.0
C      1  0.5409660000000  0.4770970000000  0.6108240000000 1.0
C      1  0.4087720000000  0.5586850000000  0.5385430000000 1.0
C      1  0.3895580000000  0.4789730000000  0.4369700000000 1.0
C      1  0.5466400000000  0.4896750000000  0.5477070000000 1.0
C      1  0.4203120000000  0.4605790000000  0.4799490000000 1.0
C      1  0.5813810000000  0.4325990000000  0.4935310000000 1.0
C      1  0.5640660000000  0.5843730000000  0.5368840000000 1.0
C      1  0.4459840000000  0.4287140000000  0.5077330000000 1.0
C      1  0.4519270000000  0.5244080000000  0.4610880000000 1.0
C      1  0.4598480000000  0.5543300000000  0.5364500000000 1.0
C      1  0.3930150000000  0.4176320000000  0.5484900000000 1.0
C      1  0.5562870000000  0.5384050000000  0.6036210000000 1.0
C      1  0.4837460000000  0.5030320000000  0.4510950000000 1.0
C      1  0.4028080000000  0.4493150000000  0.4448640000000 1.0
C      1  0.4700290000000  0.5852150000000  0.5464180000000 1.0
C      1  0.4631980000000  0.5446070000000  0.5750870000000 1.0
C      1  0.4697950000000  0.4720550000000  0.3897410000000 1.0
C      1  0.4709080000000  0.5386150000000  0.4836680000000 1.0
C      1  0.4491130000000  0.5548210000000  0.5041580000000 1.0
C      1  0.5706340000000  0.5795600000000  0.4564090000000 1.0
C      1  0.5012350000000  0.5645010000000  0.4861110000000 1.0
C      1  0.4612820000000  0.3832470000000  0.5300420000000 1.0
C      1  0.4330920000000  0.5144560000000  0.4155190000000 1.0
C      1  0.5866460000000  0.5756560000000  0.5141240000000 1.0
C      1  0.5598750000000  0.5928030000000  0.5054470000000 1.0
C      1  0.5537390000000  0.4093100000000  0.4587630000000 1.0
C      1  0.5417530000000  0.5028960000000  0.3995820000000 1.0
C      1  0.5158490000000  0.4990280000000  0.5383490000000 1.0
C      1  0.5023380000000  0.4124330000000  0.5391860000000 1.0
C      1  0.4202710000000  0.5394950000000  0.4129440000000 1.0
C      1  0.5562860000000  0.5251920000000  0.4566600000000 1.0
C      1  0.4311190000000  0.4829350000000  0.5021030000000 1.0
C      1  0.4792470000000  0.4924870000000  0.4831900000000 1.0
C      1  0.5951350000000  0.5104220000000  0.5434890000000 1.0
C      1  0.4384000000000  0.4970590000000  0.5760490000000 1.0
C      1  0.5003290000000  0.5635780000000  0.6000290000000 1.0
C      1  0.5439190000000  0.5722690000000  0.4059510000000 1.0
C      1  0.5077250000000  0.5109980000000  0.4813260000000 1.0
C      1  0.5037540000000  0.4743230000000  0.3858200000000 1.0
C      1  0.4803870000000  0.6089030000000  0.4945750000000 1.0
C      1  0.3841430000000  0.4954230000000  0.4847550000000 1.0
C      1  0.5607160000000  0.5287600000000  0.4231310000000 1.0
C      1  0.4942850000000  0.4739330000000  0.5605840000000 1.0
C      1  0.4027970000000  0.4262870000000  0.4694020000000 1.0
C      1  0.6263350000000  0.4620670000000  0.5037580000000 1.0
C      1  0.5930410000000  0.5527240000000  0.5004810000000 1.0
C      1  0.4945500000000  0.5357710000000  0.5719660000000 1.0
C      1  0.4782150000000  0.5287450000000  0.5122420000000 1.0
C      1  0.5418970000000  0.3894240000000  0.4973820000000 1.0
C      1  0.4945370000000  0.5336860000000  0.4596970000000 1.0
C      1  0.5895910000000  0.5289260000000  0.4507980000000 1.0
C      1  0.4499480000000  0.3914950000000  0.5510670000000 1.0
C      1  0.4802900000000  0.5475650000000  0.4340770000000 1.0
C      1  0.5171240000000  0.3892630000000  0.5524710000000 1.0
C      1  0.4545650000000  0.4919570000000  0.4512450000000 1.0
C      1  0.4205400000000  0.4706820000000  0.4252370000000 1.0
C      1  0.3917890000000  0.5057490000000  0.4544660000000 1.0
C      1  0.5149420000000  0.5355720000000  0.4976310000000 1.0
C      1  0.4519100000000  0.5905050000000  0.5216580000000 1.0
C      1  0.4829990000000  0.4600080000000  0.4619780000000 1.0
C      1  0.4883300000000  0.5067000000000  0.5568360000000 1.0
C      1  0.4144560000000  0.5471890000000  0.5681230000000 1.0
C      1  0.5504980000000  0.4547690000000  0.5900900000000 1.0
END
