TITL C-2847956-8218-320 0.127413092523193 125000 -801.145484475749 0 0 148 (C1) n - 1
REM
REM in /home/bkarasulu/work/CARBON/AIRSS/Generating-Clusters/AIREBO/with-SteepDescent/Only-C1/SD-CG-opt/Try1-1.4A-POS3A/HFTN-CG
REM
REM
REM
REM
REM
REM ./C.cell (11c1c37f851c82e70ff6c80c92926a4b)
REM
REM compiler GCC version 9.2.1 20190827 (Red Hat 9.2.1-1)
REM options -cpp -mtune=generic -march=x86-64 -g -O0 -fpre-include=/usr/include/finclude/math-vector-fortran.h
REM seed 1481847549 -1462665603 1987310301 -1475347174 1226712112 1052598443 -947109383 -267322858 -2028895981 655338734 -1946955365 -1896883320 -473610968 722587290 848421021 -1639912740 -787025744 -1144693964 1942659164 1016200721 1620629946 -1357064924 -299760225 -1508775827 1432599760 -1946782180 -1366399919 -258128145 -905620209 -317326767 1611637430 696834321 -1206238300
REM
CELL 1.54180   50.00000   50.00000   50.00000   90.00000   90.00000   90.00000
LATT -1
SFAC C  
C      1  0.5747350000000  0.4140670000000  0.4983610000000 1.0
C      1  0.5508670000000  0.5505580000000  0.5795410000000 1.0
C      1  0.4479880000000  0.5145770000000  0.4780970000000 1.0
C      1  0.4545110000000  0.4777540000000  0.4459250000000 1.0
C      1  0.5868500000000  0.4381010000000  0.5134500000000 1.0
C      1  0.5211240000000  0.4467280000000  0.4820090000000 1.0
C      1  0.4440250000000  0.5315500000000  0.4487010000000 1.0
C      1  0.4543160000000  0.5519890000000  0.5747350000000 1.0
C      1  0.4058680000000  0.5006300000000  0.5337090000000 1.0
C      1  0.5958510000000  0.5457240000000  0.5051420000000 1.0
C      1  0.4516220000000  0.5651780000000  0.4286300000000 1.0
C      1  0.4849090000000  0.4812370000000  0.5334040000000 1.0
C      1  0.4848360000000  0.4484990000000  0.5685520000000 1.0
C      1  0.5149790000000  0.5977490000000  0.5081700000000 1.0
C      1  0.5710940000000  0.4676560000000  0.5753760000000 1.0
C      1  0.5418240000000  0.4564680000000  0.4407890000000 1.0
C      1  0.4347620000000  0.4349920000000  0.5216770000000 1.0
C      1  0.4948850000000  0.4363030000000  0.5009740000000 1.0
C      1  0.4237040000000  0.4980020000000  0.5819460000000 1.0
C      1  0.5800740000000  0.4772120000000  0.5497930000000 1.0
C      1  0.4305060000000  0.5817500000000  0.4878910000000 1.0
C      1  0.4255750000000  0.5594020000000  0.4441450000000 1.0
C      1  0.4492400000000  0.4470670000000  0.5863170000000 1.0
C      1  0.4684830000000  0.4874560000000  0.4756080000000 1.0
C      1  0.5430000000000  0.4551410000000  0.5752410000000 1.0
C      1  0.5093500000000  0.5343660000000  0.4936320000000 1.0
C      1  0.5126100000000  0.4583630000000  0.4328900000000 1.0
C      1  0.5231220000000  0.4618460000000  0.5124400000000 1.0
C      1  0.4247230000000  0.4677930000000  0.4435140000000 1.0
C      1  0.5122400000000  0.4638600000000  0.4026740000000 1.0
C      1  0.5987230000000  0.4319380000000  0.5438740000000 1.0
C      1  0.5310500000000  0.5675380000000  0.5626210000000 1.0
C      1  0.4902170000000  0.5221250000000  0.4052060000000 1.0
C      1  0.4841680000000  0.4649970000000  0.3973210000000 1.0
C      1  0.5256270000000  0.5132260000000  0.5147360000000 1.0
C      1  0.4465910000000  0.4664860000000  0.5160510000000 1.0
C      1  0.5266190000000  0.4871600000000  0.3964730000000 1.0
C      1  0.4406800000000  0.4946480000000  0.5033710000000 1.0
C      1  0.6132040000000  0.4842220000000  0.5147390000000 1.0
C      1  0.5884760000000  0.5483770000000  0.4547260000000 1.0
C      1  0.4903670000000  0.3828890000000  0.4517450000000 1.0
C      1  0.4729820000000  0.4542080000000  0.4812790000000 1.0
C      1  0.5331960000000  0.4976720000000  0.6035830000000 1.0
C      1  0.5988180000000  0.4859450000000  0.4860200000000 1.0
C      1  0.5227580000000  0.4177710000000  0.4642210000000 1.0
C      1  0.4856520000000  0.4288650000000  0.4323800000000 1.0
C      1  0.4565060000000  0.4426280000000  0.5533980000000 1.0
C      1  0.4957280000000  0.5595190000000  0.4507240000000 1.0
C      1  0.5532300000000  0.5339540000000  0.5148690000000 1.0
C      1  0.5073810000000  0.5051860000000  0.5423140000000 1.0
C      1  0.4071700000000  0.5599520000000  0.4642180000000 1.0
C      1  0.4607440000000  0.5029240000000  0.4239300000000 1.0
C      1  0.5505780000000  0.4942590000000  0.5768960000000 1.0
C      1  0.4797200000000  0.4479030000000  0.5288960000000 1.0
C      1  0.4212210000000  0.5493270000000  0.4923040000000 1.0
C      1  0.5555260000000  0.5676510000000  0.4649590000000 1.0
C      1  0.5430820000000  0.4687080000000  0.4683960000000 1.0
C      1  0.3995080000000  0.4860080000000  0.4572410000000 1.0
C      1  0.5617440000000  0.5536980000000  0.4366020000000 1.0
C      1  0.4841030000000  0.3914790000000  0.5308060000000 1.0
C      1  0.4980250000000  0.5724510000000  0.5633190000000 1.0
C      1  0.4108450000000  0.4486880000000  0.4657280000000 1.0
C      1  0.4741660000000  0.5796780000000  0.5006130000000 1.0
C      1  0.5584050000000  0.5212780000000  0.5639780000000 1.0
C      1  0.5497480000000  0.4357890000000  0.5278410000000 1.0
C      1  0.5533100000000  0.4946190000000  0.5080600000000 1.0
C      1  0.5630460000000  0.4621080000000  0.5108650000000 1.0
C      1  0.5480720000000  0.4127970000000  0.4525600000000 1.0
C      1  0.5340390000000  0.5942720000000  0.4885200000000 1.0
C      1  0.4489910000000  0.4351740000000  0.6088190000000 1.0
C      1  0.5167450000000  0.5960990000000  0.5504520000000 1.0
C      1  0.4843750000000  0.4938210000000  0.5034030000000 1.0
C      1  0.4201980000000  0.5642310000000  0.5400940000000 1.0
C      1  0.5226930000000  0.5765860000000  0.4632320000000 1.0
C      1  0.4996590000000  0.4081130000000  0.4500530000000 1.0
C      1  0.4926190000000  0.5542710000000  0.5099590000000 1.0
C      1  0.5859370000000  0.5535910000000  0.5337600000000 1.0
C      1  0.5844950000000  0.5000140000000  0.4414850000000 1.0
C      1  0.5310960000000  0.4851720000000  0.5517230000000 1.0
C      1  0.5591550000000  0.5872930000000  0.4994280000000 1.0
C      1  0.5364650000000  0.5394520000000  0.4283350000000 1.0
C      1  0.4501530000000  0.5819750000000  0.4673440000000 1.0
C      1  0.5734830000000  0.5212060000000  0.4598120000000 1.0
C      1  0.4516680000000  0.5166030000000  0.5386590000000 1.0
C      1  0.5278410000000  0.4680190000000  0.5967040000000 1.0
C      1  0.5702780000000  0.4693650000000  0.4809250000000 1.0
C      1  0.5255240000000  0.5281300000000  0.5586200000000 1.0
C      1  0.4657290000000  0.5518210000000  0.4652640000000 1.0
C      1  0.5333620000000  0.5487110000000  0.5354170000000 1.0
C      1  0.5916920000000  0.4778990000000  0.4563320000000 1.0
C      1  0.4187030000000  0.4912310000000  0.4226470000000 1.0
C      1  0.3952560000000  0.5536920000000  0.5302340000000 1.0
C      1  0.4739950000000  0.4401160000000  0.4089960000000 1.0
C      1  0.4753100000000  0.4919570000000  0.3983150000000 1.0
C      1  0.4547470000000  0.5519440000000  0.4974100000000 1.0
C      1  0.4299720000000  0.5478780000000  0.5614220000000 1.0
C      1  0.4919650000000  0.4168390000000  0.5354020000000 1.0
C      1  0.5563830000000  0.4339040000000  0.4367800000000 1.0
C      1  0.4887630000000  0.4809000000000  0.4418280000000 1.0
C      1  0.4726670000000  0.5829030000000  0.4418790000000 1.0
C      1  0.3990270000000  0.5275600000000  0.5202200000000 1.0
C      1  0.5854850000000  0.5611430000000  0.4827740000000 1.0
C      1  0.4250050000000  0.4539530000000  0.5470930000000 1.0
C      1  0.4895230000000  0.4757920000000  0.5666520000000 1.0
C      1  0.5146510000000  0.5029570000000  0.4415350000000 1.0
C      1  0.5707930000000  0.4207240000000  0.5455700000000 1.0
C      1  0.5011870000000  0.5276500000000  0.4612860000000 1.0
C      1  0.4233000000000  0.5174020000000  0.5574020000000 1.0
C      1  0.4954080000000  0.4465230000000  0.4597490000000 1.0
C      1  0.5142000000000  0.4883640000000  0.4965270000000 1.0
C      1  0.5716700000000  0.5166630000000  0.4921220000000 1.0
C      1  0.5590290000000  0.4909340000000  0.5380560000000 1.0
C      1  0.4651970000000  0.5366040000000  0.4225400000000 1.0
C      1  0.5317780000000  0.5476520000000  0.4766430000000 1.0
C      1  0.4388040000000  0.4736630000000  0.5705640000000 1.0
C      1  0.4881730000000  0.6026950000000  0.5010520000000 1.0
C      1  0.3982640000000  0.4844030000000  0.4825650000000 1.0
C      1  0.3979440000000  0.4265320000000  0.4614970000000 1.0
C      1  0.4087540000000  0.4735030000000  0.5259450000000 1.0
C      1  0.5432770000000  0.5251370000000  0.4578110000000 1.0
C      1  0.4788920000000  0.5138070000000  0.5588710000000 1.0
C      1  0.4452290000000  0.4426100000000  0.4841270000000 1.0
C      1  0.5049940000000  0.4336070000000  0.5561210000000 1.0
C      1  0.5513830000000  0.4048170000000  0.5027410000000 1.0
C      1  0.6025240000000  0.5145060000000  0.5033310000000 1.0
C      1  0.4774950000000  0.5103260000000  0.4521160000000 1.0
C      1  0.4521810000000  0.4831570000000  0.5424220000000 1.0
C      1  0.5999530000000  0.4637290000000  0.5315570000000 1.0
C      1  0.4720780000000  0.5283220000000  0.5825600000000 1.0
C      1  0.4382970000000  0.5723690000000  0.5196290000000 1.0
C      1  0.4760910000000  0.5221640000000  0.6083770000000 1.0
C      1  0.5084280000000  0.5448900000000  0.4227750000000 1.0
C      1  0.5248080000000  0.4222320000000  0.5091100000000 1.0
C      1  0.4406240000000  0.4173480000000  0.4996690000000 1.0
C      1  0.5299590000000  0.4965580000000  0.4690870000000 1.0
C      1  0.4734580000000  0.5415760000000  0.5310250000000 1.0
C      1  0.4694230000000  0.5221500000000  0.5033890000000 1.0
C      1  0.5186500000000  0.5081650000000  0.4116420000000 1.0
C      1  0.4195710000000  0.4615530000000  0.4959850000000 1.0
C      1  0.5308590000000  0.5255340000000  0.5921300000000 1.0
C      1  0.5784030000000  0.5466450000000  0.5594110000000 1.0
C      1  0.5869770000000  0.5025770000000  0.4144480000000 1.0
C      1  0.5637530000000  0.5662650000000  0.5167910000000 1.0
C      1  0.5140440000000  0.5719090000000  0.5267060000000 1.0
C      1  0.5276880000000  0.4528430000000  0.5449460000000 1.0
C      1  0.4764140000000  0.5583850000000  0.5565450000000 1.0
C      1  0.4229900000000  0.5143190000000  0.4305990000000 1.0
C      1  0.4307500000000  0.5239130000000  0.5128370000000 1.0
END
