TITL C-2847945-6269-242 0.00154901480949679 125000 -871.043748125699 0 0 166 (C1) n - 1
REM
REM in /home/bkarasulu/work/CARBON/AIRSS/Generating-Clusters/AIREBO/with-SteepDescent/Only-C1/SD-CG-opt/Try1-1.4A-POS3A/HFTN-CG
REM
REM
REM
REM
REM
REM ./C.cell (11c1c37f851c82e70ff6c80c92926a4b)
REM
REM compiler GCC version 9.2.1 20190827 (Red Hat 9.2.1-1)
REM options -cpp -mtune=generic -march=x86-64 -g -O0 -fpre-include=/usr/include/finclude/math-vector-fortran.h
REM seed 1381510481 -1563970835 1986798763 -4318540 447187080 178773360 -777420756 -21264714 -2046297801 -1847175081 -1410846409 1108946780 198182809 -488655032 -308510233 -944772520 -573360295 -2130622822 -1044033656 309064281 1747790256 -1991342495 271426414 1890552372 935688298 1598562276 -1367314919 -48854361 1525246156 -134452253 -1880718512 503517581 2146595610
REM
CELL 1.54180   50.00000   50.00000   50.00000   90.00000   90.00000   90.00000
LATT -1
SFAC C  
C      1  0.5519180000000  0.5079620000000  0.5685530000000 1.0
C      1  0.5787360000000  0.5490150000000  0.4503840000000 1.0
C      1  0.4467990000000  0.5263550000000  0.4659190000000 1.0
C      1  0.5511270000000  0.4028450000000  0.4710320000000 1.0
C      1  0.4579120000000  0.5001890000000  0.5474630000000 1.0
C      1  0.5660330000000  0.4331250000000  0.4664030000000 1.0
C      1  0.5689270000000  0.5712140000000  0.5521010000000 1.0
C      1  0.5363670000000  0.4534410000000  0.4126780000000 1.0
C      1  0.5231850000000  0.4569820000000  0.5971760000000 1.0
C      1  0.4579560000000  0.4315690000000  0.5645690000000 1.0
C      1  0.4725440000000  0.5874340000000  0.5015440000000 1.0
C      1  0.5543490000000  0.5681470000000  0.5829120000000 1.0
C      1  0.5107050000000  0.5414230000000  0.5722910000000 1.0
C      1  0.4962560000000  0.5001670000000  0.4593920000000 1.0
C      1  0.5742960000000  0.5646450000000  0.5230810000000 1.0
C      1  0.5239410000000  0.4893120000000  0.5737350000000 1.0
C      1  0.5318160000000  0.5806840000000  0.4452930000000 1.0
C      1  0.5334020000000  0.3837660000000  0.4791410000000 1.0
C      1  0.4293800000000  0.5069100000000  0.4465620000000 1.0
C      1  0.4925190000000  0.4911890000000  0.5866120000000 1.0
C      1  0.5062990000000  0.4616180000000  0.4748160000000 1.0
C      1  0.5136660000000  0.4268960000000  0.5530660000000 1.0
C      1  0.4443380000000  0.4544220000000  0.4296310000000 1.0
C      1  0.5326950000000  0.5078410000000  0.4366350000000 1.0
C      1  0.5518530000000  0.5416850000000  0.4273860000000 1.0
C      1  0.5171940000000  0.5667550000000  0.4834950000000 1.0
C      1  0.4642550000000  0.4614010000000  0.5898890000000 1.0
C      1  0.4638060000000  0.5280020000000  0.5661400000000 1.0
C      1  0.3859490000000  0.4942580000000  0.4999290000000 1.0
C      1  0.4926600000000  0.5226670000000  0.5933080000000 1.0
C      1  0.5543810000000  0.5327530000000  0.5180610000000 1.0
C      1  0.4091190000000  0.4963660000000  0.4717590000000 1.0
C      1  0.5204920000000  0.4353910000000  0.4827610000000 1.0
C      1  0.5705330000000  0.4927900000000  0.4770000000000 1.0
C      1  0.5391770000000  0.5497840000000  0.4547970000000 1.0
C      1  0.4506080000000  0.5603500000000  0.5294470000000 1.0
C      1  0.5140370000000  0.5612070000000  0.4234100000000 1.0
C      1  0.4525510000000  0.4715250000000  0.4057350000000 1.0
C      1  0.5214550000000  0.5872540000000  0.5402260000000 1.0
C      1  0.4294460000000  0.5594390000000  0.4413950000000 1.0
C      1  0.5064630000000  0.5121270000000  0.5555650000000 1.0
C      1  0.4575010000000  0.5054820000000  0.4891390000000 1.0
C      1  0.4632570000000  0.4197500000000  0.4238680000000 1.0
C      1  0.5298730000000  0.5135140000000  0.5112850000000 1.0
C      1  0.4604890000000  0.4926890000000  0.5980940000000 1.0
C      1  0.5273240000000  0.5281910000000  0.4721540000000 1.0
C      1  0.5230420000000  0.5714360000000  0.5821160000000 1.0
C      1  0.5420350000000  0.3985650000000  0.5188570000000 1.0
C      1  0.5092050000000  0.5374560000000  0.4988060000000 1.0
C      1  0.4322970000000  0.4845270000000  0.5314910000000 1.0
C      1  0.4876330000000  0.5023940000000  0.5344240000000 1.0
C      1  0.5092520000000  0.5942610000000  0.5776880000000 1.0
C      1  0.4335750000000  0.5570050000000  0.4714380000000 1.0
C      1  0.5681090000000  0.4643610000000  0.4582930000000 1.0
C      1  0.5067800000000  0.5503070000000  0.5396980000000 1.0
C      1  0.5408800000000  0.5015020000000  0.5389310000000 1.0
C      1  0.4729330000000  0.3768640000000  0.5255500000000 1.0
C      1  0.5399390000000  0.5000460000000  0.4750570000000 1.0
C      1  0.5721010000000  0.4914650000000  0.4134100000000 1.0
C      1  0.5233780000000  0.4855270000000  0.3926460000000 1.0
C      1  0.4435320000000  0.5329660000000  0.4028970000000 1.0
C      1  0.5760280000000  0.5835690000000  0.4989670000000 1.0
C      1  0.5356180000000  0.5604490000000  0.5247910000000 1.0
C      1  0.4986190000000  0.4745690000000  0.5163070000000 1.0
C      1  0.4679380000000  0.5182130000000  0.4138150000000 1.0
C      1  0.4079830000000  0.5058670000000  0.5546170000000 1.0
C      1  0.6073930000000  0.4701960000000  0.4621290000000 1.0
C      1  0.5853100000000  0.5150160000000  0.5658550000000 1.0
C      1  0.5181750000000  0.4004260000000  0.5343990000000 1.0
C      1  0.4755180000000  0.5519890000000  0.5510300000000 1.0
C      1  0.4384480000000  0.4357820000000  0.5047980000000 1.0
C      1  0.5285860000000  0.4740770000000  0.5297510000000 1.0
C      1  0.5373530000000  0.4353710000000  0.5325870000000 1.0
C      1  0.5715090000000  0.5426480000000  0.5699520000000 1.0
C      1  0.5139630000000  0.4133490000000  0.4606780000000 1.0
C      1  0.4774650000000  0.5950640000000  0.4426390000000 1.0
C      1  0.4677070000000  0.4319850000000  0.4878870000000 1.0
C      1  0.5473750000000  0.5934310000000  0.5528690000000 1.0
C      1  0.5657570000000  0.4635840000000  0.5598440000000 1.0
C      1  0.5724190000000  0.4479420000000  0.4963400000000 1.0
C      1  0.4533810000000  0.4177800000000  0.5369900000000 1.0
C      1  0.4352390000000  0.5026180000000  0.5904520000000 1.0
C      1  0.6058800000000  0.4872700000000  0.5119520000000 1.0
C      1  0.5647740000000  0.4397120000000  0.5452380000000 1.0
C      1  0.5176270000000  0.6005590000000  0.4610890000000 1.0
C      1  0.4694160000000  0.4764520000000  0.5022450000000 1.0
C      1  0.4317120000000  0.4436270000000  0.5376440000000 1.0
C      1  0.4582300000000  0.5554670000000  0.4237370000000 1.0
C      1  0.5600170000000  0.5730380000000  0.4642510000000 1.0
C      1  0.4298310000000  0.5302990000000  0.5455520000000 1.0
C      1  0.4736480000000  0.4454780000000  0.4418180000000 1.0
C      1  0.4519750000000  0.3874570000000  0.5353100000000 1.0
C      1  0.4065680000000  0.5390920000000  0.5081570000000 1.0
C      1  0.4314610000000  0.4672270000000  0.4504980000000 1.0
C      1  0.5069320000000  0.5284070000000  0.4449490000000 1.0
C      1  0.6039030000000  0.5337100000000  0.4947460000000 1.0
C      1  0.5595480000000  0.4628400000000  0.4250670000000 1.0
C      1  0.5678590000000  0.5017040000000  0.5097150000000 1.0
C      1  0.5103260000000  0.4929900000000  0.4902160000000 1.0
C      1  0.5480170000000  0.5669350000000  0.4954790000000 1.0
C      1  0.4904520000000  0.5945220000000  0.5525200000000 1.0
C      1  0.4509340000000  0.4157940000000  0.4554400000000 1.0
C      1  0.4378980000000  0.5595110000000  0.5609730000000 1.0
C      1  0.5967560000000  0.5096220000000  0.5359260000000 1.0
C      1  0.5187810000000  0.4603180000000  0.5567320000000 1.0
C      1  0.4095600000000  0.5073650000000  0.5205950000000 1.0
C      1  0.4684400000000  0.5383190000000  0.4483490000000 1.0
C      1  0.5486200000000  0.4674980000000  0.5821940000000 1.0
C      1  0.4594360000000  0.5421650000000  0.5058200000000 1.0
C      1  0.5718700000000  0.4876820000000  0.5404480000000 1.0
C      1  0.4222160000000  0.5614900000000  0.4998560000000 1.0
C      1  0.4866300000000  0.5130960000000  0.5040120000000 1.0
C      1  0.4827140000000  0.5743890000000  0.4251420000000 1.0
C      1  0.4768130000000  0.4474400000000  0.4080210000000 1.0
C      1  0.4872350000000  0.5587970000000  0.5135720000000 1.0
C      1  0.6024480000000  0.5039610000000  0.4829630000000 1.0
C      1  0.5413800000000  0.5046270000000  0.4051750000000 1.0
C      1  0.5415220000000  0.5351620000000  0.5824630000000 1.0
C      1  0.4887760000000  0.4814210000000  0.4341160000000 1.0
C      1  0.4132640000000  0.4689540000000  0.4914710000000 1.0
C      1  0.5455300000000  0.4278820000000  0.5018790000000 1.0
C      1  0.4387560000000  0.4589480000000  0.5673870000000 1.0
C      1  0.4310760000000  0.4261420000000  0.4731450000000 1.0
C      1  0.4170090000000  0.4507440000000  0.4675000000000 1.0
C      1  0.4664030000000  0.5332780000000  0.5996350000000 1.0
C      1  0.4407950000000  0.5196660000000  0.5151650000000 1.0
C      1  0.5831010000000  0.5193850000000  0.4599280000000 1.0
C      1  0.4406100000000  0.5867630000000  0.5132720000000 1.0
C      1  0.5068730000000  0.5457250000000  0.3873640000000 1.0
C      1  0.5308260000000  0.5372050000000  0.4061080000000 1.0
C      1  0.4802150000000  0.4281340000000  0.5188350000000 1.0
C      1  0.4424130000000  0.4675480000000  0.5075730000000 1.0
C      1  0.4188670000000  0.4846080000000  0.5736370000000 1.0
C      1  0.4739880000000  0.4769440000000  0.5619160000000 1.0
C      1  0.4651910000000  0.5618760000000  0.4803450000000 1.0
C      1  0.5996680000000  0.4648830000000  0.4895050000000 1.0
C      1  0.4927920000000  0.5516590000000  0.4653390000000 1.0
C      1  0.4967310000000  0.4522180000000  0.5941890000000 1.0
C      1  0.4566370000000  0.4923810000000  0.4322890000000 1.0
C      1  0.5230560000000  0.4806280000000  0.4546240000000 1.0
C      1  0.5839420000000  0.4355800000000  0.5257100000000 1.0
C      1  0.5904300000000  0.4813430000000  0.4402290000000 1.0
C      1  0.4681030000000  0.5933840000000  0.4678730000000 1.0
C      1  0.3943110000000  0.5220710000000  0.4867760000000 1.0
C      1  0.4770370000000  0.4035050000000  0.4717530000000 1.0
C      1  0.5053340000000  0.5958490000000  0.4881600000000 1.0
C      1  0.4874570000000  0.4079400000000  0.4414550000000 1.0
C      1  0.4880840000000  0.4377100000000  0.5683410000000 1.0
C      1  0.4830150000000  0.4558460000000  0.5400300000000 1.0
C      1  0.5103210000000  0.4428080000000  0.5129420000000 1.0
C      1  0.5658290000000  0.5144150000000  0.4350840000000 1.0
C      1  0.5880050000000  0.5350690000000  0.5190080000000 1.0
C      1  0.4402110000000  0.5958530000000  0.5444390000000 1.0
C      1  0.4572970000000  0.4818860000000  0.4646430000000 1.0
C      1  0.4943710000000  0.3973030000000  0.5164130000000 1.0
C      1  0.5048570000000  0.4655770000000  0.4110010000000 1.0
C      1  0.4326830000000  0.5313710000000  0.5794180000000 1.0
C      1  0.5528430000000  0.4727530000000  0.5088820000000 1.0
C      1  0.5424640000000  0.4203360000000  0.4456060000000 1.0
C      1  0.5031290000000  0.3946130000000  0.4874850000000 1.0
C      1  0.4070170000000  0.4628470000000  0.5243350000000 1.0
C      1  0.4253210000000  0.5330440000000  0.4272350000000 1.0
C      1  0.4973470000000  0.6009030000000  0.5205260000000 1.0
C      1  0.4772550000000  0.4554640000000  0.4693270000000 1.0
C      1  0.4923710000000  0.5358150000000  0.4164780000000 1.0
C      1  0.4628940000000  0.5825640000000  0.5599290000000 1.0
END
