TITL C-2848507-1641-590 -0.00012114589983937 125000 -345.099059593341 0 0 61 (C1) n - 1
REM
REM in /home/bkarasulu/work/CARBON/AIRSS/Generating-Clusters/AIREBO/with-SteepDescent/Only-C1/SD-CG-opt/Try1-1.4A-POS3A/HFTN-CG
REM
REM
REM
REM
REM
REM ./C.cell (11c1c37f851c82e70ff6c80c92926a4b)
REM
REM compiler GCC version 9.2.1 20190827 (Red Hat 9.2.1-1)
REM options -cpp -mtune=generic -march=x86-64 -g -O0 -fpre-include=/usr/include/finclude/math-vector-fortran.h
REM seed 1341033253 -1923450892 -1694994757 1287971962 -1206696663 -461521627 737761842 1491829307 1147825297 936662073 1891687604 681610610 -1579342728 714383437 589741242 -1549314192 -1477542364 809829380 378468669 1067243659 3757998 1355996396 -754266258 -1742521952 -1849566132 1630883454 470135091 2081531813 -1469746900 1478972370 1518455645 35832172 1547239262
REM
CELL 1.54180   50.00000   50.00000   50.00000   90.00000   90.00000   90.00000
LATT -1
SFAC C  
C      1  0.4948470000000  0.5388210000000  0.5151330000000 1.0
C      1  0.5080160000000  0.5399530000000  0.5662730000000 1.0
C      1  0.5475790000000  0.5037440000000  0.5589410000000 1.0
C      1  0.5265870000000  0.4230600000000  0.5054770000000 1.0
C      1  0.5704880000000  0.4726010000000  0.4678480000000 1.0
C      1  0.4912680000000  0.4531260000000  0.4279750000000 1.0
C      1  0.4545780000000  0.5286710000000  0.4917600000000 1.0
C      1  0.4625160000000  0.5415620000000  0.4419730000000 1.0
C      1  0.4497740000000  0.4489610000000  0.5324210000000 1.0
C      1  0.5301780000000  0.4434150000000  0.6021870000000 1.0
C      1  0.4782730000000  0.4695680000000  0.4727450000000 1.0
C      1  0.4679070000000  0.5234680000000  0.5199710000000 1.0
C      1  0.5480370000000  0.5317610000000  0.5413860000000 1.0
C      1  0.5207340000000  0.5232280000000  0.5245270000000 1.0
C      1  0.5269020000000  0.4412490000000  0.5758430000000 1.0
C      1  0.5340670000000  0.4479820000000  0.6277030000000 1.0
C      1  0.4339680000000  0.4820810000000  0.4642870000000 1.0
C      1  0.4253270000000  0.5065730000000  0.4555070000000 1.0
C      1  0.5210760000000  0.4380540000000  0.5493840000000 1.0
C      1  0.4671290000000  0.4686860000000  0.5001000000000 1.0
C      1  0.4972550000000  0.4889550000000  0.5442350000000 1.0
C      1  0.5227610000000  0.5523010000000  0.4521960000000 1.0
C      1  0.5219260000000  0.4644570000000  0.4358230000000 1.0
C      1  0.4772490000000  0.4643110000000  0.5317880000000 1.0
C      1  0.5540270000000  0.4878900000000  0.4834730000000 1.0
C      1  0.4501410000000  0.4904310000000  0.5183620000000 1.0
C      1  0.4296120000000  0.4560300000000  0.5191030000000 1.0
C      1  0.4711610000000  0.4735390000000  0.4280050000000 1.0
C      1  0.4988270000000  0.5639810000000  0.5572540000000 1.0
C      1  0.4673490000000  0.5251250000000  0.4205090000000 1.0
C      1  0.4813510000000  0.5006940000000  0.4247020000000 1.0
C      1  0.5324760000000  0.5640730000000  0.4773870000000 1.0
C      1  0.4671930000000  0.5012650000000  0.5432090000000 1.0
C      1  0.4844360000000  0.5618210000000  0.4552850000000 1.0
C      1  0.4878630000000  0.5235630000000  0.4859230000000 1.0
C      1  0.5013820000000  0.5051660000000  0.4440200000000 1.0
C      1  0.5199300000000  0.4558760000000  0.5021880000000 1.0
C      1  0.5079290000000  0.4403000000000  0.4538030000000 1.0
C      1  0.5248610000000  0.4817600000000  0.4873370000000 1.0
C      1  0.4312110000000  0.5517430000000  0.4866990000000 1.0
C      1  0.4324300000000  0.4755230000000  0.4934600000000 1.0
C      1  0.5514370000000  0.5546160000000  0.4951750000000 1.0
C      1  0.5096040000000  0.4598490000000  0.5317310000000 1.0
C      1  0.5435750000000  0.4704750000000  0.4209910000000 1.0
C      1  0.5161230000000  0.4322940000000  0.4776350000000 1.0
C      1  0.4576920000000  0.4718770000000  0.4532420000000 1.0
C      1  0.5632120000000  0.4880300000000  0.5715100000000 1.0
C      1  0.5163540000000  0.5112160000000  0.5543940000000 1.0
C      1  0.5066060000000  0.4797380000000  0.4620590000000 1.0
C      1  0.5114420000000  0.5061290000000  0.4998990000000 1.0
C      1  0.4985140000000  0.5310490000000  0.4586590000000 1.0
C      1  0.4981460000000  0.5804570000000  0.5348500000000 1.0
C      1  0.5272310000000  0.4159190000000  0.5324700000000 1.0
C      1  0.5528390000000  0.5545440000000  0.5565440000000 1.0
C      1  0.5572940000000  0.5326730000000  0.5113650000000 1.0
C      1  0.4423040000000  0.5317390000000  0.4614740000000 1.0
C      1  0.5090680000000  0.5716210000000  0.4332380000000 1.0
C      1  0.4545280000000  0.5051990000000  0.5675880000000 1.0
C      1  0.4963370000000  0.5679280000000  0.5094790000000 1.0
C      1  0.5635530000000  0.5085570000000  0.4992870000000 1.0
C      1  0.5035190000000  0.5707230000000  0.4822090000000 1.0
END
