TITL C-2848504-8560-131 -312.725595601531 125000 -197.18860339266 0 0 39 (C1) n - 1
REM
REM in /home/bkarasulu/work/CARBON/AIRSS/Generating-Clusters/AIREBO/with-SteepDescent/Only-C1/SD-CG-opt/Try1-1.4A-POS3A/HFTN-CG
REM
REM
REM
REM
REM
REM ./C.cell (11c1c37f851c82e70ff6c80c92926a4b)
REM
REM compiler GCC version 9.2.1 20190827 (Red Hat 9.2.1-1)
REM options -cpp -mtune=generic -march=x86-64 -g -O0 -fpre-include=/usr/include/finclude/math-vector-fortran.h
REM seed 39602191 -1577563428 -989760365 217770624 -940089578 -29356717 -1317827978 400326672 -1789147714 -384268092 1675076133 -1008473270 1999986360 -1787212238 -1558146556 824652063 308319742 638780655 1170425822 -1197672283 -2118130991 -1022803389 1867386108 137493669 723899241 -587537097 -914098416 863286837 752470655 1615672539 -31243882 598073548 1441049864
REM
CELL 1.54180   50.00000   50.00000   50.00000   90.00000   90.00000   90.00000
LATT -1
SFAC C  
C      1  0.5064940000000  0.5679740000000  0.4717670000000 1.0
C      1  0.5423190000000  0.5119990000000  0.4643510000000 1.0
C      1  0.5135140000000  0.4415480000000  0.4882490000000 1.0
C      1  0.4618840000000  0.5480920000000  0.5701400000000 1.0
C      1  0.4689500000000  0.5032660000000  0.4889880000000 1.0
C      1  0.4586470000000  0.4599200000000  0.4658030000000 1.0
C      1  0.4830440000000  0.5318380000000  0.4901740000000 1.0
C      1  0.4515700000000  0.5606510000000  0.5177150000000 1.0
C      1  0.5596480000000  0.5454170000000  0.5098360000000 1.0
C      1  0.5335530000000  0.4829980000000  0.4683260000000 1.0
C      1  0.4882900000000  0.5451470000000  0.4592650000000 1.0
C      1  0.5001330000000  0.5294440000000  0.4392230000000 1.0
C      1  0.5498540000000  0.4822680000000  0.5179810000000 1.0
C      1  0.4922850000000  0.4890960000000  0.5092910000000 1.0
C      1  0.5410350000000  0.5286150000000  0.4889680000000 1.0
C      1  0.4713230000000  0.5290030000000  0.5521490000000 1.0
C      1  0.5140250000000  0.4788150000000  0.4436180000000 1.0
C      1  0.4901830000000  0.5048340000000  0.5659560000000 1.0
C      1  0.5518970000000  0.5433340000000  0.5341020000000 1.0
C      1  0.4640240000000  0.4962020000000  0.5514430000000 1.0
C      1  0.5197720000000  0.5096550000000  0.4423410000000 1.0
C      1  0.5422290000000  0.4586610000000  0.5402240000000 1.0
C      1  0.5142590000000  0.4979600000000  0.5540240000000 1.0
C      1  0.5148760000000  0.5436560000000  0.4884340000000 1.0
C      1  0.4738320000000  0.5400330000000  0.5217590000000 1.0
C      1  0.4907620000000  0.4191190000000  0.4762770000000 1.0
C      1  0.5044550000000  0.4725640000000  0.4819010000000 1.0
C      1  0.4438490000000  0.5097460000000  0.4694070000000 1.0
C      1  0.5285760000000  0.5219590000000  0.5398040000000 1.0
C      1  0.4848620000000  0.4708280000000  0.4540940000000 1.0
C      1  0.5442730000000  0.5090190000000  0.5150340000000 1.0
C      1  0.4775800000000  0.4845230000000  0.4285410000000 1.0
C      1  0.4508450000000  0.4748190000000  0.4870790000000 1.0
C      1  0.4665590000000  0.4801480000000  0.5296530000000 1.0
C      1  0.5117760000000  0.4082860000000  0.4950860000000 1.0
C      1  0.4468830000000  0.4674590000000  0.5140590000000 1.0
C      1  0.4996420000000  0.5190620000000  0.5236360000000 1.0
C      1  0.5132070000000  0.4754350000000  0.5323690000000 1.0
C      1  0.5290890000000  0.4566060000000  0.5089330000000 1.0
END
