TITL C-2847954-6904-534 -0.000591175084480114 125000 -884.367929487019 0 0 164 (C1) n - 1
REM
REM in /home/bkarasulu/work/CARBON/AIRSS/Generating-Clusters/AIREBO/with-SteepDescent/Only-C1/SD-CG-opt/Try1-1.4A-POS3A/HFTN-CG
REM
REM
REM
REM
REM
REM ./C.cell (11c1c37f851c82e70ff6c80c92926a4b)
REM
REM compiler GCC version 9.2.1 20190827 (Red Hat 9.2.1-1)
REM options -cpp -mtune=generic -march=x86-64 -g -O0 -fpre-include=/usr/include/finclude/math-vector-fortran.h
REM seed -1465688327 1680878970 98428673 -876506407 1242498019 -581558152 -592362035 -1884794691 -2018819032 -1898027009 1398072208 1588068858 1200499053 -720532720 828608016 612844061 1139040099 1658816403 1317816396 48657418 -219269886 1820385273 830462688 2037486857 -154038103 652626865 28437761 163192708 448244391 1292122256 1490699407 1245085507 -1578887880
REM
CELL 1.54180   50.00000   50.00000   50.00000   90.00000   90.00000   90.00000
LATT -1
SFAC C  
C      1  0.4136620000000  0.5100270000000  0.4420600000000 1.0
C      1  0.4688710000000  0.4334450000000  0.4116480000000 1.0
C      1  0.3873300000000  0.4971240000000  0.4770810000000 1.0
C      1  0.5300070000000  0.4940050000000  0.4768740000000 1.0
C      1  0.4140000000000  0.5731010000000  0.4784630000000 1.0
C      1  0.4570120000000  0.5478060000000  0.4217720000000 1.0
C      1  0.4795630000000  0.5147110000000  0.4552300000000 1.0
C      1  0.4616950000000  0.5306330000000  0.5728910000000 1.0
C      1  0.5147610000000  0.4311760000000  0.5909910000000 1.0
C      1  0.4656740000000  0.4678850000000  0.5932670000000 1.0
C      1  0.5736590000000  0.5564210000000  0.5557560000000 1.0
C      1  0.4984090000000  0.5574940000000  0.5601350000000 1.0
C      1  0.5230680000000  0.5686300000000  0.5428630000000 1.0
C      1  0.5250380000000  0.4596180000000  0.4042220000000 1.0
C      1  0.4201740000000  0.5034940000000  0.5648130000000 1.0
C      1  0.5219890000000  0.4772390000000  0.4483800000000 1.0
C      1  0.5575580000000  0.5777730000000  0.5060360000000 1.0
C      1  0.5013750000000  0.4892450000000  0.5194570000000 1.0
C      1  0.5650360000000  0.4255610000000  0.4838540000000 1.0
C      1  0.4844560000000  0.4136470000000  0.4338170000000 1.0
C      1  0.5031450000000  0.5788840000000  0.4272380000000 1.0
C      1  0.4657370000000  0.5189160000000  0.5412460000000 1.0
C      1  0.5267180000000  0.4187590000000  0.5105510000000 1.0
C      1  0.6079770000000  0.5256160000000  0.4864600000000 1.0
C      1  0.5225880000000  0.5427690000000  0.3896300000000 1.0
C      1  0.4913500000000  0.4572940000000  0.4082080000000 1.0
C      1  0.5798930000000  0.5247710000000  0.4674040000000 1.0
C      1  0.5175780000000  0.4850550000000  0.5482320000000 1.0
C      1  0.4810430000000  0.4973460000000  0.5589070000000 1.0
C      1  0.5445520000000  0.4615770000000  0.5260530000000 1.0
C      1  0.5397210000000  0.4416270000000  0.5944040000000 1.0
C      1  0.4381020000000  0.4807180000000  0.4304920000000 1.0
C      1  0.5107940000000  0.4325310000000  0.4210560000000 1.0
C      1  0.6135710000000  0.5081350000000  0.4382650000000 1.0
C      1  0.4895050000000  0.3970730000000  0.5256410000000 1.0
C      1  0.4929760000000  0.4663140000000  0.4409560000000 1.0
C      1  0.5620840000000  0.4412260000000  0.4326240000000 1.0
C      1  0.4906080000000  0.4487220000000  0.5824830000000 1.0
C      1  0.4498930000000  0.4518540000000  0.4977120000000 1.0
C      1  0.5933040000000  0.4558600000000  0.5484400000000 1.0
C      1  0.3957160000000  0.5115430000000  0.4999170000000 1.0
C      1  0.4140420000000  0.4827280000000  0.4623580000000 1.0
C      1  0.4604860000000  0.5925820000000  0.4618190000000 1.0
C      1  0.5194750000000  0.4518650000000  0.5553980000000 1.0
C      1  0.6017840000000  0.4692800000000  0.4803670000000 1.0
C      1  0.4685490000000  0.6006720000000  0.5827150000000 1.0
C      1  0.4368210000000  0.5581570000000  0.5589490000000 1.0
C      1  0.4063710000000  0.5664740000000  0.5060670000000 1.0
C      1  0.5950230000000  0.4869980000000  0.4314630000000 1.0
C      1  0.5226890000000  0.3982460000000  0.4695140000000 1.0
C      1  0.4924370000000  0.5072420000000  0.4072560000000 1.0
C      1  0.5942370000000  0.4975990000000  0.4925320000000 1.0
C      1  0.4794340000000  0.4804730000000  0.3906430000000 1.0
C      1  0.4972350000000  0.5029050000000  0.4793780000000 1.0
C      1  0.4668050000000  0.5818870000000  0.4933230000000 1.0
C      1  0.4568450000000  0.5498130000000  0.5330200000000 1.0
C      1  0.4309080000000  0.4794160000000  0.4917070000000 1.0
C      1  0.4718180000000  0.5187790000000  0.6078010000000 1.0
C      1  0.5940150000000  0.5388760000000  0.5580050000000 1.0
C      1  0.4185460000000  0.5372460000000  0.4614040000000 1.0
C      1  0.5314850000000  0.5603640000000  0.5113510000000 1.0
C      1  0.4533090000000  0.4376660000000  0.4400230000000 1.0
C      1  0.4539110000000  0.4229070000000  0.5479700000000 1.0
C      1  0.4981540000000  0.5407970000000  0.4666320000000 1.0
C      1  0.5327560000000  0.4458480000000  0.4406950000000 1.0
C      1  0.5107660000000  0.5625400000000  0.5983160000000 1.0
C      1  0.4903250000000  0.4375310000000  0.4549460000000 1.0
C      1  0.4291510000000  0.5280970000000  0.5713440000000 1.0
C      1  0.4142220000000  0.4487590000000  0.4600450000000 1.0
C      1  0.4582350000000  0.5621780000000  0.5851020000000 1.0
C      1  0.5642160000000  0.5010450000000  0.5493510000000 1.0
C      1  0.5163040000000  0.5049300000000  0.4313770000000 1.0
C      1  0.5864390000000  0.4627730000000  0.5097000000000 1.0
C      1  0.5104610000000  0.4200110000000  0.5632040000000 1.0
C      1  0.5334870000000  0.5802100000000  0.4401990000000 1.0
C      1  0.5119600000000  0.5645050000000  0.4849140000000 1.0
C      1  0.5857960000000  0.4648550000000  0.4544730000000 1.0
C      1  0.4117630000000  0.4904260000000  0.5173540000000 1.0
C      1  0.5567710000000  0.5207710000000  0.4427430000000 1.0
C      1  0.5400460000000  0.5935650000000  0.4655450000000 1.0
C      1  0.5583880000000  0.4795990000000  0.4646940000000 1.0
C      1  0.4085380000000  0.5831500000000  0.5281950000000 1.0
C      1  0.6001510000000  0.4810970000000  0.5327390000000 1.0
C      1  0.5404190000000  0.4161040000000  0.5372650000000 1.0
C      1  0.4219020000000  0.4492780000000  0.5168620000000 1.0
C      1  0.4780850000000  0.4938000000000  0.4344960000000 1.0
C      1  0.3949580000000  0.4602870000000  0.5564520000000 1.0
C      1  0.4901590000000  0.5183200000000  0.5211800000000 1.0
C      1  0.4575500000000  0.5922200000000  0.5575220000000 1.0
C      1  0.3980810000000  0.4616240000000  0.5054830000000 1.0
C      1  0.4833230000000  0.5771250000000  0.5955480000000 1.0
C      1  0.4796490000000  0.5376470000000  0.4076130000000 1.0
C      1  0.4608360000000  0.4111970000000  0.4593440000000 1.0
C      1  0.5241010000000  0.5293360000000  0.4481760000000 1.0
C      1  0.5757000000000  0.4342930000000  0.5115140000000 1.0
C      1  0.5000880000000  0.4794860000000  0.5764750000000 1.0
C      1  0.5748250000000  0.5826650000000  0.5635220000000 1.0
C      1  0.5403760000000  0.4082180000000  0.4884290000000 1.0
C      1  0.4558020000000  0.4527480000000  0.5642290000000 1.0
C      1  0.4781500000000  0.4542360000000  0.5176200000000 1.0
C      1  0.5048020000000  0.4423670000000  0.5037420000000 1.0
C      1  0.5014180000000  0.5561900000000  0.4040470000000 1.0
C      1  0.4763280000000  0.4903570000000  0.6066870000000 1.0
C      1  0.4404970000000  0.4800500000000  0.5511060000000 1.0
C      1  0.4875170000000  0.4144500000000  0.4986010000000 1.0
C      1  0.4699480000000  0.4826620000000  0.4769080000000 1.0
C      1  0.4433240000000  0.5257010000000  0.5011500000000 1.0
C      1  0.4549170000000  0.4126720000000  0.4928280000000 1.0
C      1  0.5634770000000  0.4405970000000  0.5426280000000 1.0
C      1  0.5649200000000  0.4850420000000  0.4953370000000 1.0
C      1  0.5062720000000  0.4900310000000  0.6057540000000 1.0
C      1  0.4460500000000  0.4934230000000  0.4582110000000 1.0
C      1  0.4705270000000  0.5753720000000  0.4353520000000 1.0
C      1  0.4735180000000  0.5702350000000  0.5490310000000 1.0
C      1  0.4702890000000  0.4844600000000  0.5084190000000 1.0
C      1  0.4016620000000  0.4887880000000  0.5474220000000 1.0
C      1  0.5412720000000  0.4443250000000  0.4712420000000 1.0
C      1  0.5340100000000  0.4852730000000  0.5095030000000 1.0
C      1  0.6182300000000  0.5251040000000  0.4560010000000 1.0
C      1  0.4659760000000  0.4528010000000  0.4677580000000 1.0
C      1  0.4349860000000  0.5346360000000  0.4317520000000 1.0
C      1  0.4600310000000  0.4067310000000  0.5261920000000 1.0
C      1  0.5485410000000  0.5325930000000  0.5128710000000 1.0
C      1  0.5226570000000  0.4621120000000  0.4873490000000 1.0
C      1  0.5261750000000  0.5070160000000  0.6111500000000 1.0
C      1  0.5254900000000  0.5964900000000  0.5267780000000 1.0
C      1  0.4222210000000  0.4547450000000  0.5438930000000 1.0
C      1  0.4438940000000  0.4997490000000  0.5235840000000 1.0
C      1  0.5719110000000  0.4623690000000  0.4171950000000 1.0
C      1  0.5515100000000  0.5072740000000  0.5934830000000 1.0
C      1  0.5114910000000  0.4001270000000  0.5423220000000 1.0
C      1  0.5305870000000  0.5351110000000  0.5942560000000 1.0
C      1  0.5498200000000  0.5211500000000  0.4828580000000 1.0
C      1  0.4988080000000  0.4108580000000  0.4705970000000 1.0
C      1  0.5000040000000  0.5847000000000  0.4603090000000 1.0
C      1  0.4386710000000  0.5712050000000  0.4674640000000 1.0
C      1  0.4860220000000  0.4538690000000  0.5491760000000 1.0
C      1  0.4496500000000  0.5250310000000  0.4676850000000 1.0
C      1  0.5612470000000  0.4908330000000  0.4324440000000 1.0
C      1  0.4906780000000  0.5981100000000  0.4870040000000 1.0
C      1  0.5610790000000  0.5783410000000  0.4790800000000 1.0
C      1  0.5501690000000  0.4578400000000  0.5687580000000 1.0
C      1  0.5227300000000  0.5341250000000  0.5644500000000 1.0
C      1  0.4628040000000  0.5535360000000  0.5024730000000 1.0
C      1  0.6106590000000  0.5100800000000  0.5169720000000 1.0
C      1  0.5583590000000  0.4882380000000  0.5739550000000 1.0
C      1  0.4563250000000  0.4892900000000  0.4094180000000 1.0
C      1  0.5481310000000  0.5456830000000  0.5442960000000 1.0
C      1  0.5381220000000  0.5082590000000  0.5342180000000 1.0
C      1  0.5613260000000  0.5509880000000  0.4680390000000 1.0
C      1  0.4275120000000  0.5863910000000  0.5486140000000 1.0
C      1  0.5456980000000  0.5527740000000  0.4396710000000 1.0
C      1  0.5789880000000  0.4331480000000  0.4559870000000 1.0
C      1  0.5233960000000  0.5152290000000  0.3935260000000 1.0
C      1  0.5132020000000  0.5313760000000  0.5332810000000 1.0
C      1  0.4902600000000  0.5386980000000  0.5873030000000 1.0
C      1  0.4827230000000  0.5295220000000  0.4947760000000 1.0
C      1  0.4287690000000  0.4547580000000  0.4343980000000 1.0
C      1  0.5221710000000  0.5955810000000  0.4944270000000 1.0
C      1  0.4328120000000  0.4321670000000  0.4758520000000 1.0
C      1  0.5923330000000  0.5122240000000  0.5439640000000 1.0
C      1  0.5357160000000  0.4882200000000  0.4101200000000 1.0
C      1  0.4667960000000  0.5534060000000  0.4601340000000 1.0
C      1  0.4122290000000  0.5364470000000  0.4943060000000 1.0
END
