TITL C-2847955-7945-478 0.0033606949128111 125000 -320.370797416216 0 0 58 (C1) n - 1
REM
REM in /home/bkarasulu/work/CARBON/AIRSS/Generating-Clusters/AIREBO/with-SteepDescent/Only-C1/SD-CG-opt/Try1-1.4A-POS3A/HFTN-CG
REM
REM
REM
REM
REM
REM ./C.cell (11c1c37f851c82e70ff6c80c92926a4b)
REM
REM compiler GCC version 9.2.1 20190827 (Red Hat 9.2.1-1)
REM options -cpp -mtune=generic -march=x86-64 -g -O0 -fpre-include=/usr/include/finclude/math-vector-fortran.h
REM seed 1786052483 -1386632316 -1036254172 -178031935 1706930321 -1414481690 306871042 63824919 926518395 66834103 1254765035 -1025742921 908214209 1673385186 2098166339 1099979852 -65938295 -1571217872 1093880103 -1657279108 -1590367142 -986259593 732539160 -128426710 -1788482261 340138046 1081781462 1209145031 1925598917 -544198824 1017016133 1422793385 1539863043
REM
CELL 1.54180   50.00000   50.00000   50.00000   90.00000   90.00000   90.00000
LATT -1
SFAC C  
C      1  0.4745240000000  0.4320630000000  0.4723270000000 1.0
C      1  0.5880360000000  0.4794360000000  0.4929710000000 1.0
C      1  0.4419850000000  0.4661710000000  0.4854250000000 1.0
C      1  0.4986410000000  0.4190300000000  0.4750550000000 1.0
C      1  0.4485720000000  0.5670500000000  0.5110300000000 1.0
C      1  0.5541170000000  0.4869600000000  0.5758720000000 1.0
C      1  0.5096350000000  0.5085300000000  0.5694010000000 1.0
C      1  0.5566890000000  0.5220900000000  0.4491000000000 1.0
C      1  0.5084800000000  0.5228640000000  0.4886120000000 1.0
C      1  0.5762440000000  0.5029040000000  0.4481990000000 1.0
C      1  0.5140260000000  0.5784040000000  0.4124200000000 1.0
C      1  0.5234420000000  0.4249850000000  0.4840540000000 1.0
C      1  0.5534900000000  0.5392180000000  0.5206020000000 1.0
C      1  0.4296810000000  0.4980450000000  0.5560540000000 1.0
C      1  0.4473620000000  0.4455570000000  0.4610220000000 1.0
C      1  0.4659750000000  0.4925690000000  0.4286470000000 1.0
C      1  0.4279520000000  0.4845030000000  0.5263680000000 1.0
C      1  0.4511990000000  0.5144530000000  0.4941440000000 1.0
C      1  0.4957320000000  0.4854090000000  0.4889440000000 1.0
C      1  0.5125440000000  0.4982550000000  0.5124060000000 1.0
C      1  0.5147140000000  0.4589890000000  0.5648970000000 1.0
C      1  0.5896900000000  0.4926070000000  0.4694230000000 1.0
C      1  0.5644500000000  0.4807600000000  0.5174300000000 1.0
C      1  0.4359120000000  0.4887220000000  0.5006010000000 1.0
C      1  0.4553670000000  0.5574930000000  0.5407320000000 1.0
C      1  0.5302840000000  0.4862060000000  0.5604430000000 1.0
C      1  0.4715030000000  0.5162100000000  0.4468830000000 1.0
C      1  0.5407020000000  0.4362260000000  0.5008210000000 1.0
C      1  0.5606200000000  0.5132310000000  0.5269990000000 1.0
C      1  0.4808360000000  0.4604960000000  0.5169570000000 1.0
C      1  0.5900980000000  0.4531030000000  0.5048410000000 1.0
C      1  0.4860950000000  0.4886620000000  0.5285940000000 1.0
C      1  0.4893820000000  0.5716750000000  0.4869100000000 1.0
C      1  0.5325580000000  0.5521180000000  0.5353620000000 1.0
C      1  0.4888270000000  0.4517400000000  0.5687090000000 1.0
C      1  0.5622430000000  0.4468000000000  0.5198670000000 1.0
C      1  0.5561620000000  0.5510570000000  0.4626350000000 1.0
C      1  0.4343380000000  0.4645400000000  0.5520930000000 1.0
C      1  0.5359800000000  0.4924410000000  0.5305040000000 1.0
C      1  0.4639280000000  0.4600590000000  0.5604810000000 1.0
C      1  0.5547020000000  0.5450450000000  0.4937480000000 1.0
C      1  0.5336910000000  0.5273120000000  0.4735930000000 1.0
C      1  0.4624720000000  0.4924250000000  0.5528220000000 1.0
C      1  0.4817290000000  0.5387330000000  0.5399720000000 1.0
C      1  0.4637450000000  0.4715310000000  0.4128660000000 1.0
C      1  0.4873170000000  0.5125500000000  0.5521640000000 1.0
C      1  0.4247440000000  0.5374050000000  0.4556300000000 1.0
C      1  0.4797000000000  0.5088620000000  0.4770460000000 1.0
C      1  0.4669510000000  0.4507630000000  0.4951780000000 1.0
C      1  0.4460050000000  0.5253470000000  0.4643970000000 1.0
C      1  0.5022270000000  0.5503370000000  0.4994500000000 1.0
C      1  0.4597930000000  0.4497440000000  0.3988440000000 1.0
C      1  0.5055300000000  0.5506980000000  0.5272700000000 1.0
C      1  0.4639160000000  0.5808450000000  0.4924030000000 1.0
C      1  0.4859530000000  0.5394630000000  0.4337760000000 1.0
C      1  0.5006390000000  0.5581570000000  0.4223040000000 1.0
C      1  0.4547900000000  0.5343800000000  0.5157710000000 1.0
C      1  0.5640780000000  0.4347690000000  0.5449310000000 1.0
END
