TITL C-2848495-5024-363 -0.00309398063203642 125000 -326.831283459701 0 0 61 (C1) n - 1
REM
REM in /home/bkarasulu/work/CARBON/AIRSS/Generating-Clusters/AIREBO/with-SteepDescent/Only-C1/SD-CG-opt/Try1-1.4A-POS3A/HFTN-CG
REM
REM
REM
REM
REM
REM ./C.cell (11c1c37f851c82e70ff6c80c92926a4b)
REM
REM compiler GCC version 9.2.1 20190827 (Red Hat 9.2.1-1)
REM options -cpp -mtune=generic -march=x86-64 -g -O0 -fpre-include=/usr/include/finclude/math-vector-fortran.h
REM seed 1957167591 455818279 -225505344 1490595672 -415861616 -2068320355 1510751772 -1818007042 1444199467 1191640082 1767297597 -266592373 1813664820 127422134 694762255 -530428745 1082265278 -1143213762 -391414779 -1547256649 -1530752928 -466804020 313150044 -1017523312 492757615 1528085913 1341072069 1835166857 -947510692 -59101911 1255616847 885235203 -343605677
REM
CELL 1.54180   50.00000   50.00000   50.00000   90.00000   90.00000   90.00000
LATT -1
SFAC C  
C      1  0.5553410000000  0.5490820000000  0.5643160000000 1.0
C      1  0.5342980000000  0.4818150000000  0.5472770000000 1.0
C      1  0.4945500000000  0.5345150000000  0.5272210000000 1.0
C      1  0.5297160000000  0.5426960000000  0.4981440000000 1.0
C      1  0.4934620000000  0.5817620000000  0.4827990000000 1.0
C      1  0.4437540000000  0.5198870000000  0.4640930000000 1.0
C      1  0.4484230000000  0.4453280000000  0.4518900000000 1.0
C      1  0.5458380000000  0.4420670000000  0.4682610000000 1.0
C      1  0.4509350000000  0.4705390000000  0.5530300000000 1.0
C      1  0.5063660000000  0.4286470000000  0.5178160000000 1.0
C      1  0.4833170000000  0.4466540000000  0.5234470000000 1.0
C      1  0.4396710000000  0.5227060000000  0.5107890000000 1.0
C      1  0.4905440000000  0.5076260000000  0.5074830000000 1.0
C      1  0.5754560000000  0.4571410000000  0.5426650000000 1.0
C      1  0.5428170000000  0.5159820000000  0.4591270000000 1.0
C      1  0.5435770000000  0.4681910000000  0.4603520000000 1.0
C      1  0.4470510000000  0.4728430000000  0.4552650000000 1.0
C      1  0.4780150000000  0.4613300000000  0.5531290000000 1.0
C      1  0.5209910000000  0.4358990000000  0.4879830000000 1.0
C      1  0.5071290000000  0.4763630000000  0.5491300000000 1.0
C      1  0.5052370000000  0.4003460000000  0.5279390000000 1.0
C      1  0.5128090000000  0.5251600000000  0.4722330000000 1.0
C      1  0.4832980000000  0.5660750000000  0.4581380000000 1.0
C      1  0.5756070000000  0.4880530000000  0.4891350000000 1.0
C      1  0.5361190000000  0.4451080000000  0.5180740000000 1.0
C      1  0.4589010000000  0.4360590000000  0.5140280000000 1.0
C      1  0.4735560000000  0.5600310000000  0.5638370000000 1.0
C      1  0.5177680000000  0.5441920000000  0.4452320000000 1.0
C      1  0.5062360000000  0.4629400000000  0.4735670000000 1.0
C      1  0.4278490000000  0.5346750000000  0.4835650000000 1.0
C      1  0.5193870000000  0.5049720000000  0.4383620000000 1.0
C      1  0.5494810000000  0.4605590000000  0.5364320000000 1.0
C      1  0.4795100000000  0.5048160000000  0.4397530000000 1.0
C      1  0.4459770000000  0.4919250000000  0.5040380000000 1.0
C      1  0.4822760000000  0.5567460000000  0.4325990000000 1.0
C      1  0.5748280000000  0.5420500000000  0.5181640000000 1.0
C      1  0.5135530000000  0.4894580000000  0.4902000000000 1.0
C      1  0.5651250000000  0.5363670000000  0.4679360000000 1.0
C      1  0.5405750000000  0.5098080000000  0.5382050000000 1.0
C      1  0.4615490000000  0.4858640000000  0.4797750000000 1.0
C      1  0.5027440000000  0.5582110000000  0.5057060000000 1.0
C      1  0.4514660000000  0.5013820000000  0.4444830000000 1.0
C      1  0.4926150000000  0.4794100000000  0.5221520000000 1.0
C      1  0.4697150000000  0.5421100000000  0.5432250000000 1.0
C      1  0.5606980000000  0.5449200000000  0.4939480000000 1.0
C      1  0.4925910000000  0.4321650000000  0.4687640000000 1.0
C      1  0.5466010000000  0.4927310000000  0.4828770000000 1.0
C      1  0.5187490000000  0.4768970000000  0.4451580000000 1.0
C      1  0.4444230000000  0.5339260000000  0.5372490000000 1.0
C      1  0.4907970000000  0.4994770000000  0.4685480000000 1.0
C      1  0.5638730000000  0.5324890000000  0.5424480000000 1.0
C      1  0.4236860000000  0.5352180000000  0.5551520000000 1.0
C      1  0.4705900000000  0.4293970000000  0.4546110000000 1.0
C      1  0.4657170000000  0.5239110000000  0.4904590000000 1.0
C      1  0.4865930000000  0.5430220000000  0.4806930000000 1.0
C      1  0.4967030000000  0.5267910000000  0.4254060000000 1.0
C      1  0.5397090000000  0.5139260000000  0.5078890000000 1.0
C      1  0.5273530000000  0.5476240000000  0.5662240000000 1.0
C      1  0.5173560000000  0.5301710000000  0.5473550000000 1.0
C      1  0.4365760000000  0.4743170000000  0.5754720000000 1.0
C      1  0.4405540000000  0.4756280000000  0.5267570000000 1.0
END
