TITL C-2848506-1665-407 -0.000655113064155259 125000 -200.285976623822 0 0 36 (C1) n - 1
REM
REM in /home/bkarasulu/work/CARBON/AIRSS/Generating-Clusters/AIREBO/with-SteepDescent/Only-C1/SD-CG-opt/Try1-1.4A-POS3A/HFTN-CG
REM
REM
REM
REM
REM
REM ./C.cell (11c1c37f851c82e70ff6c80c92926a4b)
REM
REM compiler GCC version 9.2.1 20190827 (Red Hat 9.2.1-1)
REM options -cpp -mtune=generic -march=x86-64 -g -O0 -fpre-include=/usr/include/finclude/math-vector-fortran.h
REM seed -486369594 -1982915081 -473752745 590157856 -2106159204 1789806393 1733981094 -321036998 -414107163 172105840 170588986 1609207207 -296373628 276645355 -1066417119 -324476955 -1468147082 1925035846 -1000831029 -1960719434 365821945 -906249393 -1475863697 -907349713 -1346701675 1926942169 1588997378 1021404488 1931236170 175150217 -1955806991 581125015 -2011976295
REM
CELL 1.54180   50.00000   50.00000   50.00000   90.00000   90.00000   90.00000
LATT -1
SFAC C  
C      1  0.4980000000000  0.5439670000000  0.4694530000000 1.0
C      1  0.4886390000000  0.4505760000000  0.4897180000000 1.0
C      1  0.5219740000000  0.5427780000000  0.4921640000000 1.0
C      1  0.5277440000000  0.4829170000000  0.4442570000000 1.0
C      1  0.4998620000000  0.5583600000000  0.5357840000000 1.0
C      1  0.4376300000000  0.5193200000000  0.5212820000000 1.0
C      1  0.5248380000000  0.4747320000000  0.5613810000000 1.0
C      1  0.5462050000000  0.4628440000000  0.5478710000000 1.0
C      1  0.4443270000000  0.4877290000000  0.4824770000000 1.0
C      1  0.4737980000000  0.4729400000000  0.4741520000000 1.0
C      1  0.4806610000000  0.5405170000000  0.5462030000000 1.0
C      1  0.4881310000000  0.4968730000000  0.4936000000000 1.0
C      1  0.4676150000000  0.5211610000000  0.5054360000000 1.0
C      1  0.4763620000000  0.4885490000000  0.4450420000000 1.0
C      1  0.4981620000000  0.5653070000000  0.4522340000000 1.0
C      1  0.4651150000000  0.4731620000000  0.5260190000000 1.0
C      1  0.5187730000000  0.4604150000000  0.4964220000000 1.0
C      1  0.5393090000000  0.5159050000000  0.4842560000000 1.0
C      1  0.5497730000000  0.5021610000000  0.4549460000000 1.0
C      1  0.5592130000000  0.4793410000000  0.5240760000000 1.0
C      1  0.4420100000000  0.4909020000000  0.5102670000000 1.0
C      1  0.5032350000000  0.4967690000000  0.4460190000000 1.0
C      1  0.4919600000000  0.5133790000000  0.5533090000000 1.0
C      1  0.5606300000000  0.4973320000000  0.5035670000000 1.0
C      1  0.4979970000000  0.4769590000000  0.5181640000000 1.0
C      1  0.5074310000000  0.4897060000000  0.5455210000000 1.0
C      1  0.4528390000000  0.5385190000000  0.5394080000000 1.0
C      1  0.5354740000000  0.4686620000000  0.4710910000000 1.0
C      1  0.4709670000000  0.5279630000000  0.4753460000000 1.0
C      1  0.4576350000000  0.5069430000000  0.4613740000000 1.0
C      1  0.5618810000000  0.4837440000000  0.4773800000000 1.0
C      1  0.5175410000000  0.5556830000000  0.5151110000000 1.0
C      1  0.5072680000000  0.5114610000000  0.4731630000000 1.0
C      1  0.4741940000000  0.4452140000000  0.5133040000000 1.0
C      1  0.5403160000000  0.4532390000000  0.5178530000000 1.0
C      1  0.4724920000000  0.5039690000000  0.5323480000000 1.0
END
