TITL C-2848503-6230-289 0.000539778532014824 125000 -108.028553987875 0 0 21 (C1) n - 1
REM
REM in /home/bkarasulu/work/CARBON/AIRSS/Generating-Clusters/AIREBO/with-SteepDescent/Only-C1/SD-CG-opt/Try1-1.4A-POS3A/HFTN-CG
REM
REM
REM
REM
REM
REM ./C.cell (11c1c37f851c82e70ff6c80c92926a4b)
REM
REM compiler GCC version 9.2.1 20190827 (Red Hat 9.2.1-1)
REM options -cpp -mtune=generic -march=x86-64 -g -O0 -fpre-include=/usr/include/finclude/math-vector-fortran.h
REM seed 1900441174 -989139701 1194124319 -1676965595 -840013022 -2112936120 -623162106 1679071870 351843144 -1085699322 1735481832 1041490399 1220329623 1348463425 665260362 -2050140142 -494739791 741790527 -1190757714 -539247611 1065149083 578200458 13644353 -2120324631 -369182105 -2039584361 1810833398 -1987556409 -886187378 2949000 -2114165836 1576294772 1365546291
REM
CELL 1.54180   50.00000   50.00000   50.00000   90.00000   90.00000   90.00000
LATT -1
SFAC C  
C      1  0.4855210000000  0.5668200000000  0.5486130000000 1.0
C      1  0.4411410000000  0.5132600000000  0.4947880000000 1.0
C      1  0.4975840000000  0.5401370000000  0.4771160000000 1.0
C      1  0.4850020000000  0.4471460000000  0.5035800000000 1.0
C      1  0.5123470000000  0.5400200000000  0.5052430000000 1.0
C      1  0.5014040000000  0.5372370000000  0.4503270000000 1.0
C      1  0.5045300000000  0.4935450000000  0.4664540000000 1.0
C      1  0.4641030000000  0.4984030000000  0.5003450000000 1.0
C      1  0.5366120000000  0.4548700000000  0.5099990000000 1.0
C      1  0.4649620000000  0.4827860000000  0.5291040000000 1.0
C      1  0.5109130000000  0.4471370000000  0.4928900000000 1.0
C      1  0.4898160000000  0.5102580000000  0.4913660000000 1.0
C      1  0.5037160000000  0.5602880000000  0.5303620000000 1.0
C      1  0.5542150000000  0.4407270000000  0.5239280000000 1.0
C      1  0.5204370000000  0.4732930000000  0.4786050000000 1.0
C      1  0.5326770000000  0.4857430000000  0.5046830000000 1.0
C      1  0.5050780000000  0.5102870000000  0.4433810000000 1.0
C      1  0.5188020000000  0.5092170000000  0.5095430000000 1.0
C      1  0.5316510000000  0.5654110000000  0.5169110000000 1.0
C      1  0.4639150000000  0.4660920000000  0.4927750000000 1.0
C      1  0.4755750000000  0.4573230000000  0.5299890000000 1.0
END
