TITL C-2848496-4490-153 0.000309272032311228 125000 -927.937975921093 0 0 175 (C1) n - 1
REM
REM in /home/bkarasulu/work/CARBON/AIRSS/Generating-Clusters/AIREBO/with-SteepDescent/Only-C1/SD-CG-opt/Try1-1.4A-POS3A/HFTN-CG
REM
REM
REM
REM
REM
REM ./C.cell (11c1c37f851c82e70ff6c80c92926a4b)
REM
REM compiler GCC version 9.2.1 20190827 (Red Hat 9.2.1-1)
REM options -cpp -mtune=generic -march=x86-64 -g -O0 -fpre-include=/usr/include/finclude/math-vector-fortran.h
REM seed -318192221 -1783013280 1211309933 1133874332 -113163191 -1450129262 288085299 -2006120862 -1828347647 440027307 -766624826 -1311099219 457312416 693154597 -332530567 1651898954 1642248944 -446510758 1908177475 2127406776 1990703527 -1047693908 1840092462 -111175614 -1451017254 1751647334 -1042236263 1543312328 519109316 -290630497 -515974761 -460875023 -570152317
REM
CELL 1.54180   50.00000   50.00000   50.00000   90.00000   90.00000   90.00000
LATT -1
SFAC C  
C      1  0.3958360000000  0.5186450000000  0.5130910000000 1.0
C      1  0.4994880000000  0.4668910000000  0.4978780000000 1.0
C      1  0.5536430000000  0.5384310000000  0.5878870000000 1.0
C      1  0.5096820000000  0.5447460000000  0.5546810000000 1.0
C      1  0.4425750000000  0.5604160000000  0.5689380000000 1.0
C      1  0.4043990000000  0.5492920000000  0.5049630000000 1.0
C      1  0.4709700000000  0.4917450000000  0.5777480000000 1.0
C      1  0.5111450000000  0.4267410000000  0.5247120000000 1.0
C      1  0.4914190000000  0.5501650000000  0.5016660000000 1.0
C      1  0.4414360000000  0.5371240000000  0.5868440000000 1.0
C      1  0.4528830000000  0.5068360000000  0.5127990000000 1.0
C      1  0.5756020000000  0.4701820000000  0.5287350000000 1.0
C      1  0.5267630000000  0.4948140000000  0.4672130000000 1.0
C      1  0.4330460000000  0.4894710000000  0.4066210000000 1.0
C      1  0.4657900000000  0.5711480000000  0.4939890000000 1.0
C      1  0.4819880000000  0.6002320000000  0.4958930000000 1.0
C      1  0.4447030000000  0.4621110000000  0.5828730000000 1.0
C      1  0.5171900000000  0.5326120000000  0.4591540000000 1.0
C      1  0.5559520000000  0.4904700000000  0.4222950000000 1.0
C      1  0.5008540000000  0.3845790000000  0.4839890000000 1.0
C      1  0.4844150000000  0.5408260000000  0.5332500000000 1.0
C      1  0.5468710000000  0.4948890000000  0.4946420000000 1.0
C      1  0.5244970000000  0.4965080000000  0.4107910000000 1.0
C      1  0.4236300000000  0.5125070000000  0.5827830000000 1.0
C      1  0.4825950000000  0.4946910000000  0.3970850000000 1.0
C      1  0.5014320000000  0.4455300000000  0.5706230000000 1.0
C      1  0.4758760000000  0.5987750000000  0.5293210000000 1.0
C      1  0.5344680000000  0.4179030000000  0.5439670000000 1.0
C      1  0.4633570000000  0.4841650000000  0.4418150000000 1.0
C      1  0.5990150000000  0.5156070000000  0.5146170000000 1.0
C      1  0.4195780000000  0.5026640000000  0.5187660000000 1.0
C      1  0.5737270000000  0.4985470000000  0.5448670000000 1.0
C      1  0.5255330000000  0.4989730000000  0.5950520000000 1.0
C      1  0.4470440000000  0.5386320000000  0.5073390000000 1.0
C      1  0.4490600000000  0.4786390000000  0.5552780000000 1.0
C      1  0.5632020000000  0.5681910000000  0.4305260000000 1.0
C      1  0.5193870000000  0.4218300000000  0.5707830000000 1.0
C      1  0.4890390000000  0.5280720000000  0.6113120000000 1.0
C      1  0.5314190000000  0.5807950000000  0.4769860000000 1.0
C      1  0.4246190000000  0.4405090000000  0.4421570000000 1.0
C      1  0.5048310000000  0.5955770000000  0.4302540000000 1.0
C      1  0.5391050000000  0.4588410000000  0.5622910000000 1.0
C      1  0.4967460000000  0.4083730000000  0.5035340000000 1.0
C      1  0.4059550000000  0.4641310000000  0.5266580000000 1.0
C      1  0.4753060000000  0.4316460000000  0.4293970000000 1.0
C      1  0.5116680000000  0.4666860000000  0.4004830000000 1.0
C      1  0.5643370000000  0.4303030000000  0.5334580000000 1.0
C      1  0.5407640000000  0.6108480000000  0.4745790000000 1.0
C      1  0.5412930000000  0.4524320000000  0.4952340000000 1.0
C      1  0.4374880000000  0.5571640000000  0.4842450000000 1.0
C      1  0.4319290000000  0.4194530000000  0.5409750000000 1.0
C      1  0.5347130000000  0.5780720000000  0.5187110000000 1.0
C      1  0.5164540000000  0.5321790000000  0.4909420000000 1.0
C      1  0.4867520000000  0.5754120000000  0.4512510000000 1.0
C      1  0.5866860000000  0.4826120000000  0.4345750000000 1.0
C      1  0.4907600000000  0.4468900000000  0.5385230000000 1.0
C      1  0.4280860000000  0.4861040000000  0.4602970000000 1.0
C      1  0.4286840000000  0.4487420000000  0.5387720000000 1.0
C      1  0.5959290000000  0.4792510000000  0.5619280000000 1.0
C      1  0.4182610000000  0.4778320000000  0.4980760000000 1.0
C      1  0.4852110000000  0.5413480000000  0.4240950000000 1.0
C      1  0.5945090000000  0.5341770000000  0.4440940000000 1.0
C      1  0.5589890000000  0.5985150000000  0.5140610000000 1.0
C      1  0.4446450000000  0.4420010000000  0.4678630000000 1.0
C      1  0.4080580000000  0.5312250000000  0.4772880000000 1.0
C      1  0.4827900000000  0.5085240000000  0.5261400000000 1.0
C      1  0.5157410000000  0.5143900000000  0.5199600000000 1.0
C      1  0.5812710000000  0.5462400000000  0.4730270000000 1.0
C      1  0.3921260000000  0.4563340000000  0.4947430000000 1.0
C      1  0.4930250000000  0.4974760000000  0.5555820000000 1.0
C      1  0.4996030000000  0.4208190000000  0.4210530000000 1.0
C      1  0.5839540000000  0.5869070000000  0.5076400000000 1.0
C      1  0.5900770000000  0.4426550000000  0.5149930000000 1.0
C      1  0.5556520000000  0.5513970000000  0.5178050000000 1.0
C      1  0.4875820000000  0.3879830000000  0.4579040000000 1.0
C      1  0.6050970000000  0.5379760000000  0.5575140000000 1.0
C      1  0.5190700000000  0.4693840000000  0.5873690000000 1.0
C      1  0.4710270000000  0.5287830000000  0.4848430000000 1.0
C      1  0.5715500000000  0.4271630000000  0.4941880000000 1.0
C      1  0.4695640000000  0.6042030000000  0.5581580000000 1.0
C      1  0.4582180000000  0.4300160000000  0.5033490000000 1.0
C      1  0.5818070000000  0.5714280000000  0.4501820000000 1.0
C      1  0.5158350000000  0.5239750000000  0.6114370000000 1.0
C      1  0.5757970000000  0.5171940000000  0.4292290000000 1.0
C      1  0.5051950000000  0.4736670000000  0.5418320000000 1.0
C      1  0.5696310000000  0.5145920000000  0.4684120000000 1.0
C      1  0.4130590000000  0.5787430000000  0.4939350000000 1.0
C      1  0.5954760000000  0.4704740000000  0.4609910000000 1.0
C      1  0.4713390000000  0.5695170000000  0.5385420000000 1.0
C      1  0.5373810000000  0.4753860000000  0.4421690000000 1.0
C      1  0.5320070000000  0.4057000000000  0.4525280000000 1.0
C      1  0.5651900000000  0.4808800000000  0.4701840000000 1.0
C      1  0.5896800000000  0.4573520000000  0.5767280000000 1.0
C      1  0.4744400000000  0.4623210000000  0.5948220000000 1.0
C      1  0.4594500000000  0.3950060000000  0.4671460000000 1.0
C      1  0.4636830000000  0.5818290000000  0.5755780000000 1.0
C      1  0.4318380000000  0.5866140000000  0.5207140000000 1.0
C      1  0.4208640000000  0.4197010000000  0.5126350000000 1.0
C      1  0.4889860000000  0.4743900000000  0.4217150000000 1.0
C      1  0.4295000000000  0.5693570000000  0.4392640000000 1.0
C      1  0.5529220000000  0.5667450000000  0.5606660000000 1.0
C      1  0.4730310000000  0.4017430000000  0.5269810000000 1.0
C      1  0.5444170000000  0.5153730000000  0.5383390000000 1.0
C      1  0.4078660000000  0.4591000000000  0.4646280000000 1.0
C      1  0.4092620000000  0.5454420000000  0.5383950000000 1.0
C      1  0.4555430000000  0.5291860000000  0.4478550000000 1.0
C      1  0.4571310000000  0.5804470000000  0.4353290000000 1.0
C      1  0.4290800000000  0.5228590000000  0.5517240000000 1.0
C      1  0.5643550000000  0.4474610000000  0.5775930000000 1.0
C      1  0.4403500000000  0.5574520000000  0.5351220000000 1.0
C      1  0.4584810000000  0.4007360000000  0.4962570000000 1.0
C      1  0.6263750000000  0.5076510000000  0.5258130000000 1.0
C      1  0.5913630000000  0.5613270000000  0.5018010000000 1.0
C      1  0.4286080000000  0.5036220000000  0.4342200000000 1.0
C      1  0.4942070000000  0.4367690000000  0.4849980000000 1.0
C      1  0.5393480000000  0.4197270000000  0.5043480000000 1.0
C      1  0.4979280000000  0.4844060000000  0.4721620000000 1.0
C      1  0.4598640000000  0.4581510000000  0.5331130000000 1.0
C      1  0.4599280000000  0.5275730000000  0.5527790000000 1.0
C      1  0.5466730000000  0.5271920000000  0.4984550000000 1.0
C      1  0.5501040000000  0.4292920000000  0.4477850000000 1.0
C      1  0.4307040000000  0.5440810000000  0.4577080000000 1.0
C      1  0.4677260000000  0.4616590000000  0.5017620000000 1.0
C      1  0.5228880000000  0.4225970000000  0.4763160000000 1.0
C      1  0.5076730000000  0.3991150000000  0.4385550000000 1.0
C      1  0.5516190000000  0.5581070000000  0.4847170000000 1.0
C      1  0.5241560000000  0.4550040000000  0.4659620000000 1.0
C      1  0.4236350000000  0.4862050000000  0.5886220000000 1.0
C      1  0.4402890000000  0.4661970000000  0.4266490000000 1.0
C      1  0.4853900000000  0.5427550000000  0.4573670000000 1.0
C      1  0.4563650000000  0.5025570000000  0.3944660000000 1.0
C      1  0.5443870000000  0.4575610000000  0.5287140000000 1.0
C      1  0.5367820000000  0.5433530000000  0.6085320000000 1.0
C      1  0.5164570000000  0.5155300000000  0.5667680000000 1.0
C      1  0.4741890000000  0.4406170000000  0.4598770000000 1.0
C      1  0.5862580000000  0.5423400000000  0.5295410000000 1.0
C      1  0.5514460000000  0.6202380000000  0.4980000000000 1.0
C      1  0.5546640000000  0.3984170000000  0.5259770000000 1.0
C      1  0.5286870000000  0.5679370000000  0.5473360000000 1.0
C      1  0.4875000000000  0.5440900000000  0.3923370000000 1.0
C      1  0.5788850000000  0.4926100000000  0.5059060000000 1.0
C      1  0.5630740000000  0.4468630000000  0.4697220000000 1.0
C      1  0.4606520000000  0.5567260000000  0.4108940000000 1.0
C      1  0.4596700000000  0.4150500000000  0.5483160000000 1.0
C      1  0.5397010000000  0.5545210000000  0.4375110000000 1.0
C      1  0.4064170000000  0.5026040000000  0.4780170000000 1.0
C      1  0.4474460000000  0.5254850000000  0.4160270000000 1.0
C      1  0.5467010000000  0.5235020000000  0.4449390000000 1.0
C      1  0.5374590000000  0.4900900000000  0.5585060000000 1.0
C      1  0.4307170000000  0.4463580000000  0.4947910000000 1.0
C      1  0.4821970000000  0.5551790000000  0.5704200000000 1.0
C      1  0.4660300000000  0.5981590000000  0.4651360000000 1.0
C      1  0.4806040000000  0.5113570000000  0.4333450000000 1.0
C      1  0.4990410000000  0.4599260000000  0.6077230000000 1.0
C      1  0.5206690000000  0.5731840000000  0.4503580000000 1.0
C      1  0.5389580000000  0.4463800000000  0.4299030000000 1.0
C      1  0.4408160000000  0.4124870000000  0.4534210000000 1.0
C      1  0.5872390000000  0.5152430000000  0.5712250000000 1.0
C      1  0.5996840000000  0.5184340000000  0.4838470000000 1.0
C      1  0.4541110000000  0.4401070000000  0.4151620000000 1.0
C      1  0.5114390000000  0.5058780000000  0.4389420000000 1.0
C      1  0.5190880000000  0.4406180000000  0.4114170000000 1.0
C      1  0.4953250000000  0.4618430000000  0.4502420000000 1.0
C      1  0.4216310000000  0.4899730000000  0.5472980000000 1.0
C      1  0.5652280000000  0.5360200000000  0.5557300000000 1.0
C      1  0.5021680000000  0.5161490000000  0.3941040000000 1.0
C      1  0.5946850000000  0.4671360000000  0.4928920000000 1.0
C      1  0.4679380000000  0.4395360000000  0.5704280000000 1.0
C      1  0.4428200000000  0.5958960000000  0.4899020000000 1.0
C      1  0.5086720000000  0.5795040000000  0.4997160000000 1.0
C      1  0.4495480000000  0.4850580000000  0.4868970000000 1.0
C      1  0.5558830000000  0.5070400000000  0.5815100000000 1.0
C      1  0.4718950000000  0.5004090000000  0.4704710000000 1.0
C      1  0.5240470000000  0.4817720000000  0.5161750000000 1.0
C      1  0.4731230000000  0.5251970000000  0.5837110000000 1.0
END
