TITL C-2848498-1409-500 3.28856604408937e-06 125000 -231.973679459077 0 0 41 (C1) n - 1
REM
REM in /home/bkarasulu/work/CARBON/AIRSS/Generating-Clusters/AIREBO/with-SteepDescent/Only-C1/SD-CG-opt/Try1-1.4A-POS3A/HFTN-CG
REM
REM
REM
REM
REM
REM ./C.cell (11c1c37f851c82e70ff6c80c92926a4b)
REM
REM compiler GCC version 9.2.1 20190827 (Red Hat 9.2.1-1)
REM options -cpp -mtune=generic -march=x86-64 -g -O0 -fpre-include=/usr/include/finclude/math-vector-fortran.h
REM seed 1549990181 -337046432 110408485 -1805756839 -9753138 -1719517984 -238862028 -1108275291 1606587521 -1623539703 1481900214 -1745100823 -152712249 -1278318366 -534161331 2011362837 -534498987 -2128700971 1705629349 -1095930215 1636995921 524883628 -2022155042 923126053 1777075682 1631502351 1705759584 1447448630 -839786802 590763932 487613086 -120570331 909254967
REM
CELL 1.54180   50.00000   50.00000   50.00000   90.00000   90.00000   90.00000
LATT -1
SFAC C  
C      1  0.5514270000000  0.5496200000000  0.5383620000000 1.0
C      1  0.5218620000000  0.5066930000000  0.4329430000000 1.0
C      1  0.4617290000000  0.5752730000000  0.5044480000000 1.0
C      1  0.4706960000000  0.4560630000000  0.5308870000000 1.0
C      1  0.4826550000000  0.5364580000000  0.5258340000000 1.0
C      1  0.4602210000000  0.5125460000000  0.4607110000000 1.0
C      1  0.5021270000000  0.5583060000000  0.4821530000000 1.0
C      1  0.4551610000000  0.5000670000000  0.5452880000000 1.0
C      1  0.4834760000000  0.5502830000000  0.5735910000000 1.0
C      1  0.5445790000000  0.4906090000000  0.4301700000000 1.0
C      1  0.5217600000000  0.4688760000000  0.5402740000000 1.0
C      1  0.4738030000000  0.5135690000000  0.4350960000000 1.0
C      1  0.4880710000000  0.5571620000000  0.5474140000000 1.0
C      1  0.5441170000000  0.4707170000000  0.4757030000000 1.0
C      1  0.5243540000000  0.5328240000000  0.4428190000000 1.0
C      1  0.5195900000000  0.5474140000000  0.4650470000000 1.0
C      1  0.5029920000000  0.4913430000000  0.5468030000000 1.0
C      1  0.4885300000000  0.4750620000000  0.4567190000000 1.0
C      1  0.5058370000000  0.5154540000000  0.5259260000000 1.0
C      1  0.5557620000000  0.4774650000000  0.4513060000000 1.0
C      1  0.5315850000000  0.4034610000000  0.4956050000000 1.0
C      1  0.4746800000000  0.4803840000000  0.5433740000000 1.0
C      1  0.4989220000000  0.5812730000000  0.5400100000000 1.0
C      1  0.5354700000000  0.5318000000000  0.5267410000000 1.0
C      1  0.4640750000000  0.4851500000000  0.4692460000000 1.0
C      1  0.5318490000000  0.5103100000000  0.5045280000000 1.0
C      1  0.5325950000000  0.4431650000000  0.5237450000000 1.0
C      1  0.4803450000000  0.4369650000000  0.4843240000000 1.0
C      1  0.4962880000000  0.4948510000000  0.4361540000000 1.0
C      1  0.4474320000000  0.4708390000000  0.4846190000000 1.0
C      1  0.4990230000000  0.4519760000000  0.4691890000000 1.0
C      1  0.5258810000000  0.4485310000000  0.4772270000000 1.0
C      1  0.5304710000000  0.4301020000000  0.4990200000000 1.0
C      1  0.4549160000000  0.5236380000000  0.5305690000000 1.0
C      1  0.5071960000000  0.5006800000000  0.5733810000000 1.0
C      1  0.4603090000000  0.5333510000000  0.4789960000000 1.0
C      1  0.4765500000000  0.5514860000000  0.4987400000000 1.0
C      1  0.4681410000000  0.4416350000000  0.5082010000000 1.0
C      1  0.4324020000000  0.5368610000000  0.5223220000000 1.0
C      1  0.5482500000000  0.4711350000000  0.5231140000000 1.0
C      1  0.5448730000000  0.4866020000000  0.4993990000000 1.0
END
