TITL C-2848507-1641-132 0.00265945933671846 125000 -591.097294739569 0 0 112 (C1) n - 1
REM
REM in /home/bkarasulu/work/CARBON/AIRSS/Generating-Clusters/AIREBO/with-SteepDescent/Only-C1/SD-CG-opt/Try1-1.4A-POS3A/HFTN-CG
REM
REM
REM
REM
REM
REM ./C.cell (11c1c37f851c82e70ff6c80c92926a4b)
REM
REM compiler GCC version 9.2.1 20190827 (Red Hat 9.2.1-1)
REM options -cpp -mtune=generic -march=x86-64 -g -O0 -fpre-include=/usr/include/finclude/math-vector-fortran.h
REM seed 1894333226 -1717209992 -426222183 937676048 -14206201 781240326 1354800381 1583881503 -1907462727 -1461002226 829803813 168103859 1749934995 1545622169 451781598 -2028063021 -185815139 508142297 -628696293 51430335 -2130832919 1363355270 1255880442 1555392162 257270204 -994029492 -227424988 410329716 -1325178839 1160128550 -1198237779 548280194 -147825582
REM
CELL 1.54180   50.00000   50.00000   50.00000   90.00000   90.00000   90.00000
LATT -1
SFAC C  
C      1  0.4806530000000  0.4807350000000  0.5436620000000 1.0
C      1  0.4497770000000  0.4997560000000  0.5766140000000 1.0
C      1  0.5134030000000  0.4757040000000  0.5510730000000 1.0
C      1  0.5842190000000  0.5372730000000  0.4784480000000 1.0
C      1  0.4421850000000  0.4283270000000  0.4800230000000 1.0
C      1  0.4179900000000  0.5562920000000  0.4934950000000 1.0
C      1  0.4732690000000  0.5284270000000  0.5541960000000 1.0
C      1  0.5306890000000  0.5885990000000  0.4994590000000 1.0
C      1  0.5344940000000  0.5204860000000  0.6116780000000 1.0
C      1  0.4604300000000  0.5342000000000  0.5104650000000 1.0
C      1  0.5527380000000  0.4606130000000  0.5498040000000 1.0
C      1  0.5354380000000  0.4245380000000  0.4839450000000 1.0
C      1  0.5484270000000  0.4987820000000  0.5040120000000 1.0
C      1  0.5211760000000  0.5421850000000  0.4200010000000 1.0
C      1  0.4883310000000  0.4993230000000  0.4876990000000 1.0
C      1  0.5818200000000  0.4851850000000  0.5378900000000 1.0
C      1  0.5506800000000  0.4608440000000  0.4353780000000 1.0
C      1  0.4795680000000  0.5034850000000  0.4033310000000 1.0
C      1  0.4640060000000  0.4769620000000  0.4280070000000 1.0
C      1  0.5300830000000  0.5789130000000  0.5291100000000 1.0
C      1  0.4590660000000  0.4448640000000  0.5253080000000 1.0
C      1  0.5544300000000  0.5518010000000  0.4691130000000 1.0
C      1  0.4304790000000  0.4625710000000  0.4619720000000 1.0
C      1  0.4611770000000  0.4703250000000  0.4696130000000 1.0
C      1  0.5175050000000  0.4639110000000  0.4285860000000 1.0
C      1  0.5746070000000  0.4724630000000  0.4404940000000 1.0
C      1  0.4593900000000  0.5725320000000  0.4659410000000 1.0
C      1  0.4561940000000  0.5007300000000  0.4820930000000 1.0
C      1  0.5595190000000  0.5604720000000  0.5608230000000 1.0
C      1  0.5444580000000  0.5412650000000  0.4409050000000 1.0
C      1  0.5458700000000  0.5223750000000  0.5283610000000 1.0
C      1  0.4797620000000  0.5660750000000  0.4482370000000 1.0
C      1  0.4607620000000  0.5307800000000  0.4425400000000 1.0
C      1  0.5218430000000  0.4629880000000  0.5245870000000 1.0
C      1  0.5880690000000  0.4871260000000  0.4614000000000 1.0
C      1  0.5304980000000  0.4614910000000  0.5746330000000 1.0
C      1  0.4990750000000  0.4860890000000  0.5152400000000 1.0
C      1  0.4166270000000  0.4492000000000  0.4883480000000 1.0
C      1  0.5426020000000  0.5249950000000  0.4857360000000 1.0
C      1  0.5131170000000  0.5133800000000  0.5299460000000 1.0
C      1  0.5843290000000  0.4184480000000  0.5234130000000 1.0
C      1  0.5597990000000  0.4999320000000  0.5497720000000 1.0
C      1  0.4809900000000  0.5574220000000  0.5407840000000 1.0
C      1  0.4347120000000  0.5491510000000  0.5587980000000 1.0
C      1  0.5045380000000  0.4378730000000  0.4461980000000 1.0
C      1  0.4338990000000  0.4302360000000  0.5105250000000 1.0
C      1  0.5567590000000  0.4667260000000  0.4784760000000 1.0
C      1  0.4630940000000  0.4130520000000  0.4734420000000 1.0
C      1  0.4349670000000  0.5541040000000  0.4678920000000 1.0
C      1  0.4649540000000  0.4676720000000  0.5027240000000 1.0
C      1  0.4935420000000  0.4739960000000  0.4114120000000 1.0
C      1  0.5841190000000  0.4732850000000  0.4873720000000 1.0
C      1  0.5016660000000  0.4441630000000  0.5722630000000 1.0
C      1  0.5429000000000  0.4926930000000  0.5715180000000 1.0
C      1  0.5349710000000  0.5125960000000  0.4427990000000 1.0
C      1  0.4961940000000  0.4901530000000  0.5921880000000 1.0
C      1  0.5502540000000  0.4714050000000  0.5176490000000 1.0
C      1  0.5333630000000  0.4481740000000  0.4617590000000 1.0
C      1  0.5097670000000  0.5090390000000  0.4634100000000 1.0
C      1  0.4795110000000  0.4239210000000  0.5079870000000 1.0
C      1  0.5328910000000  0.4930870000000  0.4202670000000 1.0
C      1  0.5895580000000  0.4679420000000  0.5152080000000 1.0
C      1  0.4270520000000  0.4963750000000  0.4651210000000 1.0
C      1  0.4518490000000  0.5326730000000  0.5795250000000 1.0
C      1  0.5774730000000  0.5401890000000  0.5116470000000 1.0
C      1  0.4649850000000  0.5088960000000  0.5327650000000 1.0
C      1  0.4908320000000  0.5059140000000  0.4353240000000 1.0
C      1  0.5232600000000  0.5085160000000  0.5891490000000 1.0
C      1  0.4812380000000  0.5480160000000  0.5873330000000 1.0
C      1  0.4912170000000  0.5395650000000  0.4302300000000 1.0
C      1  0.5395600000000  0.5525690000000  0.5140390000000 1.0
C      1  0.4181340000000  0.5362610000000  0.5413580000000 1.0
C      1  0.4482510000000  0.4927010000000  0.5127100000000 1.0
C      1  0.4501090000000  0.4510540000000  0.4366490000000 1.0
C      1  0.4507800000000  0.5698110000000  0.5475220000000 1.0
C      1  0.5402650000000  0.3996300000000  0.4775300000000 1.0
C      1  0.4233490000000  0.4703600000000  0.5131780000000 1.0
C      1  0.5656680000000  0.5661730000000  0.4978070000000 1.0
C      1  0.4939300000000  0.5374360000000  0.4719030000000 1.0
C      1  0.5081960000000  0.4693030000000  0.4704930000000 1.0
C      1  0.4361090000000  0.4636910000000  0.5419130000000 1.0
C      1  0.4604740000000  0.5332960000000  0.4764510000000 1.0
C      1  0.4618910000000  0.5677340000000  0.5159040000000 1.0
C      1  0.5071950000000  0.5672270000000  0.4622590000000 1.0
C      1  0.5320330000000  0.4877700000000  0.4778430000000 1.0
C      1  0.4201240000000  0.5418270000000  0.4441890000000 1.0
C      1  0.5677030000000  0.4422980000000  0.5198960000000 1.0
C      1  0.4170980000000  0.5069410000000  0.4925290000000 1.0
C      1  0.4857130000000  0.4472140000000  0.5465180000000 1.0
C      1  0.4921840000000  0.3977480000000  0.5232640000000 1.0
C      1  0.5332870000000  0.5728020000000  0.5568530000000 1.0
C      1  0.5349810000000  0.4348600000000  0.5129720000000 1.0
C      1  0.5074680000000  0.5638750000000  0.5724530000000 1.0
C      1  0.5938880000000  0.5147150000000  0.4648500000000 1.0
C      1  0.5702860000000  0.5419930000000  0.5416190000000 1.0
C      1  0.4946720000000  0.4585490000000  0.4957680000000 1.0
C      1  0.4639890000000  0.5843660000000  0.4903530000000 1.0
C      1  0.5168670000000  0.5443280000000  0.4935780000000 1.0
C      1  0.4321810000000  0.4801020000000  0.5649310000000 1.0
C      1  0.4716200000000  0.4322990000000  0.4396930000000 1.0
C      1  0.5299900000000  0.5187510000000  0.4036370000000 1.0
C      1  0.5095350000000  0.5425560000000  0.5460390000000 1.0
C      1  0.4519200000000  0.5058720000000  0.4217060000000 1.0
C      1  0.4265260000000  0.5316180000000  0.5113530000000 1.0
C      1  0.4283170000000  0.5140500000000  0.4408280000000 1.0
C      1  0.4756690000000  0.4892870000000  0.5749280000000 1.0
C      1  0.5058920000000  0.4268730000000  0.5282050000000 1.0
C      1  0.5017640000000  0.5248100000000  0.5733180000000 1.0
C      1  0.4914710000000  0.4307470000000  0.4768090000000 1.0
C      1  0.5308250000000  0.5758660000000  0.4735490000000 1.0
C      1  0.4869760000000  0.4781700000000  0.4523950000000 1.0
C      1  0.4940010000000  0.5311890000000  0.5110880000000 1.0
END
