TITL C-2848508-1660-359 0.00316357470153911 125000 -1031.54554469684 0 0 189 (C1) n - 1
REM
REM in /home/bkarasulu/work/CARBON/AIRSS/Generating-Clusters/AIREBO/with-SteepDescent/Only-C1/SD-CG-opt/Try1-1.4A-POS3A/HFTN-CG
REM
REM
REM
REM
REM
REM ./C.cell (11c1c37f851c82e70ff6c80c92926a4b)
REM
REM compiler GCC version 9.2.1 20190827 (Red Hat 9.2.1-1)
REM options -cpp -mtune=generic -march=x86-64 -g -O0 -fpre-include=/usr/include/finclude/math-vector-fortran.h
REM seed 1311864364 -2111537142 738150262 -1953468851 1302887786 1148983633 918573059 -449507677 -1091727728 -1039393358 1482782525 1890520211 -1205398754 1119232964 -1562519587 -2000807965 164746765 178051807 1338267457 1261797077 1684253585 -346939795 -1625902111 -1718984133 217989856 1647967255 757343083 220007238 -152062496 -656858149 -874743216 1407663804 1138332909
REM
CELL 1.54180   50.00000   50.00000   50.00000   90.00000   90.00000   90.00000
LATT -1
SFAC C  
C      1  0.6020130000000  0.5368250000000  0.5294350000000 1.0
C      1  0.4797530000000  0.5544190000000  0.4657060000000 1.0
C      1  0.4930520000000  0.5299890000000  0.4205440000000 1.0
C      1  0.4565540000000  0.4888900000000  0.4361100000000 1.0
C      1  0.4301830000000  0.4950770000000  0.4521670000000 1.0
C      1  0.5913210000000  0.4796460000000  0.5563550000000 1.0
C      1  0.3946260000000  0.4902060000000  0.5177290000000 1.0
C      1  0.5084560000000  0.3926080000000  0.4941810000000 1.0
C      1  0.5577290000000  0.4256770000000  0.4417460000000 1.0
C      1  0.4677320000000  0.5236620000000  0.5973920000000 1.0
C      1  0.4341720000000  0.4148640000000  0.4329480000000 1.0
C      1  0.4874400000000  0.5619630000000  0.3979600000000 1.0
C      1  0.4299790000000  0.4953780000000  0.4997490000000 1.0
C      1  0.5167710000000  0.6112530000000  0.4962380000000 1.0
C      1  0.3964830000000  0.4455900000000  0.4855560000000 1.0
C      1  0.5587180000000  0.5381270000000  0.4656840000000 1.0
C      1  0.5282690000000  0.4052330000000  0.4779230000000 1.0
C      1  0.5452320000000  0.5298080000000  0.6172570000000 1.0
C      1  0.5634190000000  0.4477260000000  0.5842370000000 1.0
C      1  0.4799750000000  0.4638930000000  0.4821960000000 1.0
C      1  0.4997530000000  0.4903130000000  0.4442750000000 1.0
C      1  0.5681500000000  0.5399420000000  0.4266900000000 1.0
C      1  0.4338260000000  0.5259170000000  0.4662820000000 1.0
C      1  0.4098780000000  0.5056190000000  0.5800330000000 1.0
C      1  0.5948580000000  0.5850450000000  0.4947670000000 1.0
C      1  0.5174720000000  0.4566990000000  0.5684320000000 1.0
C      1  0.5814660000000  0.6072980000000  0.5037230000000 1.0
C      1  0.5620730000000  0.5313680000000  0.5990350000000 1.0
C      1  0.4305240000000  0.5612560000000  0.4151790000000 1.0
C      1  0.5679620000000  0.5009590000000  0.5482390000000 1.0
C      1  0.6015130000000  0.4636380000000  0.4730070000000 1.0
C      1  0.4098270000000  0.4312350000000  0.5133540000000 1.0
C      1  0.4641090000000  0.4836110000000  0.5160020000000 1.0
C      1  0.5628110000000  0.4545410000000  0.5175330000000 1.0
C      1  0.5131140000000  0.5734060000000  0.4068650000000 1.0
C      1  0.4559450000000  0.4330910000000  0.5843170000000 1.0
C      1  0.4625410000000  0.5901990000000  0.4621150000000 1.0
C      1  0.4733160000000  0.4478050000000  0.4144320000000 1.0
C      1  0.5437540000000  0.4977070000000  0.5822860000000 1.0
C      1  0.4491210000000  0.5299760000000  0.4947070000000 1.0
C      1  0.5983820000000  0.5354050000000  0.4956320000000 1.0
C      1  0.5612430000000  0.4899950000000  0.4049130000000 1.0
C      1  0.4333150000000  0.4368980000000  0.5633810000000 1.0
C      1  0.5269890000000  0.4661160000000  0.4222060000000 1.0
C      1  0.5569570000000  0.4468290000000  0.4754500000000 1.0
C      1  0.4383790000000  0.4810340000000  0.3995750000000 1.0
C      1  0.5071620000000  0.5998750000000  0.4579530000000 1.0
C      1  0.5796210000000  0.5507080000000  0.5511540000000 1.0
C      1  0.4300110000000  0.5352730000000  0.5217200000000 1.0
C      1  0.4617050000000  0.5004850000000  0.4886250000000 1.0
C      1  0.4475870000000  0.4002310000000  0.4814270000000 1.0
C      1  0.4557450000000  0.4196660000000  0.5168300000000 1.0
C      1  0.5791410000000  0.4818410000000  0.5055060000000 1.0
C      1  0.6038900000000  0.4601220000000  0.5067520000000 1.0
C      1  0.5784330000000  0.5604620000000  0.4841690000000 1.0
C      1  0.5317430000000  0.4272350000000  0.4282840000000 1.0
C      1  0.4027160000000  0.4743010000000  0.5465110000000 1.0
C      1  0.5795450000000  0.4506070000000  0.4503000000000 1.0
C      1  0.4790910000000  0.4321950000000  0.4421820000000 1.0
C      1  0.5065980000000  0.4416020000000  0.4103990000000 1.0
C      1  0.4571430000000  0.5683830000000  0.4869520000000 1.0
C      1  0.5485510000000  0.4204310000000  0.5479540000000 1.0
C      1  0.4004400000000  0.4422940000000  0.4530320000000 1.0
C      1  0.4872550000000  0.5997630000000  0.4837550000000 1.0
C      1  0.5648530000000  0.5283710000000  0.5681360000000 1.0
C      1  0.4651210000000  0.5989260000000  0.5445190000000 1.0
C      1  0.5143490000000  0.3841050000000  0.5205360000000 1.0
C      1  0.5308380000000  0.4919130000000  0.4057960000000 1.0
C      1  0.4135290000000  0.4632320000000  0.5168420000000 1.0
C      1  0.5766450000000  0.4219480000000  0.4876820000000 1.0
C      1  0.5077590000000  0.4252020000000  0.4466560000000 1.0
C      1  0.4868900000000  0.4599880000000  0.5802950000000 1.0
C      1  0.4455170000000  0.5645400000000  0.5140030000000 1.0
C      1  0.4176310000000  0.5357450000000  0.4181110000000 1.0
C      1  0.5272660000000  0.5264480000000  0.5014170000000 1.0
C      1  0.5631440000000  0.5240580000000  0.5264540000000 1.0
C      1  0.5479610000000  0.4948020000000  0.4637860000000 1.0
C      1  0.4620180000000  0.5045110000000  0.4063720000000 1.0
C      1  0.5564760000000  0.4079420000000  0.4668120000000 1.0
C      1  0.4521790000000  0.5699430000000  0.4367290000000 1.0
C      1  0.4952800000000  0.5816760000000  0.5114460000000 1.0
C      1  0.4719130000000  0.4627800000000  0.4514930000000 1.0
C      1  0.4961960000000  0.5402130000000  0.6058690000000 1.0
C      1  0.4673960000000  0.4409640000000  0.6093670000000 1.0
C      1  0.4529450000000  0.4333790000000  0.4775980000000 1.0
C      1  0.5980090000000  0.5116540000000  0.4717300000000 1.0
C      1  0.4934530000000  0.3924260000000  0.5382770000000 1.0
C      1  0.4488300000000  0.5258770000000  0.5704260000000 1.0
C      1  0.5761400000000  0.4328770000000  0.5375460000000 1.0
C      1  0.4767190000000  0.5153640000000  0.4417420000000 1.0
C      1  0.5247260000000  0.4744560000000  0.5403590000000 1.0
C      1  0.4786600000000  0.5298650000000  0.3909590000000 1.0
C      1  0.5405310000000  0.3927400000000  0.5317770000000 1.0
C      1  0.4233360000000  0.4657640000000  0.5674410000000 1.0
C      1  0.4316620000000  0.4649250000000  0.4897890000000 1.0
C      1  0.4323580000000  0.4256320000000  0.5371030000000 1.0
C      1  0.4218080000000  0.4226810000000  0.4839000000000 1.0
C      1  0.4286410000000  0.5130050000000  0.4059070000000 1.0
C      1  0.4149380000000  0.5713870000000  0.5141610000000 1.0
C      1  0.4855080000000  0.5053640000000  0.5203590000000 1.0
C      1  0.6161370000000  0.5104970000000  0.5308330000000 1.0
C      1  0.5289880000000  0.4942780000000  0.6091720000000 1.0
C      1  0.5374460000000  0.4408490000000  0.5026590000000 1.0
C      1  0.4852350000000  0.5853880000000  0.5679690000000 1.0
C      1  0.4838530000000  0.5623410000000  0.4317790000000 1.0
C      1  0.5624960000000  0.5558180000000  0.5244570000000 1.0
C      1  0.5827500000000  0.5099760000000  0.5082660000000 1.0
C      1  0.4404280000000  0.5571440000000  0.5734710000000 1.0
C      1  0.5039700000000  0.5424990000000  0.4825560000000 1.0
C      1  0.5283850000000  0.5799530000000  0.5677460000000 1.0
C      1  0.5386130000000  0.5403650000000  0.4305660000000 1.0
C      1  0.4652760000000  0.4805730000000  0.5632830000000 1.0
C      1  0.5400010000000  0.4367570000000  0.5724490000000 1.0
C      1  0.5663540000000  0.5762310000000  0.4565900000000 1.0
C      1  0.4353960000000  0.4789260000000  0.5953780000000 1.0
C      1  0.4251480000000  0.4645870000000  0.4599460000000 1.0
C      1  0.5192500000000  0.5063270000000  0.4752010000000 1.0
C      1  0.5768360000000  0.4754500000000  0.4303620000000 1.0
C      1  0.5721920000000  0.5132800000000  0.4561580000000 1.0
C      1  0.3869150000000  0.4755400000000  0.4897540000000 1.0
C      1  0.5134550000000  0.5657950000000  0.5893500000000 1.0
C      1  0.5670940000000  0.4776090000000  0.5801810000000 1.0
C      1  0.5060150000000  0.5088790000000  0.3891510000000 1.0
C      1  0.4809690000000  0.5311930000000  0.5049070000000 1.0
C      1  0.5779740000000  0.5094200000000  0.4252540000000 1.0
C      1  0.4586400000000  0.4516700000000  0.5056950000000 1.0
C      1  0.4567950000000  0.5386810000000  0.4492850000000 1.0
C      1  0.5533600000000  0.4768530000000  0.5356130000000 1.0
C      1  0.5773600000000  0.5648760000000  0.4337070000000 1.0
C      1  0.5125070000000  0.4898180000000  0.5743620000000 1.0
C      1  0.4725120000000  0.4410020000000  0.5571170000000 1.0
C      1  0.5146220000000  0.5421040000000  0.5415390000000 1.0
C      1  0.5598010000000  0.4764090000000  0.4842500000000 1.0
C      1  0.5225990000000  0.5233490000000  0.4141060000000 1.0
C      1  0.5338010000000  0.5191480000000  0.5578020000000 1.0
C      1  0.4903560000000  0.5534290000000  0.5228620000000 1.0
C      1  0.6117060000000  0.4888020000000  0.4669360000000 1.0
C      1  0.4309980000000  0.5777820000000  0.4685770000000 1.0
C      1  0.5351460000000  0.5668170000000  0.5302880000000 1.0
C      1  0.4656050000000  0.5693810000000  0.5370400000000 1.0
C      1  0.4008150000000  0.5066400000000  0.4516290000000 1.0
C      1  0.5136170000000  0.5208980000000  0.6200600000000 1.0
C      1  0.4576830000000  0.5364540000000  0.5401160000000 1.0
C      1  0.3943390000000  0.5487790000000  0.5236020000000 1.0
C      1  0.3975220000000  0.5556650000000  0.4919530000000 1.0
C      1  0.5421170000000  0.4641880000000  0.4501960000000 1.0
C      1  0.5123880000000  0.4672520000000  0.4593360000000 1.0
C      1  0.5930480000000  0.4298940000000  0.5097290000000 1.0
C      1  0.4541870000000  0.4601100000000  0.5384880000000 1.0
C      1  0.4594600000000  0.4950220000000  0.5935140000000 1.0
C      1  0.4777680000000  0.4048420000000  0.4949870000000 1.0
C      1  0.5860640000000  0.4479440000000  0.5627070000000 1.0
C      1  0.4458610000000  0.4565260000000  0.4109840000000 1.0
C      1  0.6094070000000  0.4830230000000  0.5313650000000 1.0
C      1  0.5104240000000  0.4769710000000  0.4899500000000 1.0
C      1  0.5121980000000  0.4921380000000  0.5150750000000 1.0
C      1  0.4354600000000  0.4965540000000  0.5595500000000 1.0
C      1  0.4946780000000  0.5055930000000  0.5526630000000 1.0
C      1  0.5157890000000  0.5728170000000  0.4857120000000 1.0
C      1  0.4529900000000  0.5785600000000  0.5763460000000 1.0
C      1  0.4125750000000  0.5523730000000  0.4661450000000 1.0
C      1  0.5349310000000  0.5830190000000  0.4595140000000 1.0
C      1  0.4995310000000  0.4890740000000  0.6197040000000 1.0
C      1  0.4867790000000  0.4660840000000  0.6116810000000 1.0
C      1  0.6221260000000  0.5845570000000  0.4913940000000 1.0
C      1  0.5498160000000  0.5466580000000  0.4963070000000 1.0
C      1  0.4915540000000  0.4731400000000  0.5430040000000 1.0
C      1  0.5277340000000  0.5691750000000  0.4294760000000 1.0
C      1  0.4849030000000  0.5548470000000  0.5793980000000 1.0
C      1  0.4994360000000  0.4689190000000  0.3937090000000 1.0
C      1  0.5181280000000  0.4375430000000  0.4748710000000 1.0
C      1  0.5343230000000  0.5108300000000  0.5270440000000 1.0
C      1  0.5300900000000  0.5985330000000  0.5190730000000 1.0
C      1  0.4564240000000  0.4125940000000  0.4509150000000 1.0
C      1  0.4232900000000  0.5041510000000  0.5295950000000 1.0
C      1  0.4934860000000  0.5940360000000  0.4347810000000 1.0
C      1  0.5271960000000  0.5354720000000  0.4589590000000 1.0
C      1  0.4888520000000  0.4497250000000  0.5217350000000 1.0
C      1  0.4256890000000  0.4453380000000  0.4314010000000 1.0
C      1  0.4028150000000  0.5330320000000  0.4422040000000 1.0
C      1  0.5072690000000  0.5897120000000  0.5426860000000 1.0
C      1  0.4854750000000  0.5044840000000  0.4716970000000 1.0
C      1  0.4854800000000  0.5355960000000  0.5578390000000 1.0
C      1  0.5247080000000  0.4224360000000  0.5252150000000 1.0
C      1  0.4917820000000  0.4338780000000  0.4929560000000 1.0
C      1  0.3834450000000  0.4915580000000  0.4678300000000 1.0
C      1  0.4945940000000  0.4240220000000  0.5409850000000 1.0
C      1  0.4915980000000  0.4902400000000  0.4133580000000 1.0
C      1  0.5564170000000  0.5723980000000  0.5635050000000 1.0
END
