TITL C-2847951-7423-607 0.000243319872528453 125000 -718.357460641336 0 0 129 (C1) n - 1
REM
REM in /home/bkarasulu/work/CARBON/AIRSS/Generating-Clusters/AIREBO/with-SteepDescent/Only-C1/SD-CG-opt/Try1-1.4A-POS3A/HFTN-CG
REM
REM
REM
REM
REM
REM ./C.cell (11c1c37f851c82e70ff6c80c92926a4b)
REM
REM compiler GCC version 9.2.1 20190827 (Red Hat 9.2.1-1)
REM options -cpp -mtune=generic -march=x86-64 -g -O0 -fpre-include=/usr/include/finclude/math-vector-fortran.h
REM seed 535678476 -2114917219 -52013200 362977150 1471459656 -939635473 -1999159387 97452024 -1622922716 805400367 1158070885 809358011 920274804 849791383 -1275254278 1155665299 -189045750 -634726322 -223809186 202541927 -2002314179 -508889986 -2025686501 -664082827 1716945087 -725815341 1673559621 684935304 358655093 -1247184970 -233241240 -942972487 1954517660
REM
CELL 1.54180   50.00000   50.00000   50.00000   90.00000   90.00000   90.00000
LATT -1
SFAC C  
C      1  0.5267090000000  0.5572700000000  0.5348300000000 1.0
C      1  0.4578290000000  0.5285400000000  0.5137650000000 1.0
C      1  0.5073790000000  0.4461850000000  0.5264270000000 1.0
C      1  0.4780440000000  0.4090930000000  0.5061420000000 1.0
C      1  0.5315540000000  0.5969090000000  0.5337910000000 1.0
C      1  0.5402360000000  0.5593720000000  0.4393220000000 1.0
C      1  0.5957390000000  0.4979460000000  0.4847020000000 1.0
C      1  0.5159870000000  0.5434560000000  0.5706010000000 1.0
C      1  0.4868220000000  0.6112920000000  0.4814790000000 1.0
C      1  0.4956850000000  0.4907810000000  0.5274590000000 1.0
C      1  0.4420150000000  0.4411310000000  0.4365170000000 1.0
C      1  0.5310890000000  0.5638140000000  0.4859880000000 1.0
C      1  0.4724230000000  0.5153240000000  0.5616470000000 1.0
C      1  0.5260500000000  0.4542620000000  0.4988860000000 1.0
C      1  0.5018630000000  0.4644760000000  0.4319530000000 1.0
C      1  0.5144350000000  0.4907640000000  0.4040540000000 1.0
C      1  0.5403190000000  0.4831620000000  0.4046820000000 1.0
C      1  0.5163750000000  0.5018030000000  0.5476950000000 1.0
C      1  0.5719340000000  0.4916400000000  0.4432190000000 1.0
C      1  0.4924870000000  0.4693540000000  0.4010820000000 1.0
C      1  0.4773090000000  0.5603790000000  0.5850100000000 1.0
C      1  0.5414840000000  0.5171480000000  0.4758420000000 1.0
C      1  0.5385100000000  0.4117470000000  0.4461450000000 1.0
C      1  0.4124500000000  0.5211350000000  0.5509660000000 1.0
C      1  0.4660640000000  0.5028210000000  0.5317230000000 1.0
C      1  0.4682910000000  0.4608310000000  0.4966160000000 1.0
C      1  0.5415740000000  0.4715990000000  0.5833810000000 1.0
C      1  0.4144360000000  0.5434050000000  0.4934910000000 1.0
C      1  0.5560930000000  0.4502670000000  0.5612340000000 1.0
C      1  0.5155620000000  0.4843930000000  0.5037210000000 1.0
C      1  0.5236800000000  0.4437100000000  0.5835420000000 1.0
C      1  0.4681620000000  0.4111600000000  0.5440830000000 1.0
C      1  0.5886450000000  0.5083050000000  0.4585590000000 1.0
C      1  0.5599290000000  0.5263790000000  0.5553390000000 1.0
C      1  0.4915750000000  0.5375960000000  0.4607910000000 1.0
C      1  0.5279810000000  0.4087750000000  0.5428570000000 1.0
C      1  0.4426760000000  0.5003140000000  0.4769640000000 1.0
C      1  0.4931830000000  0.4432770000000  0.5984640000000 1.0
C      1  0.4359590000000  0.4691220000000  0.4887230000000 1.0
C      1  0.5551020000000  0.4645470000000  0.5133040000000 1.0
C      1  0.4801660000000  0.4630150000000  0.5242970000000 1.0
C      1  0.5055080000000  0.5165400000000  0.6060820000000 1.0
C      1  0.5287200000000  0.4948240000000  0.5922410000000 1.0
C      1  0.4041790000000  0.5267310000000  0.5185370000000 1.0
C      1  0.4999930000000  0.5291230000000  0.5492200000000 1.0
C      1  0.4325630000000  0.5110690000000  0.5080130000000 1.0
C      1  0.4991250000000  0.5139000000000  0.6351720000000 1.0
C      1  0.5572760000000  0.4322440000000  0.4872130000000 1.0
C      1  0.4911760000000  0.4165060000000  0.4309450000000 1.0
C      1  0.4283530000000  0.5218610000000  0.4265060000000 1.0
C      1  0.4099650000000  0.5152420000000  0.4515610000000 1.0
C      1  0.5707330000000  0.5544340000000  0.4427100000000 1.0
C      1  0.4582220000000  0.5302210000000  0.4814650000000 1.0
C      1  0.4364930000000  0.4981930000000  0.5581480000000 1.0
C      1  0.4433570000000  0.5314740000000  0.5595350000000 1.0
C      1  0.4811170000000  0.6019760000000  0.5043780000000 1.0
C      1  0.4651600000000  0.4186610000000  0.4361730000000 1.0
C      1  0.4727740000000  0.4606500000000  0.3748560000000 1.0
C      1  0.4958340000000  0.5128790000000  0.6604600000000 1.0
C      1  0.5099440000000  0.4030540000000  0.4725150000000 1.0
C      1  0.4553380000000  0.5629660000000  0.4725360000000 1.0
C      1  0.5096430000000  0.5175680000000  0.4991800000000 1.0
C      1  0.5539130000000  0.5856920000000  0.5235210000000 1.0
C      1  0.5085060000000  0.4360350000000  0.4760200000000 1.0
C      1  0.5019680000000  0.5397060000000  0.5200100000000 1.0
C      1  0.4448300000000  0.4772930000000  0.5362280000000 1.0
C      1  0.5484080000000  0.4601630000000  0.4739460000000 1.0
C      1  0.4928090000000  0.3902930000000  0.4863880000000 1.0
C      1  0.5255500000000  0.5802400000000  0.4586360000000 1.0
C      1  0.4579040000000  0.5581920000000  0.5239350000000 1.0
C      1  0.5045220000000  0.5145730000000  0.4220950000000 1.0
C      1  0.4718860000000  0.5717560000000  0.4509020000000 1.0
C      1  0.5247080000000  0.5404870000000  0.4624710000000 1.0
C      1  0.4324300000000  0.4486760000000  0.5226000000000 1.0
C      1  0.6190770000000  0.5056460000000  0.4960460000000 1.0
C      1  0.4990940000000  0.5448570000000  0.5930160000000 1.0
C      1  0.4972160000000  0.5631370000000  0.4804940000000 1.0
C      1  0.5191800000000  0.4596200000000  0.5513660000000 1.0
C      1  0.4771510000000  0.4340410000000  0.4848390000000 1.0
C      1  0.4752360000000  0.5581810000000  0.4246010000000 1.0
C      1  0.5435870000000  0.4908460000000  0.4604620000000 1.0
C      1  0.5810570000000  0.5519560000000  0.5010250000000 1.0
C      1  0.4827090000000  0.5819770000000  0.5618990000000 1.0
C      1  0.5809410000000  0.5935370000000  0.5205410000000 1.0
C      1  0.4749300000000  0.4773430000000  0.4436350000000 1.0
C      1  0.5788230000000  0.4793930000000  0.4984220000000 1.0
C      1  0.4818490000000  0.5088020000000  0.4455310000000 1.0
C      1  0.5463540000000  0.4761220000000  0.5414120000000 1.0
C      1  0.5589270000000  0.4333060000000  0.5161820000000 1.0
C      1  0.5151640000000  0.4362270000000  0.4426730000000 1.0
C      1  0.4352370000000  0.4942220000000  0.4441840000000 1.0
C      1  0.4611640000000  0.4542890000000  0.5497030000000 1.0
C      1  0.4587470000000  0.4716460000000  0.4012200000000 1.0
C      1  0.5036360000000  0.5815050000000  0.5402330000000 1.0
C      1  0.5485100000000  0.5551690000000  0.5095270000000 1.0
C      1  0.5173120000000  0.4910460000000  0.4438890000000 1.0
C      1  0.4049480000000  0.5144340000000  0.4793340000000 1.0
C      1  0.6109430000000  0.5199550000000  0.5699170000000 1.0
C      1  0.4486800000000  0.5418220000000  0.4207200000000 1.0
C      1  0.4104040000000  0.4956310000000  0.5280910000000 1.0
C      1  0.5456760000000  0.5075150000000  0.5365900000000 1.0
C      1  0.4876150000000  0.5696010000000  0.5124950000000 1.0
C      1  0.4378110000000  0.4356380000000  0.4916560000000 1.0
C      1  0.5430860000000  0.4548430000000  0.4431150000000 1.0
C      1  0.4586280000000  0.5587650000000  0.5563330000000 1.0
C      1  0.4954140000000  0.5904360000000  0.4603020000000 1.0
C      1  0.5863520000000  0.5237620000000  0.5617040000000 1.0
C      1  0.4070460000000  0.4870100000000  0.4893170000000 1.0
C      1  0.5550990000000  0.4733750000000  0.4265080000000 1.0
C      1  0.5551250000000  0.4115600000000  0.4682440000000 1.0
C      1  0.5415730000000  0.5218750000000  0.5088630000000 1.0
C      1  0.4622330000000  0.4309240000000  0.5620680000000 1.0
C      1  0.5011000000000  0.4682840000000  0.5784710000000 1.0
C      1  0.4999590000000  0.5444850000000  0.4160010000000 1.0
C      1  0.4525020000000  0.4281380000000  0.4649500000000 1.0
C      1  0.5011580000000  0.5005760000000  0.4722850000000 1.0
C      1  0.4069160000000  0.4674380000000  0.5166720000000 1.0
C      1  0.5962240000000  0.5743400000000  0.5074090000000 1.0
C      1  0.4477710000000  0.4182760000000  0.5184890000000 1.0
C      1  0.5430490000000  0.5477970000000  0.5605870000000 1.0
C      1  0.4597170000000  0.5312650000000  0.4493330000000 1.0
C      1  0.4369670000000  0.5599270000000  0.4972750000000 1.0
C      1  0.4989500000000  0.4155190000000  0.5308740000000 1.0
C      1  0.4726520000000  0.4844290000000  0.4758490000000 1.0
C      1  0.5237100000000  0.5578150000000  0.4134090000000 1.0
C      1  0.5886510000000  0.5351970000000  0.4496710000000 1.0
C      1  0.5501780000000  0.4270070000000  0.5424220000000 1.0
C      1  0.4483790000000  0.4694090000000  0.4297520000000 1.0
C      1  0.4988700000000  0.5003610000000  0.5769060000000 1.0
END
