TITL C-2847955-7945-691 -0.00499924536592327 125000 -923.635470901621 0 0 173 (C1) n - 1
REM
REM in /home/bkarasulu/work/CARBON/AIRSS/Generating-Clusters/AIREBO/with-SteepDescent/Only-C1/SD-CG-opt/Try1-1.4A-POS3A/HFTN-CG
REM
REM
REM
REM
REM
REM ./C.cell (11c1c37f851c82e70ff6c80c92926a4b)
REM
REM compiler GCC version 9.2.1 20190827 (Red Hat 9.2.1-1)
REM options -cpp -mtune=generic -march=x86-64 -g -O0 -fpre-include=/usr/include/finclude/math-vector-fortran.h
REM seed -1623404738 -603362191 1235156468 -921936296 -656998629 -752731176 -48338233 1609507197 1680834929 621970339 232088679 -1769264922 576358843 -463713951 1171856477 -2062242346 82139710 1565356612 -1593793356 -1673271889 1118951381 1615389979 2050930525 -1376746985 -1887786248 -522322805 -852277756 -1081973171 364978300 -1196556331 1604309794 -2002502565 1144308131
REM
CELL 1.54180   50.00000   50.00000   50.00000   90.00000   90.00000   90.00000
LATT -1
SFAC C  
C      1  0.5073760000000  0.4258500000000  0.4265930000000 1.0
C      1  0.5902760000000  0.4597020000000  0.4803500000000 1.0
C      1  0.5179740000000  0.4138620000000  0.5718010000000 1.0
C      1  0.4973670000000  0.4784860000000  0.4777820000000 1.0
C      1  0.5614240000000  0.5048180000000  0.4898700000000 1.0
C      1  0.6001290000000  0.5126380000000  0.4841700000000 1.0
C      1  0.5326400000000  0.5470080000000  0.4168770000000 1.0
C      1  0.5057440000000  0.4550180000000  0.4113820000000 1.0
C      1  0.4624120000000  0.5303220000000  0.4984800000000 1.0
C      1  0.5349900000000  0.4385160000000  0.4114230000000 1.0
C      1  0.4279540000000  0.4495890000000  0.4385840000000 1.0
C      1  0.4841840000000  0.4712810000000  0.5034440000000 1.0
C      1  0.4456940000000  0.4619100000000  0.5753360000000 1.0
C      1  0.4246380000000  0.5186940000000  0.5030550000000 1.0
C      1  0.5198220000000  0.5457640000000  0.5451160000000 1.0
C      1  0.4065410000000  0.4709780000000  0.4509900000000 1.0
C      1  0.5025900000000  0.4628640000000  0.5974700000000 1.0
C      1  0.4457110000000  0.5884890000000  0.5623860000000 1.0
C      1  0.4313880000000  0.5454590000000  0.4215160000000 1.0
C      1  0.5694230000000  0.5234140000000  0.5803540000000 1.0
C      1  0.5794690000000  0.5308540000000  0.5242930000000 1.0
C      1  0.4935890000000  0.4248650000000  0.4541390000000 1.0
C      1  0.4245410000000  0.4184630000000  0.5325880000000 1.0
C      1  0.4331940000000  0.5315390000000  0.5334250000000 1.0
C      1  0.5784200000000  0.4425860000000  0.4551540000000 1.0
C      1  0.4561230000000  0.5189910000000  0.5849030000000 1.0
C      1  0.5708040000000  0.5463330000000  0.5600280000000 1.0
C      1  0.4442600000000  0.4852190000000  0.4715150000000 1.0
C      1  0.5065980000000  0.5928690000000  0.4633450000000 1.0
C      1  0.5557910000000  0.4928560000000  0.5871190000000 1.0
C      1  0.5514690000000  0.4713100000000  0.5233670000000 1.0
C      1  0.5688500000000  0.5967450000000  0.5259900000000 1.0
C      1  0.4716840000000  0.5632650000000  0.5188170000000 1.0
C      1  0.5664550000000  0.4396330000000  0.4942790000000 1.0
C      1  0.5701610000000  0.5538780000000  0.4460250000000 1.0
C      1  0.5043970000000  0.4359780000000  0.5882080000000 1.0
C      1  0.4613500000000  0.4640560000000  0.5245440000000 1.0
C      1  0.5563310000000  0.3889180000000  0.4687570000000 1.0
C      1  0.5590840000000  0.4210700000000  0.4667630000000 1.0
C      1  0.5277020000000  0.4119560000000  0.4702560000000 1.0
C      1  0.5091400000000  0.5070680000000  0.5329670000000 1.0
C      1  0.5319040000000  0.4860850000000  0.5470620000000 1.0
C      1  0.6019910000000  0.5168650000000  0.4528060000000 1.0
C      1  0.4108970000000  0.5295140000000  0.5590300000000 1.0
C      1  0.6085600000000  0.5278740000000  0.5401890000000 1.0
C      1  0.5765700000000  0.4325540000000  0.5668090000000 1.0
C      1  0.4874810000000  0.5118880000000  0.5962220000000 1.0
C      1  0.4852030000000  0.5262790000000  0.5429500000000 1.0
C      1  0.4594790000000  0.4580490000000  0.4309410000000 1.0
C      1  0.4574400000000  0.4392110000000  0.5016490000000 1.0
C      1  0.4407370000000  0.5623650000000  0.5716590000000 1.0
C      1  0.4876570000000  0.5692500000000  0.4500370000000 1.0
C      1  0.4760030000000  0.5741470000000  0.4805690000000 1.0
C      1  0.4714800000000  0.5061610000000  0.5192210000000 1.0
C      1  0.4779840000000  0.5402210000000  0.6103730000000 1.0
C      1  0.5823830000000  0.4875890000000  0.4716630000000 1.0
C      1  0.4499030000000  0.5666390000000  0.4627730000000 1.0
C      1  0.5912330000000  0.4203250000000  0.5051630000000 1.0
C      1  0.4714510000000  0.4757960000000  0.6021860000000 1.0
C      1  0.4486820000000  0.5388590000000  0.6114780000000 1.0
C      1  0.4384820000000  0.4538460000000  0.5449460000000 1.0
C      1  0.4757020000000  0.4552960000000  0.5682620000000 1.0
C      1  0.5827720000000  0.6124960000000  0.5435780000000 1.0
C      1  0.5344420000000  0.5276690000000  0.5992490000000 1.0
C      1  0.4381590000000  0.4921270000000  0.4395380000000 1.0
C      1  0.3968380000000  0.5011570000000  0.4940820000000 1.0
C      1  0.6100840000000  0.4618990000000  0.5038960000000 1.0
C      1  0.4972550000000  0.5549120000000  0.5950110000000 1.0
C      1  0.5171550000000  0.5240720000000  0.3881630000000 1.0
C      1  0.5463840000000  0.5654070000000  0.4377180000000 1.0
C      1  0.4017220000000  0.5232870000000  0.4706770000000 1.0
C      1  0.5255980000000  0.4808290000000  0.5986340000000 1.0
C      1  0.5481080000000  0.4689260000000  0.4548280000000 1.0
C      1  0.4143500000000  0.4984060000000  0.5725130000000 1.0
C      1  0.4608600000000  0.5736770000000  0.4314300000000 1.0
C      1  0.4379000000000  0.5020580000000  0.5497030000000 1.0
C      1  0.4981290000000  0.3955940000000  0.4687600000000 1.0
C      1  0.5562540000000  0.6053790000000  0.5031040000000 1.0
C      1  0.5066200000000  0.4090850000000  0.5460530000000 1.0
C      1  0.5368530000000  0.5868350000000  0.4522430000000 1.0
C      1  0.5022910000000  0.5336420000000  0.4257000000000 1.0
C      1  0.5094160000000  0.3864690000000  0.4948660000000 1.0
C      1  0.6023720000000  0.5089430000000  0.5139000000000 1.0
C      1  0.3837970000000  0.5008150000000  0.5236080000000 1.0
C      1  0.5765260000000  0.4575070000000  0.4296090000000 1.0
C      1  0.6048110000000  0.4711860000000  0.5263500000000 1.0
C      1  0.4710300000000  0.4718000000000  0.4573300000000 1.0
C      1  0.4495260000000  0.5909470000000  0.5355590000000 1.0
C      1  0.4438310000000  0.4900810000000  0.5873950000000 1.0
C      1  0.4022890000000  0.4713570000000  0.4811660000000 1.0
C      1  0.4356170000000  0.4663400000000  0.4094280000000 1.0
C      1  0.4778760000000  0.5957610000000  0.5173730000000 1.0
C      1  0.4459980000000  0.4252670000000  0.4545320000000 1.0
C      1  0.5100070000000  0.5530700000000  0.3922360000000 1.0
C      1  0.4292020000000  0.4537410000000  0.4921930000000 1.0
C      1  0.5886680000000  0.5667500000000  0.4662050000000 1.0
C      1  0.5069830000000  0.5861490000000  0.5026390000000 1.0
C      1  0.5286690000000  0.5169190000000  0.5092920000000 1.0
C      1  0.5467880000000  0.5264210000000  0.5475470000000 1.0
C      1  0.5641270000000  0.4239130000000  0.5445470000000 1.0
C      1  0.4082740000000  0.4396400000000  0.5230920000000 1.0
C      1  0.5216890000000  0.4624060000000  0.4404990000000 1.0
C      1  0.3975250000000  0.5486370000000  0.4901830000000 1.0
C      1  0.5154900000000  0.5063440000000  0.6058590000000 1.0
C      1  0.5861500000000  0.4948630000000  0.5402690000000 1.0
C      1  0.4376410000000  0.5627150000000  0.5205180000000 1.0
C      1  0.5583370000000  0.5289080000000  0.4064250000000 1.0
C      1  0.4259580000000  0.5815550000000  0.4772750000000 1.0
C      1  0.5395290000000  0.5591290000000  0.5259600000000 1.0
C      1  0.5607680000000  0.5087280000000  0.3882130000000 1.0
C      1  0.4643060000000  0.4887210000000  0.5459870000000 1.0
C      1  0.5427660000000  0.4978520000000  0.4651560000000 1.0
C      1  0.5472880000000  0.4375550000000  0.5222990000000 1.0
C      1  0.4694320000000  0.4427670000000  0.4700230000000 1.0
C      1  0.5567200000000  0.4562550000000  0.4086090000000 1.0
C      1  0.4567220000000  0.4928940000000  0.4119530000000 1.0
C      1  0.5786980000000  0.4820630000000  0.5680920000000 1.0
C      1  0.4791140000000  0.5396640000000  0.4576420000000 1.0
C      1  0.5704380000000  0.5630580000000  0.5304020000000 1.0
C      1  0.4006870000000  0.4894340000000  0.5427950000000 1.0
C      1  0.4322790000000  0.4858000000000  0.5030930000000 1.0
C      1  0.3973540000000  0.4413860000000  0.4951090000000 1.0
C      1  0.5165770000000  0.5265600000000  0.4557400000000 1.0
C      1  0.5395600000000  0.5132950000000  0.4380100000000 1.0
C      1  0.5084360000000  0.4502070000000  0.4660480000000 1.0
C      1  0.4841650000000  0.5587660000000  0.4116590000000 1.0
C      1  0.5803200000000  0.5652310000000  0.4979410000000 1.0
C      1  0.5576450000000  0.5047740000000  0.5236600000000 1.0
C      1  0.5125840000000  0.5358440000000  0.4856960000000 1.0
C      1  0.4963420000000  0.4550720000000  0.5437170000000 1.0
C      1  0.5520780000000  0.5370910000000  0.4950960000000 1.0
C      1  0.5240820000000  0.5532560000000  0.6034040000000 1.0
C      1  0.4985290000000  0.4781960000000  0.5282440000000 1.0
C      1  0.5725630000000  0.5213530000000  0.4363710000000 1.0
C      1  0.4275110000000  0.5293270000000  0.4493380000000 1.0
C      1  0.5329570000000  0.5980440000000  0.4842050000000 1.0
C      1  0.5283740000000  0.5022550000000  0.4105790000000 1.0
C      1  0.4570170000000  0.5363340000000  0.5572390000000 1.0
C      1  0.4807240000000  0.4886810000000  0.5722980000000 1.0
C      1  0.5453850000000  0.4657840000000  0.4889120000000 1.0
C      1  0.4527360000000  0.4173110000000  0.5272440000000 1.0
C      1  0.5189090000000  0.4190830000000  0.5165670000000 1.0
C      1  0.4827050000000  0.4166210000000  0.4987470000000 1.0
C      1  0.4181140000000  0.4700550000000  0.5281330000000 1.0
C      1  0.4907710000000  0.4370750000000  0.5229490000000 1.0
C      1  0.4940750000000  0.5485800000000  0.5670390000000 1.0
C      1  0.5870300000000  0.4568800000000  0.5728990000000 1.0
C      1  0.4847750000000  0.6064510000000  0.4858430000000 1.0
C      1  0.4965280000000  0.4833600000000  0.4380220000000 1.0
C      1  0.4865030000000  0.5488770000000  0.4955350000000 1.0
C      1  0.4653050000000  0.4036330000000  0.4725530000000 1.0
C      1  0.5505620000000  0.4814160000000  0.3966380000000 1.0
C      1  0.4891370000000  0.5072100000000  0.4611090000000 1.0
C      1  0.4382350000000  0.5396260000000  0.4799220000000 1.0
C      1  0.4542010000000  0.5441450000000  0.4059320000000 1.0
C      1  0.5730530000000  0.4877010000000  0.4413220000000 1.0
C      1  0.4964630000000  0.4959370000000  0.4094380000000 1.0
C      1  0.5282580000000  0.5612120000000  0.4977800000000 1.0
C      1  0.4248450000000  0.4380120000000  0.5705050000000 1.0
C      1  0.5245740000000  0.4389120000000  0.4899630000000 1.0
C      1  0.4787660000000  0.4670880000000  0.4061800000000 1.0
C      1  0.4937750000000  0.5669170000000  0.5400540000000 1.0
C      1  0.4584930000000  0.5153300000000  0.4487930000000 1.0
C      1  0.5820160000000  0.5375670000000  0.4805560000000 1.0
C      1  0.4663870000000  0.5022730000000  0.4858960000000 1.0
C      1  0.4070440000000  0.5027150000000  0.4432350000000 1.0
C      1  0.4160280000000  0.5672250000000  0.4983560000000 1.0
C      1  0.4742490000000  0.4087300000000  0.5454930000000 1.0
C      1  0.5233990000000  0.4917160000000  0.4893660000000 1.0
C      1  0.5333880000000  0.5097160000000  0.5703900000000 1.0
C      1  0.4144580000000  0.5513890000000  0.5753550000000 1.0
C      1  0.4793930000000  0.4239560000000  0.5711930000000 1.0
C      1  0.4755900000000  0.5200140000000  0.4092790000000 1.0
END
