TITL C-2847958-8115-447 0.00342500304353859 125000 -890.871309620342 0 0 170 (C1) n - 1
REM
REM in /home/bkarasulu/work/CARBON/AIRSS/Generating-Clusters/AIREBO/with-SteepDescent/Only-C1/SD-CG-opt/Try1-1.4A-POS3A/HFTN-CG
REM
REM
REM
REM
REM
REM ./C.cell (11c1c37f851c82e70ff6c80c92926a4b)
REM
REM compiler GCC version 9.2.1 20190827 (Red Hat 9.2.1-1)
REM options -cpp -mtune=generic -march=x86-64 -g -O0 -fpre-include=/usr/include/finclude/math-vector-fortran.h
REM seed -1021390120 -364016893 849391848 104718811 -158905938 1705040756 -1758942422 -429536851 -814908878 1035070457 1782399342 1519416227 -1426618449 -1806612546 705295089 -558419122 -1011738812 47255048 -87352273 1107284367 -1779374272 -801994973 554289748 2039334318 647420008 1078736299 -1284879277 -4497775 -458677609 -1891078617 -311380848 1762807369 -708382301
REM
CELL 1.54180   50.00000   50.00000   50.00000   90.00000   90.00000   90.00000
LATT -1
SFAC C  
C      1  0.5203950000000  0.5456140000000  0.5415340000000 1.0
C      1  0.5978030000000  0.4938200000000  0.5325650000000 1.0
C      1  0.4745390000000  0.5712730000000  0.5475370000000 1.0
C      1  0.4992360000000  0.5005310000000  0.3972550000000 1.0
C      1  0.4267080000000  0.4327860000000  0.5402680000000 1.0
C      1  0.5245480000000  0.5163300000000  0.5344790000000 1.0
C      1  0.4953640000000  0.4837380000000  0.4766550000000 1.0
C      1  0.5755360000000  0.5676230000000  0.4890620000000 1.0
C      1  0.4082180000000  0.5507130000000  0.5195860000000 1.0
C      1  0.4172290000000  0.5548730000000  0.4916420000000 1.0
C      1  0.4635920000000  0.5734080000000  0.5156750000000 1.0
C      1  0.4489060000000  0.5082090000000  0.5606280000000 1.0
C      1  0.5175100000000  0.5952100000000  0.4902970000000 1.0
C      1  0.5844190000000  0.4683060000000  0.5182880000000 1.0
C      1  0.5322860000000  0.5640150000000  0.5748750000000 1.0
C      1  0.5468160000000  0.4606230000000  0.6009540000000 1.0
C      1  0.4382640000000  0.4569830000000  0.5108340000000 1.0
C      1  0.4103000000000  0.4868620000000  0.4498870000000 1.0
C      1  0.4790650000000  0.5241840000000  0.5146400000000 1.0
C      1  0.5525220000000  0.5599370000000  0.5128800000000 1.0
C      1  0.5616810000000  0.4879670000000  0.4904820000000 1.0
C      1  0.4143620000000  0.4998590000000  0.4250480000000 1.0
C      1  0.5622920000000  0.5315380000000  0.5467120000000 1.0
C      1  0.4525710000000  0.4548220000000  0.5416040000000 1.0
C      1  0.5032780000000  0.5484530000000  0.4121750000000 1.0
C      1  0.5065190000000  0.4130650000000  0.4423930000000 1.0
C      1  0.4522980000000  0.4764510000000  0.4034900000000 1.0
C      1  0.4694980000000  0.4770170000000  0.6104300000000 1.0
C      1  0.5390430000000  0.4196920000000  0.5040000000000 1.0
C      1  0.4356390000000  0.5908800000000  0.5213440000000 1.0
C      1  0.5216970000000  0.4222750000000  0.4682640000000 1.0
C      1  0.4594590000000  0.4121970000000  0.5113940000000 1.0
C      1  0.4259980000000  0.4163410000000  0.5136180000000 1.0
C      1  0.5126440000000  0.4494280000000  0.4278780000000 1.0
C      1  0.5266770000000  0.5859300000000  0.4432140000000 1.0
C      1  0.5101250000000  0.5456930000000  0.4892970000000 1.0
C      1  0.4908350000000  0.5522940000000  0.4700030000000 1.0
C      1  0.5951710000000  0.5055120000000  0.4563970000000 1.0
C      1  0.5604580000000  0.4905560000000  0.4246380000000 1.0
C      1  0.4671860000000  0.6050920000000  0.5274870000000 1.0
C      1  0.5761720000000  0.4612430000000  0.4332270000000 1.0
C      1  0.6041990000000  0.4587770000000  0.4927230000000 1.0
C      1  0.4629880000000  0.4775700000000  0.4859310000000 1.0
C      1  0.5438450000000  0.4611310000000  0.4207910000000 1.0
C      1  0.4672090000000  0.5914520000000  0.4870790000000 1.0
C      1  0.5302560000000  0.4699000000000  0.5214300000000 1.0
C      1  0.4348090000000  0.5098620000000  0.4771020000000 1.0
C      1  0.4773880000000  0.5582360000000  0.4122680000000 1.0
C      1  0.5340600000000  0.6005840000000  0.4685940000000 1.0
C      1  0.4482840000000  0.4952320000000  0.5920570000000 1.0
C      1  0.4513790000000  0.4744300000000  0.5637450000000 1.0
C      1  0.5310630000000  0.4962640000000  0.4085310000000 1.0
C      1  0.5046660000000  0.5206890000000  0.4241110000000 1.0
C      1  0.4859360000000  0.5515830000000  0.5862100000000 1.0
C      1  0.4233560000000  0.4300500000000  0.4832110000000 1.0
C      1  0.5301600000000  0.4514120000000  0.4951490000000 1.0
C      1  0.4006310000000  0.4780040000000  0.4777360000000 1.0
C      1  0.5943220000000  0.5198140000000  0.5109250000000 1.0
C      1  0.5071350000000  0.4668290000000  0.5973020000000 1.0
C      1  0.5432690000000  0.5560550000000  0.4448800000000 1.0
C      1  0.5729650000000  0.5553750000000  0.4614320000000 1.0
C      1  0.4193550000000  0.5692810000000  0.5421700000000 1.0
C      1  0.4471900000000  0.4236580000000  0.5658370000000 1.0
C      1  0.5548070000000  0.5251820000000  0.4790500000000 1.0
C      1  0.4713800000000  0.5812240000000  0.5800330000000 1.0
C      1  0.4184070000000  0.5159490000000  0.5555850000000 1.0
C      1  0.4784500000000  0.5853890000000  0.4200850000000 1.0
C      1  0.5023070000000  0.4319040000000  0.4945140000000 1.0
C      1  0.4284840000000  0.5452450000000  0.5655750000000 1.0
C      1  0.4553190000000  0.4375490000000  0.4886940000000 1.0
C      1  0.4498000000000  0.5351700000000  0.5900760000000 1.0
C      1  0.4764210000000  0.4297840000000  0.5686080000000 1.0
C      1  0.5315190000000  0.4801880000000  0.5777300000000 1.0
C      1  0.5448050000000  0.4981850000000  0.5166130000000 1.0
C      1  0.4939740000000  0.4509900000000  0.4676120000000 1.0
C      1  0.5889710000000  0.4854140000000  0.4780600000000 1.0
C      1  0.6017380000000  0.5613180000000  0.5337710000000 1.0
C      1  0.4949230000000  0.6081840000000  0.5341250000000 1.0
C      1  0.4087330000000  0.5198000000000  0.5256720000000 1.0
C      1  0.5081710000000  0.6293170000000  0.5452760000000 1.0
C      1  0.5518220000000  0.4349220000000  0.4614290000000 1.0
C      1  0.5160330000000  0.4992200000000  0.5587700000000 1.0
C      1  0.5303250000000  0.4935940000000  0.4504040000000 1.0
C      1  0.4893260000000  0.4706490000000  0.3895610000000 1.0
C      1  0.4380610000000  0.4725540000000  0.4633370000000 1.0
C      1  0.5075170000000  0.4625010000000  0.5456040000000 1.0
C      1  0.5496180000000  0.4658230000000  0.4539670000000 1.0
C      1  0.5287990000000  0.4837510000000  0.4829190000000 1.0
C      1  0.5790670000000  0.5981370000000  0.4860460000000 1.0
C      1  0.4669410000000  0.4214080000000  0.4605000000000 1.0
C      1  0.4585080000000  0.5463520000000  0.5057510000000 1.0
C      1  0.5693450000000  0.5009200000000  0.5597530000000 1.0
C      1  0.5756240000000  0.4314460000000  0.5297260000000 1.0
C      1  0.4897570000000  0.4033520000000  0.5081260000000 1.0
C      1  0.4848800000000  0.5792070000000  0.4659270000000 1.0
C      1  0.5869000000000  0.4549490000000  0.4631010000000 1.0
C      1  0.4961930000000  0.3866100000000  0.4830560000000 1.0
C      1  0.5288110000000  0.4201650000000  0.4216740000000 1.0
C      1  0.5096570000000  0.4803860000000  0.4296600000000 1.0
C      1  0.4935990000000  0.6072560000000  0.4945230000000 1.0
C      1  0.5953200000000  0.5513160000000  0.5091100000000 1.0
C      1  0.5046520000000  0.5767520000000  0.5730830000000 1.0
C      1  0.4145990000000  0.4640650000000  0.5346970000000 1.0
C      1  0.5241960000000  0.3978740000000  0.4886120000000 1.0
C      1  0.4755060000000  0.5144740000000  0.5986870000000 1.0
C      1  0.5764790000000  0.5420790000000  0.4302630000000 1.0
C      1  0.4391910000000  0.4904110000000  0.5046570000000 1.0
C      1  0.4798040000000  0.4747550000000  0.5792930000000 1.0
C      1  0.4667610000000  0.4597730000000  0.4503340000000 1.0
C      1  0.5037090000000  0.4347660000000  0.5283890000000 1.0
C      1  0.4440820000000  0.4241340000000  0.4382670000000 1.0
C      1  0.5296460000000  0.4257350000000  0.5701040000000 1.0
C      1  0.6120050000000  0.4919060000000  0.5022160000000 1.0
C      1  0.4797450000000  0.4554640000000  0.5041580000000 1.0
C      1  0.5591560000000  0.6118340000000  0.4731750000000 1.0
C      1  0.5483860000000  0.5625730000000  0.5465290000000 1.0
C      1  0.4900030000000  0.5351340000000  0.5411360000000 1.0
C      1  0.4209830000000  0.4823590000000  0.4035220000000 1.0
C      1  0.4714580000000  0.5334460000000  0.5639140000000 1.0
C      1  0.4859150000000  0.4873600000000  0.5483570000000 1.0
C      1  0.5932680000000  0.4762470000000  0.5601890000000 1.0
C      1  0.4602140000000  0.5001500000000  0.5295770000000 1.0
C      1  0.4777380000000  0.4920670000000  0.4307010000000 1.0
C      1  0.4420520000000  0.4560910000000  0.4272680000000 1.0
C      1  0.5578330000000  0.4588320000000  0.5343510000000 1.0
C      1  0.5207700000000  0.5700790000000  0.5087390000000 1.0
C      1  0.5766890000000  0.4285780000000  0.4806040000000 1.0
C      1  0.5250590000000  0.5174030000000  0.4862970000000 1.0
C      1  0.4054170000000  0.4863020000000  0.5471510000000 1.0
C      1  0.4406150000000  0.5278960000000  0.5246070000000 1.0
C      1  0.3870030000000  0.5152800000000  0.4800590000000 1.0
C      1  0.5638660000000  0.5155290000000  0.4476990000000 1.0
C      1  0.5525120000000  0.4389660000000  0.5796910000000 1.0
C      1  0.5035520000000  0.3938460000000  0.5343250000000 1.0
C      1  0.4063000000000  0.4988920000000  0.5027610000000 1.0
C      1  0.5058930000000  0.5101180000000  0.5102150000000 1.0
C      1  0.5337400000000  0.5244870000000  0.4365790000000 1.0
C      1  0.5255690000000  0.5645020000000  0.4174430000000 1.0
C      1  0.5534880000000  0.4189420000000  0.4337250000000 1.0
C      1  0.5043630000000  0.4989960000000  0.5998770000000 1.0
C      1  0.4455640000000  0.5736400000000  0.5610200000000 1.0
C      1  0.4736920000000  0.4499050000000  0.4038740000000 1.0
C      1  0.4667730000000  0.5071910000000  0.4048690000000 1.0
C      1  0.4275740000000  0.5253310000000  0.4223790000000 1.0
C      1  0.5985250000000  0.5347650000000  0.4526040000000 1.0
C      1  0.4821580000000  0.4349400000000  0.4332210000000 1.0
C      1  0.4728510000000  0.4292960000000  0.5356880000000 1.0
C      1  0.4471280000000  0.5491730000000  0.4764830000000 1.0
C      1  0.4223300000000  0.4442490000000  0.4523320000000 1.0
C      1  0.5214760000000  0.4134070000000  0.5454440000000 1.0
C      1  0.4678450000000  0.5321300000000  0.4555500000000 1.0
C      1  0.4130020000000  0.5285130000000  0.4768060000000 1.0
C      1  0.4593080000000  0.5352900000000  0.4226560000000 1.0
C      1  0.4998030000000  0.4799960000000  0.5101630000000 1.0
C      1  0.5905880000000  0.4438330000000  0.5516820000000 1.0
C      1  0.4951190000000  0.5897390000000  0.4426280000000 1.0
C      1  0.4359110000000  0.5807780000000  0.4879620000000 1.0
C      1  0.5418320000000  0.5181110000000  0.5703480000000 1.0
C      1  0.4780780000000  0.3918800000000  0.4636750000000 1.0
C      1  0.5042200000000  0.4440150000000  0.5726670000000 1.0
C      1  0.5070240000000  0.5767970000000  0.5391520000000 1.0
C      1  0.5611320000000  0.5270450000000  0.5124190000000 1.0
C      1  0.3981340000000  0.4515180000000  0.4830260000000 1.0
C      1  0.4938050000000  0.5093890000000  0.4543620000000 1.0
C      1  0.5038880000000  0.5326200000000  0.6048990000000 1.0
C      1  0.5676150000000  0.4200420000000  0.5056040000000 1.0
C      1  0.5604170000000  0.4684090000000  0.5642330000000 1.0
C      1  0.4549400000000  0.5006930000000  0.4544080000000 1.0
C      1  0.5908940000000  0.5471860000000  0.5549450000000 1.0
C      1  0.5305190000000  0.5391820000000  0.5877830000000 1.0
END
