TITL C-2847953-8112-87 -0.000247822296559438 125000 -326.297896652039 0 0 62 (C1) n - 1
REM
REM in /home/bkarasulu/work/CARBON/AIRSS/Generating-Clusters/AIREBO/with-SteepDescent/Only-C1/SD-CG-opt/Try1-1.4A-POS3A/HFTN-CG
REM
REM
REM
REM
REM
REM ./C.cell (11c1c37f851c82e70ff6c80c92926a4b)
REM
REM compiler GCC version 9.2.1 20190827 (Red Hat 9.2.1-1)
REM options -cpp -mtune=generic -march=x86-64 -g -O0 -fpre-include=/usr/include/finclude/math-vector-fortran.h
REM seed 1018705582 1472817592 369831949 2130306323 1879747297 -1436661488 -5230704 -586018248 -1225155201 -784464611 -1449209372 944202352 -1743349562 -146781825 943759495 1490199978 248508509 497240699 -64038348 1813432913 718407936 -1087368872 1720268816 2071432469 -1506693617 313739976 -841144605 2064325160 -153944350 1834178989 -1710929288 -595191523 -1649910234
REM
CELL 1.54180   50.00000   50.00000   50.00000   90.00000   90.00000   90.00000
LATT -1
SFAC C  
C      1  0.4748390000000  0.4862080000000  0.4462540000000 1.0
C      1  0.4804880000000  0.4592060000000  0.4468410000000 1.0
C      1  0.4484940000000  0.5016030000000  0.4578800000000 1.0
C      1  0.5418400000000  0.5397970000000  0.5141470000000 1.0
C      1  0.4798550000000  0.5006840000000  0.5061990000000 1.0
C      1  0.5745580000000  0.5263470000000  0.4957870000000 1.0
C      1  0.4594600000000  0.4923180000000  0.5655690000000 1.0
C      1  0.5511760000000  0.4808050000000  0.4710060000000 1.0
C      1  0.5772870000000  0.5144830000000  0.5216540000000 1.0
C      1  0.5288460000000  0.5497330000000  0.4445960000000 1.0
C      1  0.5224890000000  0.4861790000000  0.4535520000000 1.0
C      1  0.4683790000000  0.4571750000000  0.4904700000000 1.0
C      1  0.5258490000000  0.5650350000000  0.4880410000000 1.0
C      1  0.4614000000000  0.5525560000000  0.5188660000000 1.0
C      1  0.5585070000000  0.5555910000000  0.4890490000000 1.0
C      1  0.5418570000000  0.4662770000000  0.4992950000000 1.0
C      1  0.5143530000000  0.4689850000000  0.4802350000000 1.0
C      1  0.4583190000000  0.5365080000000  0.4935380000000 1.0
C      1  0.5504600000000  0.5622320000000  0.4566650000000 1.0
C      1  0.4426380000000  0.5074390000000  0.4901390000000 1.0
C      1  0.5286730000000  0.4185270000000  0.5117060000000 1.0
C      1  0.4853320000000  0.4510190000000  0.5193150000000 1.0
C      1  0.4671460000000  0.5512550000000  0.4653870000000 1.0
C      1  0.4563740000000  0.4515080000000  0.5373340000000 1.0
C      1  0.4296400000000  0.4568000000000  0.5177290000000 1.0
C      1  0.5615220000000  0.4960560000000  0.5352770000000 1.0
C      1  0.5294400000000  0.5494460000000  0.5417940000000 1.0
C      1  0.5099600000000  0.4895910000000  0.5054850000000 1.0
C      1  0.4734460000000  0.4373960000000  0.5602690000000 1.0
C      1  0.5392670000000  0.4195030000000  0.4802020000000 1.0
C      1  0.4684450000000  0.5356990000000  0.5467640000000 1.0
C      1  0.5360530000000  0.5229650000000  0.4860920000000 1.0
C      1  0.5074630000000  0.4260270000000  0.5269010000000 1.0
C      1  0.5514790000000  0.4383790000000  0.5027420000000 1.0
C      1  0.5003530000000  0.4394690000000  0.5543830000000 1.0
C      1  0.5064810000000  0.4688250000000  0.5391310000000 1.0
C      1  0.5271130000000  0.4348850000000  0.4596320000000 1.0
C      1  0.4991830000000  0.5076180000000  0.4510500000000 1.0
C      1  0.4525040000000  0.4794110000000  0.5066770000000 1.0
C      1  0.4451690000000  0.4803040000000  0.5458760000000 1.0
C      1  0.5062180000000  0.5015260000000  0.5461940000000 1.0
C      1  0.4755620000000  0.5462730000000  0.4335410000000 1.0
C      1  0.5046330000000  0.5709380000000  0.5381420000000 1.0
C      1  0.5354280000000  0.4814230000000  0.5264930000000 1.0
C      1  0.4853750000000  0.4285270000000  0.4925310000000 1.0
C      1  0.5016520000000  0.5350430000000  0.4304290000000 1.0
C      1  0.5407640000000  0.4577390000000  0.4488480000000 1.0
C      1  0.4499990000000  0.5296200000000  0.4454150000000 1.0
C      1  0.4984930000000  0.4440420000000  0.4678890000000 1.0
C      1  0.5252010000000  0.5265680000000  0.5575470000000 1.0
C      1  0.5599710000000  0.5078220000000  0.4775440000000 1.0
C      1  0.5142250000000  0.5205160000000  0.5190060000000 1.0
C      1  0.4298930000000  0.4994700000000  0.5222590000000 1.0
C      1  0.5043200000000  0.5520130000000  0.5109130000000 1.0
C      1  0.4794730000000  0.5094830000000  0.5596850000000 1.0
C      1  0.4949730000000  0.5536570000000  0.4791070000000 1.0
C      1  0.5158820000000  0.5323010000000  0.4674200000000 1.0
C      1  0.4755370000000  0.5771160000000  0.5216480000000 1.0
C      1  0.4586730000000  0.5135180000000  0.5261300000000 1.0
C      1  0.4464320000000  0.4693650000000  0.4685430000000 1.0
C      1  0.4811510000000  0.5162450000000  0.4785630000000 1.0
C      1  0.4800070000000  0.5629510000000  0.5586240000000 1.0
END
