TITL C-2847956-8218-650 -0.00115473868251415 125000 -303.30110414459 0 0 58 (C1) n - 1
REM
REM in /home/bkarasulu/work/CARBON/AIRSS/Generating-Clusters/AIREBO/with-SteepDescent/Only-C1/SD-CG-opt/Try1-1.4A-POS3A/HFTN-CG
REM
REM
REM
REM
REM
REM ./C.cell (11c1c37f851c82e70ff6c80c92926a4b)
REM
REM compiler GCC version 9.2.1 20190827 (Red Hat 9.2.1-1)
REM options -cpp -mtune=generic -march=x86-64 -g -O0 -fpre-include=/usr/include/finclude/math-vector-fortran.h
REM seed -1689452242 -457599674 -1264956435 1927238375 -2056762410 -781164423 -129752325 -1180821281 778018925 338145402 -1295768070 1831211934 1305445354 -1419035870 2075567506 -935589061 -131855515 1099959132 -1446102822 -1743506223 -1338413326 1261610235 -723851854 2082961120 -149239200 1245948779 1639697689 -1044625280 -855607904 1555150870 -322741704 -1052237290 -982938353
REM
CELL 1.54180   50.00000   50.00000   50.00000   90.00000   90.00000   90.00000
LATT -1
SFAC C  
C      1  0.5390400000000  0.4993040000000  0.5032570000000 1.0
C      1  0.4738380000000  0.5195500000000  0.5026910000000 1.0
C      1  0.5085830000000  0.4814880000000  0.4191170000000 1.0
C      1  0.4948780000000  0.4250190000000  0.5081700000000 1.0
C      1  0.5210920000000  0.5424160000000  0.4608930000000 1.0
C      1  0.5656500000000  0.4728590000000  0.4895950000000 1.0
C      1  0.5022570000000  0.5002280000000  0.5301940000000 1.0
C      1  0.4645140000000  0.4730250000000  0.4483410000000 1.0
C      1  0.4971300000000  0.4705600000000  0.4458560000000 1.0
C      1  0.4840650000000  0.4218670000000  0.5332120000000 1.0
C      1  0.4788000000000  0.4584760000000  0.4935180000000 1.0
C      1  0.5045280000000  0.4948840000000  0.4665920000000 1.0
C      1  0.5109620000000  0.4602400000000  0.5398120000000 1.0
C      1  0.5032560000000  0.4286850000000  0.4778130000000 1.0
C      1  0.4200370000000  0.5179160000000  0.5084480000000 1.0
C      1  0.5009130000000  0.5330750000000  0.5727660000000 1.0
C      1  0.4582340000000  0.4698800000000  0.5099970000000 1.0
C      1  0.5261940000000  0.5292520000000  0.5130260000000 1.0
C      1  0.4818910000000  0.5679980000000  0.4781220000000 1.0
C      1  0.5194270000000  0.5045170000000  0.4207860000000 1.0
C      1  0.5344760000000  0.5462640000000  0.4847760000000 1.0
C      1  0.4848030000000  0.4478610000000  0.5520040000000 1.0
C      1  0.5389450000000  0.4743260000000  0.5265950000000 1.0
C      1  0.4955230000000  0.5675710000000  0.5031810000000 1.0
C      1  0.4333600000000  0.5150560000000  0.4574340000000 1.0
C      1  0.5126680000000  0.4526820000000  0.4669880000000 1.0
C      1  0.4686290000000  0.4962480000000  0.5268980000000 1.0
C      1  0.4940740000000  0.5389740000000  0.5170530000000 1.0
C      1  0.4373160000000  0.5093420000000  0.5247590000000 1.0
C      1  0.5185700000000  0.5790730000000  0.5161050000000 1.0
C      1  0.5010480000000  0.4874560000000  0.4995930000000 1.0
C      1  0.5355510000000  0.5590610000000  0.5264550000000 1.0
C      1  0.5346840000000  0.4325050000000  0.5078070000000 1.0
C      1  0.4546870000000  0.4979620000000  0.4571350000000 1.0
C      1  0.4948110000000  0.5523370000000  0.4575780000000 1.0
C      1  0.5734790000000  0.4839190000000  0.4643000000000 1.0
C      1  0.4898800000000  0.5034380000000  0.5599960000000 1.0
C      1  0.5265420000000  0.5138310000000  0.4499570000000 1.0
C      1  0.5327030000000  0.5109900000000  0.5409580000000 1.0
C      1  0.5651060000000  0.5021080000000  0.5378290000000 1.0
C      1  0.4640290000000  0.4742410000000  0.5514430000000 1.0
C      1  0.5707550000000  0.4800370000000  0.5178230000000 1.0
C      1  0.4772240000000  0.5311600000000  0.4502810000000 1.0
C      1  0.4287220000000  0.5342450000000  0.4810530000000 1.0
C      1  0.5266980000000  0.4827600000000  0.5572300000000 1.0
C      1  0.4870350000000  0.5408080000000  0.5461040000000 1.0
C      1  0.4884140000000  0.4742920000000  0.5733520000000 1.0
C      1  0.5100590000000  0.4554100000000  0.5065660000000 1.0
C      1  0.4340730000000  0.4601950000000  0.5139600000000 1.0
C      1  0.4778690000000  0.5097010000000  0.4744960000000 1.0
C      1  0.5648920000000  0.5445600000000  0.4886700000000 1.0
C      1  0.5555940000000  0.5068000000000  0.4568610000000 1.0
C      1  0.4521220000000  0.5407390000000  0.5028340000000 1.0
C      1  0.4639420000000  0.5254230000000  0.5601100000000 1.0
C      1  0.4534840000000  0.5611780000000  0.4806060000000 1.0
C      1  0.5596230000000  0.5152540000000  0.4848380000000 1.0
C      1  0.5341110000000  0.4696870000000  0.4872150000000 1.0
C      1  0.4692060000000  0.4512670000000  0.4669490000000 1.0
END
