TITL C-2847950-6905-114 0.00264063514888997 125000 -489.246539820715 0 0 89 (C1) n - 1
REM
REM in /home/bkarasulu/work/CARBON/AIRSS/Generating-Clusters/AIREBO/with-SteepDescent/Only-C1/SD-CG-opt/Try1-1.4A-POS3A/HFTN-CG
REM
REM
REM
REM
REM
REM ./C.cell (11c1c37f851c82e70ff6c80c92926a4b)
REM
REM compiler GCC version 9.2.1 20190827 (Red Hat 9.2.1-1)
REM options -cpp -mtune=generic -march=x86-64 -g -O0 -fpre-include=/usr/include/finclude/math-vector-fortran.h
REM seed 35244791 -156887361 1047677588 1380294749 -642605086 -302901855 -644725578 407457587 456879815 -339818371 -1073082773 46213084 -1539709811 -1483775111 2071538501 -697302498 -1574506472 1929329183 -357966720 -540640708 1755349071 -1479077034 645491824 -1646913082 -1036354096 1022561717 -787915953 294141000 2138521523 -471459966 -1137529205 1310933242 1218311561
REM
CELL 1.54180   50.00000   50.00000   50.00000   90.00000   90.00000   90.00000
LATT -1
SFAC C  
C      1  0.5231370000000  0.5169230000000  0.4413790000000 1.0
C      1  0.5008460000000  0.4698560000000  0.4214020000000 1.0
C      1  0.5622950000000  0.5054290000000  0.4387750000000 1.0
C      1  0.5033790000000  0.4703830000000  0.4822990000000 1.0
C      1  0.5146600000000  0.5093820000000  0.5419580000000 1.0
C      1  0.5217080000000  0.4883550000000  0.4229160000000 1.0
C      1  0.5098120000000  0.4127180000000  0.5275900000000 1.0
C      1  0.5662570000000  0.4672790000000  0.4957670000000 1.0
C      1  0.4941650000000  0.5089240000000  0.5929490000000 1.0
C      1  0.5594940000000  0.4825880000000  0.5661320000000 1.0
C      1  0.4796180000000  0.4902610000000  0.4682230000000 1.0
C      1  0.5155270000000  0.5485360000000  0.5025490000000 1.0
C      1  0.5128460000000  0.5287760000000  0.5892600000000 1.0
C      1  0.5179700000000  0.4150470000000  0.4952470000000 1.0
C      1  0.4260790000000  0.4639470000000  0.4919500000000 1.0
C      1  0.4822020000000  0.5593100000000  0.4325510000000 1.0
C      1  0.4772410000000  0.5313820000000  0.5552330000000 1.0
C      1  0.4941020000000  0.5053380000000  0.4456940000000 1.0
C      1  0.4754260000000  0.4502340000000  0.5155720000000 1.0
C      1  0.4167770000000  0.4980580000000  0.5290120000000 1.0
C      1  0.4959080000000  0.4457470000000  0.4629990000000 1.0
C      1  0.4358600000000  0.5317600000000  0.4443870000000 1.0
C      1  0.5406610000000  0.5290440000000  0.5726750000000 1.0
C      1  0.4833100000000  0.4557170000000  0.5811370000000 1.0
C      1  0.5455320000000  0.5660740000000  0.4796110000000 1.0
C      1  0.5589620000000  0.5221770000000  0.4980250000000 1.0
C      1  0.5418630000000  0.4587810000000  0.5682680000000 1.0
C      1  0.5059600000000  0.4617490000000  0.5152400000000 1.0
C      1  0.4550900000000  0.5593590000000  0.5184710000000 1.0
C      1  0.4829410000000  0.4997470000000  0.6160370000000 1.0
C      1  0.4269760000000  0.4977010000000  0.4961910000000 1.0
C      1  0.5477390000000  0.5614700000000  0.5259800000000 1.0
C      1  0.4209530000000  0.5311360000000  0.4977070000000 1.0
C      1  0.4076320000000  0.5230190000000  0.4482750000000 1.0
C      1  0.5450210000000  0.4837800000000  0.4407520000000 1.0
C      1  0.4887870000000  0.5774930000000  0.4857840000000 1.0
C      1  0.5374940000000  0.4854950000000  0.4956050000000 1.0
C      1  0.4419790000000  0.5162030000000  0.5282360000000 1.0
C      1  0.4387900000000  0.4551300000000  0.4638910000000 1.0
C      1  0.4554260000000  0.5140510000000  0.4659230000000 1.0
C      1  0.5574410000000  0.5135820000000  0.5587540000000 1.0
C      1  0.4587760000000  0.4696810000000  0.5245720000000 1.0
C      1  0.4574290000000  0.5379850000000  0.5373050000000 1.0
C      1  0.5651460000000  0.4350840000000  0.4884530000000 1.0
C      1  0.4747800000000  0.5389800000000  0.4143460000000 1.0
C      1  0.4889650000000  0.5377110000000  0.4842930000000 1.0
C      1  0.5497410000000  0.5374370000000  0.4356260000000 1.0
C      1  0.4591620000000  0.5454950000000  0.4737910000000 1.0
C      1  0.5025140000000  0.4804290000000  0.5434590000000 1.0
C      1  0.4913630000000  0.4238110000000  0.4804510000000 1.0
C      1  0.4257630000000  0.4978500000000  0.4622040000000 1.0
C      1  0.5900190000000  0.5201810000000  0.4842690000000 1.0
C      1  0.5429990000000  0.4236320000000  0.4763590000000 1.0
C      1  0.5330150000000  0.4701590000000  0.4655820000000 1.0
C      1  0.4435770000000  0.4942130000000  0.4334420000000 1.0
C      1  0.5310390000000  0.5564070000000  0.4553130000000 1.0
C      1  0.5106150000000  0.4554690000000  0.5650840000000 1.0
C      1  0.5168260000000  0.5584780000000  0.5350440000000 1.0
C      1  0.5196920000000  0.5149900000000  0.4958860000000 1.0
C      1  0.4614570000000  0.5661030000000  0.4513970000000 1.0
C      1  0.5324700000000  0.4409100000000  0.5107730000000 1.0
C      1  0.5106190000000  0.5377330000000  0.5565300000000 1.0
C      1  0.4659880000000  0.4745130000000  0.5705920000000 1.0
C      1  0.5654760000000  0.4386060000000  0.5194320000000 1.0
C      1  0.4425850000000  0.4347500000000  0.4872890000000 1.0
C      1  0.4839140000000  0.4571400000000  0.4400180000000 1.0
C      1  0.4689250000000  0.4305500000000  0.4972480000000 1.0
C      1  0.4955300000000  0.5812670000000  0.5326500000000 1.0
C      1  0.4585960000000  0.4963920000000  0.5086370000000 1.0
C      1  0.5348600000000  0.4399580000000  0.4563280000000 1.0
C      1  0.5452760000000  0.4557860000000  0.5375420000000 1.0
C      1  0.5782690000000  0.4945020000000  0.5398230000000 1.0
C      1  0.5401680000000  0.5187890000000  0.4692370000000 1.0
C      1  0.4562050000000  0.5200440000000  0.4238570000000 1.0
C      1  0.5385990000000  0.5133810000000  0.5236760000000 1.0
C      1  0.4832420000000  0.4998100000000  0.5646980000000 1.0
C      1  0.4405590000000  0.5500680000000  0.4962520000000 1.0
C      1  0.4199010000000  0.4779530000000  0.5485370000000 1.0
C      1  0.5567280000000  0.5531560000000  0.5016810000000 1.0
C      1  0.4582000000000  0.4716670000000  0.4494680000000 1.0
C      1  0.4998340000000  0.5584470000000  0.4595990000000 1.0
C      1  0.4470220000000  0.4697240000000  0.5503670000000 1.0
C      1  0.5710920000000  0.5286090000000  0.4605760000000 1.0
C      1  0.5193710000000  0.5788800000000  0.4876810000000 1.0
C      1  0.4864310000000  0.5078940000000  0.4955730000000 1.0
C      1  0.4767420000000  0.5766530000000  0.5117420000000 1.0
C      1  0.5049430000000  0.4375070000000  0.5393540000000 1.0
C      1  0.5485350000000  0.4833180000000  0.5277000000000 1.0
C      1  0.5791750000000  0.4959570000000  0.5058610000000 1.0
END
