TITL C-2847950-6905-522 -876.450678267668 125000 -283.655308444214 0 0 51 (C1) n - 1
REM
REM in /home/bkarasulu/work/CARBON/AIRSS/Generating-Clusters/AIREBO/with-SteepDescent/Only-C1/SD-CG-opt/Try1-1.4A-POS3A/HFTN-CG
REM
REM
REM
REM
REM
REM ./C.cell (11c1c37f851c82e70ff6c80c92926a4b)
REM
REM compiler GCC version 9.2.1 20190827 (Red Hat 9.2.1-1)
REM options -cpp -mtune=generic -march=x86-64 -g -O0 -fpre-include=/usr/include/finclude/math-vector-fortran.h
REM seed -326269228 -635071052 2081639732 871625390 2117458820 1889373598 561197548 1458979748 -735923662 -1920479352 -867237710 1624015869 -1887509844 1872386921 -800872159 -712853855 265986908 1940377704 1472675303 -1648405130 -1820109988 -80016974 936823844 763743729 -1772384763 645209562 320861105 -788113707 -1488750595 465031763 36579264 -1062530300 498118920
REM
CELL 1.54180   50.00000   50.00000   50.00000   90.00000   90.00000   90.00000
LATT -1
SFAC C  
C      1  0.5099760000000  0.4307710000000  0.4659490000000 1.0
C      1  0.4852080000000  0.5148770000000  0.4552430000000 1.0
C      1  0.5353670000000  0.4473030000000  0.4762070000000 1.0
C      1  0.5421660000000  0.5337600000000  0.4765870000000 1.0
C      1  0.4790000000000  0.4608160000000  0.5682370000000 1.0
C      1  0.4522970000000  0.4803950000000  0.5083600000000 1.0
C      1  0.5110460000000  0.5205080000000  0.4730580000000 1.0
C      1  0.4940340000000  0.5139260000000  0.5602110000000 1.0
C      1  0.5073140000000  0.4773700000000  0.5084900000000 1.0
C      1  0.4435370000000  0.4651980000000  0.5338430000000 1.0
C      1  0.5397860000000  0.5640960000000  0.4920950000000 1.0
C      1  0.4458030000000  0.5354110000000  0.4820610000000 1.0
C      1  0.4583970000000  0.4810250000000  0.5572750000000 1.0
C      1  0.4445070000000  0.4899130000000  0.4626120000000 1.0
C      1  0.5201330000000  0.5267230000000  0.5245040000000 1.0
C      1  0.5218570000000  0.4724070000000  0.4345290000000 1.0
C      1  0.4949540000000  0.5079620000000  0.5002600000000 1.0
C      1  0.5457320000000  0.5648570000000  0.5195570000000 1.0
C      1  0.4660890000000  0.5074340000000  0.5170300000000 1.0
C      1  0.4891300000000  0.5068850000000  0.4228300000000 1.0
C      1  0.5422400000000  0.4920910000000  0.4362960000000 1.0
C      1  0.4316910000000  0.4816480000000  0.4853080000000 1.0
C      1  0.5119550000000  0.5585900000000  0.4847460000000 1.0
C      1  0.4994830000000  0.5413020000000  0.5051690000000 1.0
C      1  0.4748690000000  0.5519330000000  0.5191590000000 1.0
C      1  0.5323210000000  0.4711890000000  0.4897660000000 1.0
C      1  0.4541110000000  0.5348520000000  0.5090250000000 1.0
C      1  0.4672400000000  0.4426010000000  0.5161660000000 1.0
C      1  0.5252410000000  0.4972810000000  0.5294480000000 1.0
C      1  0.5058810000000  0.5501380000000  0.4571900000000 1.0
C      1  0.5495290000000  0.5069620000000  0.4569870000000 1.0
C      1  0.5543880000000  0.4868870000000  0.5190630000000 1.0
C      1  0.5055410000000  0.4660800000000  0.5586520000000 1.0
C      1  0.4942960000000  0.4319680000000  0.5269260000000 1.0
C      1  0.5607740000000  0.5228760000000  0.5034080000000 1.0
C      1  0.4694480000000  0.5052560000000  0.5480730000000 1.0
C      1  0.4618830000000  0.4422380000000  0.5494630000000 1.0
C      1  0.4952260000000  0.4811510000000  0.4366390000000 1.0
C      1  0.5138110000000  0.4932630000000  0.5573160000000 1.0
C      1  0.5019210000000  0.5411520000000  0.5569380000000 1.0
C      1  0.5323520000000  0.5477240000000  0.5461910000000 1.0
C      1  0.5278820000000  0.4468680000000  0.4448520000000 1.0
C      1  0.4767600000000  0.4812810000000  0.4637250000000 1.0
C      1  0.5507680000000  0.4961990000000  0.4865630000000 1.0
C      1  0.4856880000000  0.4357720000000  0.4783270000000 1.0
C      1  0.4790820000000  0.4653260000000  0.4937920000000 1.0
C      1  0.5097030000000  0.4540620000000  0.5331350000000 1.0
C      1  0.4817510000000  0.5581250000000  0.5459080000000 1.0
C      1  0.5034250000000  0.5593400000000  0.4321710000000 1.0
C      1  0.5584660000000  0.5374460000000  0.5269920000000 1.0
C      1  0.4559400000000  0.5167610000000  0.4636670000000 1.0
END
