TITL C-2847958-8115-489 0.00286420699025291 125000 -699.267300867571 0 0 127 (C1) n - 1
REM
REM in /home/bkarasulu/work/CARBON/AIRSS/Generating-Clusters/AIREBO/with-SteepDescent/Only-C1/SD-CG-opt/Try1-1.4A-POS3A/HFTN-CG
REM
REM
REM
REM
REM
REM ./C.cell (11c1c37f851c82e70ff6c80c92926a4b)
REM
REM compiler GCC version 9.2.1 20190827 (Red Hat 9.2.1-1)
REM options -cpp -mtune=generic -march=x86-64 -g -O0 -fpre-include=/usr/include/finclude/math-vector-fortran.h
REM seed -681704070 -306853302 -1904383184 -1859284686 1670733070 1790743952 -1082017182 126471195 503791641 268790194 1130367801 -2128286186 1040262584 2091232079 -1027500725 333651935 992534663 -1730462477 1832797991 821288633 -2113217173 1591950884 -1843802537 -369170928 1895474522 756259235 -1139405695 1226978406 -1887515437 -53363215 2038650151 -355432453 -1256779052
REM
CELL 1.54180   50.00000   50.00000   50.00000   90.00000   90.00000   90.00000
LATT -1
SFAC C  
C      1  0.4327260000000  0.4895010000000  0.5639270000000 1.0
C      1  0.5788680000000  0.4771630000000  0.5108320000000 1.0
C      1  0.5069370000000  0.4686380000000  0.6045310000000 1.0
C      1  0.4200140000000  0.5032050000000  0.4500090000000 1.0
C      1  0.4867000000000  0.5097670000000  0.5191760000000 1.0
C      1  0.4653340000000  0.4736150000000  0.4284750000000 1.0
C      1  0.5040560000000  0.4739370000000  0.5218850000000 1.0
C      1  0.4154630000000  0.4354500000000  0.4602490000000 1.0
C      1  0.4746660000000  0.5855120000000  0.4659410000000 1.0
C      1  0.4972190000000  0.5181580000000  0.4138240000000 1.0
C      1  0.5331860000000  0.4984770000000  0.5393650000000 1.0
C      1  0.5378190000000  0.4610240000000  0.5050440000000 1.0
C      1  0.5861350000000  0.4834880000000  0.4536820000000 1.0
C      1  0.4444410000000  0.4803870000000  0.4125870000000 1.0
C      1  0.4606900000000  0.5550580000000  0.5708190000000 1.0
C      1  0.5138500000000  0.4800170000000  0.4901780000000 1.0
C      1  0.5108670000000  0.4562140000000  0.4470860000000 1.0
C      1  0.5941320000000  0.5344350000000  0.4844620000000 1.0
C      1  0.4536500000000  0.5094810000000  0.5458200000000 1.0
C      1  0.5706910000000  0.4415110000000  0.4754560000000 1.0
C      1  0.4511400000000  0.4319090000000  0.4981250000000 1.0
C      1  0.4868240000000  0.5328160000000  0.4605510000000 1.0
C      1  0.4633050000000  0.4882560000000  0.4564080000000 1.0
C      1  0.5096440000000  0.5305260000000  0.5084710000000 1.0
C      1  0.4831740000000  0.5254600000000  0.3835890000000 1.0
C      1  0.4582760000000  0.5750510000000  0.5509940000000 1.0
C      1  0.5702200000000  0.4888830000000  0.4839010000000 1.0
C      1  0.5925580000000  0.5096910000000  0.4726230000000 1.0
C      1  0.4979520000000  0.4963680000000  0.5909410000000 1.0
C      1  0.5448660000000  0.4962190000000  0.4030250000000 1.0
C      1  0.5089870000000  0.4683410000000  0.5501560000000 1.0
C      1  0.5541160000000  0.5744910000000  0.5237750000000 1.0
C      1  0.5401010000000  0.5110130000000  0.5964270000000 1.0
C      1  0.4958790000000  0.5524740000000  0.4343200000000 1.0
C      1  0.5990300000000  0.4840950000000  0.4292490000000 1.0
C      1  0.4002660000000  0.5109600000000  0.5112660000000 1.0
C      1  0.3970040000000  0.4734550000000  0.5238550000000 1.0
C      1  0.5928290000000  0.5088090000000  0.5596850000000 1.0
C      1  0.4941430000000  0.4474030000000  0.5944960000000 1.0
C      1  0.4769980000000  0.4179640000000  0.3803790000000 1.0
C      1  0.4242770000000  0.4962180000000  0.4229470000000 1.0
C      1  0.4486090000000  0.5948940000000  0.5047850000000 1.0
C      1  0.4563350000000  0.4429900000000  0.5525110000000 1.0
C      1  0.5469990000000  0.4707350000000  0.4123650000000 1.0
C      1  0.4231570000000  0.5616620000000  0.5097310000000 1.0
C      1  0.4172490000000  0.5716480000000  0.4792580000000 1.0
C      1  0.5019940000000  0.5552410000000  0.5291240000000 1.0
C      1  0.5655300000000  0.4596570000000  0.4555230000000 1.0
C      1  0.4107740000000  0.4854060000000  0.4962810000000 1.0
C      1  0.5241890000000  0.4196100000000  0.4800010000000 1.0
C      1  0.5940160000000  0.5325720000000  0.5148870000000 1.0
C      1  0.5167850000000  0.4070070000000  0.5366800000000 1.0
C      1  0.4990030000000  0.5263040000000  0.5467340000000 1.0
C      1  0.5349890000000  0.4486500000000  0.5550910000000 1.0
C      1  0.4813130000000  0.5472800000000  0.4063980000000 1.0
C      1  0.4767920000000  0.4468170000000  0.5113840000000 1.0
C      1  0.4663530000000  0.4294680000000  0.4517070000000 1.0
C      1  0.5037450000000  0.4355920000000  0.3778530000000 1.0
C      1  0.5259230000000  0.5673240000000  0.5097930000000 1.0
C      1  0.5603840000000  0.5332150000000  0.5198350000000 1.0
C      1  0.4386100000000  0.5187060000000  0.4633580000000 1.0
C      1  0.5589950000000  0.4253810000000  0.5210430000000 1.0
C      1  0.5098810000000  0.4896070000000  0.4515960000000 1.0
C      1  0.3989830000000  0.5789710000000  0.4631090000000 1.0
C      1  0.4509850000000  0.5695700000000  0.4822220000000 1.0
C      1  0.5289550000000  0.5161570000000  0.4195870000000 1.0
C      1  0.4938630000000  0.4112430000000  0.5232860000000 1.0
C      1  0.4383330000000  0.5835780000000  0.5302730000000 1.0
C      1  0.5239880000000  0.5740000000000  0.4764570000000 1.0
C      1  0.4694200000000  0.4806850000000  0.5509880000000 1.0
C      1  0.5809830000000  0.4461530000000  0.5055060000000 1.0
C      1  0.4742850000000  0.4796350000000  0.5115250000000 1.0
C      1  0.4945620000000  0.4559840000000  0.4769250000000 1.0
C      1  0.4043180000000  0.5414970000000  0.5182320000000 1.0
C      1  0.4693240000000  0.4853880000000  0.5846640000000 1.0
C      1  0.4549430000000  0.5508260000000  0.5104160000000 1.0
C      1  0.5219380000000  0.4245410000000  0.4525910000000 1.0
C      1  0.4620060000000  0.5066900000000  0.4849590000000 1.0
C      1  0.4562070000000  0.5208440000000  0.5138280000000 1.0
C      1  0.4419390000000  0.4742840000000  0.5025170000000 1.0
C      1  0.5220230000000  0.5601870000000  0.6136400000000 1.0
C      1  0.5458120000000  0.4704840000000  0.5325650000000 1.0
C      1  0.4698470000000  0.5310690000000  0.5619760000000 1.0
C      1  0.4525440000000  0.6210180000000  0.4980950000000 1.0
C      1  0.5355580000000  0.5099370000000  0.4524170000000 1.0
C      1  0.5571060000000  0.5416390000000  0.5759010000000 1.0
C      1  0.5600630000000  0.5521650000000  0.5479940000000 1.0
C      1  0.5356110000000  0.5147440000000  0.5131140000000 1.0
C      1  0.4039110000000  0.4871250000000  0.4665870000000 1.0
C      1  0.3771240000000  0.5269770000000  0.5272060000000 1.0
C      1  0.4843510000000  0.4537180000000  0.5654220000000 1.0
C      1  0.4818440000000  0.4480110000000  0.4313270000000 1.0
C      1  0.5560470000000  0.5732430000000  0.4648680000000 1.0
C      1  0.5456090000000  0.4337680000000  0.4930810000000 1.0
C      1  0.5272070000000  0.5344540000000  0.5620300000000 1.0
C      1  0.4460410000000  0.4637210000000  0.5778270000000 1.0
C      1  0.4959650000000  0.4258720000000  0.4926620000000 1.0
C      1  0.4439240000000  0.4664070000000  0.5336010000000 1.0
C      1  0.4934540000000  0.5042850000000  0.4778390000000 1.0
C      1  0.5774530000000  0.4753700000000  0.5441180000000 1.0
C      1  0.4849890000000  0.5066500000000  0.4389130000000 1.0
C      1  0.5479820000000  0.5479240000000  0.4946350000000 1.0
C      1  0.5374500000000  0.5379300000000  0.4657910000000 1.0
C      1  0.4800340000000  0.4112370000000  0.4679280000000 1.0
C      1  0.5754440000000  0.5532970000000  0.4756930000000 1.0
C      1  0.5415510000000  0.4987340000000  0.4839580000000 1.0
C      1  0.5585230000000  0.4648400000000  0.5697070000000 1.0
C      1  0.5301730000000  0.5423700000000  0.5951510000000 1.0
C      1  0.5713440000000  0.5142200000000  0.5772640000000 1.0
C      1  0.5857090000000  0.5625070000000  0.5281030000000 1.0
C      1  0.5085990000000  0.4979360000000  0.5628460000000 1.0
C      1  0.4573900000000  0.5415660000000  0.4659910000000 1.0
C      1  0.5399250000000  0.4226130000000  0.5412540000000 1.0
C      1  0.4148360000000  0.4747830000000  0.5439740000000 1.0
C      1  0.5477880000000  0.4942710000000  0.5695940000000 1.0
C      1  0.4619360000000  0.4640800000000  0.4769810000000 1.0
C      1  0.4412700000000  0.4383900000000  0.4686650000000 1.0
C      1  0.4619420000000  0.4217380000000  0.5289010000000 1.0
C      1  0.4875080000000  0.4349420000000  0.4059050000000 1.0
C      1  0.4741320000000  0.5660040000000  0.5278890000000 1.0
C      1  0.5399320000000  0.5596010000000  0.4428300000000 1.0
C      1  0.5220660000000  0.4943280000000  0.6152720000000 1.0
C      1  0.5866580000000  0.5046340000000  0.5293110000000 1.0
C      1  0.5241960000000  0.5475620000000  0.4228450000000 1.0
C      1  0.5098240000000  0.5435170000000  0.4815910000000 1.0
C      1  0.5434470000000  0.4601970000000  0.4381120000000 1.0
C      1  0.4981710000000  0.5746830000000  0.4570730000000 1.0
END
