TITL C-2848500-1637-179 -0.000910474574482861 125000 -1090.69871183857 0 0 197 (C1) n - 1
REM
REM in /home/bkarasulu/work/CARBON/AIRSS/Generating-Clusters/AIREBO/with-SteepDescent/Only-C1/SD-CG-opt/Try1-1.4A-POS3A/HFTN-CG
REM
REM
REM
REM
REM
REM ./C.cell (11c1c37f851c82e70ff6c80c92926a4b)
REM
REM compiler GCC version 9.2.1 20190827 (Red Hat 9.2.1-1)
REM options -cpp -mtune=generic -march=x86-64 -g -O0 -fpre-include=/usr/include/finclude/math-vector-fortran.h
REM seed -2137388890 -1156852226 263008122 -1453602795 730005461 -82191877 360461904 149864147 -670859949 126817056 1828436205 -1553114911 1380483965 -2045938613 -763397402 -748584376 1943638722 -1014857590 761985778 1767662632 -1405985240 -1254218222 228301536 976511873 -600736620 -1113670815 -1157706420 440604993 -22265604 176082189 613628859 1285777989 80527969
REM
CELL 1.54180   50.00000   50.00000   50.00000   90.00000   90.00000   90.00000
LATT -1
SFAC C  
C      1  0.4200580000000  0.5337430000000  0.4923170000000 1.0
C      1  0.5896750000000  0.5869990000000  0.4579160000000 1.0
C      1  0.4307890000000  0.4174850000000  0.5648140000000 1.0
C      1  0.5817530000000  0.4100200000000  0.5064510000000 1.0
C      1  0.5739920000000  0.4993270000000  0.4236170000000 1.0
C      1  0.4727460000000  0.5218010000000  0.4990260000000 1.0
C      1  0.5254210000000  0.4625100000000  0.5489110000000 1.0
C      1  0.5818030000000  0.5802380000000  0.4833250000000 1.0
C      1  0.5965920000000  0.4708590000000  0.4668710000000 1.0
C      1  0.5325790000000  0.3969030000000  0.4970080000000 1.0
C      1  0.4378230000000  0.4353760000000  0.5148470000000 1.0
C      1  0.4775570000000  0.4697540000000  0.4426090000000 1.0
C      1  0.4617660000000  0.5522900000000  0.5679700000000 1.0
C      1  0.4809600000000  0.4390270000000  0.4374540000000 1.0
C      1  0.4570490000000  0.4344670000000  0.5755110000000 1.0
C      1  0.4718590000000  0.4690950000000  0.4033340000000 1.0
C      1  0.4881970000000  0.3840330000000  0.4983810000000 1.0
C      1  0.4936220000000  0.5146060000000  0.5785230000000 1.0
C      1  0.5128480000000  0.4405700000000  0.4489910000000 1.0
C      1  0.5168460000000  0.4865060000000  0.5075220000000 1.0
C      1  0.5705990000000  0.5500150000000  0.4792730000000 1.0
C      1  0.4376060000000  0.3935470000000  0.5533040000000 1.0
C      1  0.3807870000000  0.4758820000000  0.4751130000000 1.0
C      1  0.5766310000000  0.4880630000000  0.5752780000000 1.0
C      1  0.4993800000000  0.4355820000000  0.4120360000000 1.0
C      1  0.5141280000000  0.5841660000000  0.5169840000000 1.0
C      1  0.4694630000000  0.5027120000000  0.5973170000000 1.0
C      1  0.4079440000000  0.5191500000000  0.4333500000000 1.0
C      1  0.5350550000000  0.3905740000000  0.5249080000000 1.0
C      1  0.6426140000000  0.4984970000000  0.4783300000000 1.0
C      1  0.4007120000000  0.4982120000000  0.4588050000000 1.0
C      1  0.6093580000000  0.5370790000000  0.5110280000000 1.0
C      1  0.5642170000000  0.4317700000000  0.5348580000000 1.0
C      1  0.4412980000000  0.4834880000000  0.4917610000000 1.0
C      1  0.4048860000000  0.4661370000000  0.5608270000000 1.0
C      1  0.5794340000000  0.5099590000000  0.5915900000000 1.0
C      1  0.5209220000000  0.4810140000000  0.5855090000000 1.0
C      1  0.5480240000000  0.5961850000000  0.5003730000000 1.0
C      1  0.4316920000000  0.4665660000000  0.4404420000000 1.0
C      1  0.4427870000000  0.5493150000000  0.4490580000000 1.0
C      1  0.5391540000000  0.5904950000000  0.5325550000000 1.0
C      1  0.6016860000000  0.5422250000000  0.4538940000000 1.0
C      1  0.4382110000000  0.4410950000000  0.4199070000000 1.0
C      1  0.4439240000000  0.4053440000000  0.5055470000000 1.0
C      1  0.4673680000000  0.4581910000000  0.6078050000000 1.0
C      1  0.4058400000000  0.4653140000000  0.4551780000000 1.0
C      1  0.3837320000000  0.5147870000000  0.5312020000000 1.0
C      1  0.5615590000000  0.3995370000000  0.5317190000000 1.0
C      1  0.5055610000000  0.4657030000000  0.4003770000000 1.0
C      1  0.5303760000000  0.5317830000000  0.5446510000000 1.0
C      1  0.5207230000000  0.4676440000000  0.4307520000000 1.0
C      1  0.5634220000000  0.5575830000000  0.4262550000000 1.0
C      1  0.4378210000000  0.5886650000000  0.4707980000000 1.0
C      1  0.4223490000000  0.5590760000000  0.4705360000000 1.0
C      1  0.5406220000000  0.4689790000000  0.5097230000000 1.0
C      1  0.5673210000000  0.5708760000000  0.5126350000000 1.0
C      1  0.5569720000000  0.5329570000000  0.5907070000000 1.0
C      1  0.4830230000000  0.5682790000000  0.4118510000000 1.0
C      1  0.4855230000000  0.4940340000000  0.4201710000000 1.0
C      1  0.4458140000000  0.4984310000000  0.5185530000000 1.0
C      1  0.4067040000000  0.4430590000000  0.5148220000000 1.0
C      1  0.4911530000000  0.4757200000000  0.4700220000000 1.0
C      1  0.4969540000000  0.4693740000000  0.4937880000000 1.0
C      1  0.5235890000000  0.5281290000000  0.3896200000000 1.0
C      1  0.4160590000000  0.4273730000000  0.4682810000000 1.0
C      1  0.5443260000000  0.5619890000000  0.5866530000000 1.0
C      1  0.4451470000000  0.5176620000000  0.4520580000000 1.0
C      1  0.5108130000000  0.4339460000000  0.4792170000000 1.0
C      1  0.6678500000000  0.4990150000000  0.4820900000000 1.0
C      1  0.5300110000000  0.6040970000000  0.4797750000000 1.0
C      1  0.5675840000000  0.4409060000000  0.5022700000000 1.0
C      1  0.5717400000000  0.4931020000000  0.4748070000000 1.0
C      1  0.6149720000000  0.4041150000000  0.5022440000000 1.0
C      1  0.6040840000000  0.4593250000000  0.5459250000000 1.0
C      1  0.4651710000000  0.5595050000000  0.5128000000000 1.0
C      1  0.4782310000000  0.5792630000000  0.4753410000000 1.0
C      1  0.4940070000000  0.5034710000000  0.4578280000000 1.0
C      1  0.3998000000000  0.5608570000000  0.5236790000000 1.0
C      1  0.4438520000000  0.4240420000000  0.4770720000000 1.0
C      1  0.4732740000000  0.5555040000000  0.3848540000000 1.0
C      1  0.4242180000000  0.5484860000000  0.6009500000000 1.0
C      1  0.4401750000000  0.4717100000000  0.4074050000000 1.0
C      1  0.5589030000000  0.4733170000000  0.4203480000000 1.0
C      1  0.4958720000000  0.4488810000000  0.6142450000000 1.0
C      1  0.6210680000000  0.5229690000000  0.5374000000000 1.0
C      1  0.4283040000000  0.5327740000000  0.4097330000000 1.0
C      1  0.4391840000000  0.5025470000000  0.5874850000000 1.0
C      1  0.4619170000000  0.5917370000000  0.4482420000000 1.0
C      1  0.4965280000000  0.6071760000000  0.4710020000000 1.0
C      1  0.4575150000000  0.5131980000000  0.5607130000000 1.0
C      1  0.4519120000000  0.5556790000000  0.4184280000000 1.0
C      1  0.5276960000000  0.5179010000000  0.5993920000000 1.0
C      1  0.5215590000000  0.4897600000000  0.5378100000000 1.0
C      1  0.4142210000000  0.5579910000000  0.5476820000000 1.0
C      1  0.5951660000000  0.5266350000000  0.4834120000000 1.0
C      1  0.5812190000000  0.4434460000000  0.5564330000000 1.0
C      1  0.4669970000000  0.5073650000000  0.4729380000000 1.0
C      1  0.5931220000000  0.5420140000000  0.5406210000000 1.0
C      1  0.4635480000000  0.4814050000000  0.5641530000000 1.0
C      1  0.4526350000000  0.4414220000000  0.5424950000000 1.0
C      1  0.5067350000000  0.3971210000000  0.5412810000000 1.0
C      1  0.5119050000000  0.4731220000000  0.6170950000000 1.0
C      1  0.5657260000000  0.5371200000000  0.5082840000000 1.0
C      1  0.3956170000000  0.5368340000000  0.5105940000000 1.0
C      1  0.4763480000000  0.5198590000000  0.5331780000000 1.0
C      1  0.5101560000000  0.5536540000000  0.5523460000000 1.0
C      1  0.4629250000000  0.6144780000000  0.4734690000000 1.0
C      1  0.4189320000000  0.5055410000000  0.5321940000000 1.0
C      1  0.5681030000000  0.4590180000000  0.5758900000000 1.0
C      1  0.5408670000000  0.5524030000000  0.4709300000000 1.0
C      1  0.5412850000000  0.4939970000000  0.4696460000000 1.0
C      1  0.5709460000000  0.4734510000000  0.5116780000000 1.0
C      1  0.5260670000000  0.5612850000000  0.3962280000000 1.0
C      1  0.4534650000000  0.4529170000000  0.4917400000000 1.0
C      1  0.5477470000000  0.4375870000000  0.4067150000000 1.0
C      1  0.5004930000000  0.4018780000000  0.5735400000000 1.0
C      1  0.5477520000000  0.4662370000000  0.4513340000000 1.0
C      1  0.4030770000000  0.5458260000000  0.4483380000000 1.0
C      1  0.4812050000000  0.5949490000000  0.4261980000000 1.0
C      1  0.4489530000000  0.4174930000000  0.4270570000000 1.0
C      1  0.5383860000000  0.5279280000000  0.4474440000000 1.0
C      1  0.5673020000000  0.5288730000000  0.5585660000000 1.0
C      1  0.4876110000000  0.5506350000000  0.4888350000000 1.0
C      1  0.4199070000000  0.4749290000000  0.5827200000000 1.0
C      1  0.5768390000000  0.4457210000000  0.4117810000000 1.0
C      1  0.4561270000000  0.5274260000000  0.3909270000000 1.0
C      1  0.4441050000000  0.5661300000000  0.5920300000000 1.0
C      1  0.3956040000000  0.5524050000000  0.5698030000000 1.0
C      1  0.4947810000000  0.4995540000000  0.5480320000000 1.0
C      1  0.5249190000000  0.5698410000000  0.6039640000000 1.0
C      1  0.4256640000000  0.5077060000000  0.4746740000000 1.0
C      1  0.4526400000000  0.4793560000000  0.4600060000000 1.0
C      1  0.4901090000000  0.5450100000000  0.5750970000000 1.0
C      1  0.4651510000000  0.4158370000000  0.4550470000000 1.0
C      1  0.5776630000000  0.4803980000000  0.5421400000000 1.0
C      1  0.5270060000000  0.4258530000000  0.4214530000000 1.0
C      1  0.4704170000000  0.4805010000000  0.5337170000000 1.0
C      1  0.4030780000000  0.5212460000000  0.5584170000000 1.0
C      1  0.5042920000000  0.6075950000000  0.4378920000000 1.0
C      1  0.5222970000000  0.4984630000000  0.4408500000000 1.0
C      1  0.4824690000000  0.3832700000000  0.5275070000000 1.0
C      1  0.5963590000000  0.3902140000000  0.4828670000000 1.0
C      1  0.4799730000000  0.5290900000000  0.3681780000000 1.0
C      1  0.5284840000000  0.5955520000000  0.4503790000000 1.0
C      1  0.3957850000000  0.4853810000000  0.5433210000000 1.0
C      1  0.5323350000000  0.5093720000000  0.5701760000000 1.0
C      1  0.4603630000000  0.5890550000000  0.5182660000000 1.0
C      1  0.4483510000000  0.4638740000000  0.5832550000000 1.0
C      1  0.5358840000000  0.5327760000000  0.5137790000000 1.0
C      1  0.5388850000000  0.5688620000000  0.5569400000000 1.0
C      1  0.4846360000000  0.5485780000000  0.5354120000000 1.0
C      1  0.4619010000000  0.5154790000000  0.4223700000000 1.0
C      1  0.4570440000000  0.5843250000000  0.5687850000000 1.0
C      1  0.4810430000000  0.4485620000000  0.5306380000000 1.0
C      1  0.3992810000000  0.4491930000000  0.4852080000000 1.0
C      1  0.5766880000000  0.5058110000000  0.5029400000000 1.0
C      1  0.4912470000000  0.5953810000000  0.5269770000000 1.0
C      1  0.5007950000000  0.5045570000000  0.6103960000000 1.0
C      1  0.5646620000000  0.5584320000000  0.5419660000000 1.0
C      1  0.4452580000000  0.6038970000000  0.4987890000000 1.0
C      1  0.5703450000000  0.4531820000000  0.4706100000000 1.0
C      1  0.5092860000000  0.5180980000000  0.4163250000000 1.0
C      1  0.5590130000000  0.5244290000000  0.4236070000000 1.0
C      1  0.5056780000000  0.4293370000000  0.5391920000000 1.0
C      1  0.5343270000000  0.4411790000000  0.5244390000000 1.0
C      1  0.4160940000000  0.4416870000000  0.5474740000000 1.0
C      1  0.4551220000000  0.3904070000000  0.5314940000000 1.0
C      1  0.5377160000000  0.4643480000000  0.3950100000000 1.0
C      1  0.4985540000000  0.5502480000000  0.4566350000000 1.0
C      1  0.5393210000000  0.4560180000000  0.5772650000000 1.0
C      1  0.5056420000000  0.5217990000000  0.3656110000000 1.0
C      1  0.5197930000000  0.5566470000000  0.4977430000000 1.0
C      1  0.6134970000000  0.5002440000000  0.4722850000000 1.0
C      1  0.4676660000000  0.5986680000000  0.5491380000000 1.0
C      1  0.5908560000000  0.4977400000000  0.4470890000000 1.0
C      1  0.4746550000000  0.5415170000000  0.4401310000000 1.0
C      1  0.4409570000000  0.5394970000000  0.5468790000000 1.0
C      1  0.4840970000000  0.4402250000000  0.4993070000000 1.0
C      1  0.5527340000000  0.5008660000000  0.5459310000000 1.0
C      1  0.4986410000000  0.5629100000000  0.5999890000000 1.0
C      1  0.5534180000000  0.5428510000000  0.3971340000000 1.0
C      1  0.4439080000000  0.5320740000000  0.5138280000000 1.0
C      1  0.4957680000000  0.4081190000000  0.4648940000000 1.0
C      1  0.5113210000000  0.3866690000000  0.4813190000000 1.0
C      1  0.5129410000000  0.5243640000000  0.4696630000000 1.0
C      1  0.5356560000000  0.5671080000000  0.4407990000000 1.0
C      1  0.4189010000000  0.5254510000000  0.5871920000000 1.0
C      1  0.5890710000000  0.5635830000000  0.4415350000000 1.0
C      1  0.5099360000000  0.5517990000000  0.4246250000000 1.0
C      1  0.5103340000000  0.4402290000000  0.5696950000000 1.0
C      1  0.5261850000000  0.5113800000000  0.4937730000000 1.0
C      1  0.4865380000000  0.4294990000000  0.5877120000000 1.0
C      1  0.4319020000000  0.5000310000000  0.4181740000000 1.0
C      1  0.5366600000000  0.4271690000000  0.4943620000000 1.0
C      1  0.4872540000000  0.4759670000000  0.5861550000000 1.0
C      1  0.5988690000000  0.5120490000000  0.6108760000000 1.0
C      1  0.4741540000000  0.4093900000000  0.4984470000000 1.0
END
