TITL C-2847951-7423-640 -0.000306041911110197 125000 -368.731851329337 0 0 68 (C1) n - 1
REM
REM in /home/bkarasulu/work/CARBON/AIRSS/Generating-Clusters/AIREBO/with-SteepDescent/Only-C1/SD-CG-opt/Try1-1.4A-POS3A/HFTN-CG
REM
REM
REM
REM
REM
REM ./C.cell (11c1c37f851c82e70ff6c80c92926a4b)
REM
REM compiler GCC version 9.2.1 20190827 (Red Hat 9.2.1-1)
REM options -cpp -mtune=generic -march=x86-64 -g -O0 -fpre-include=/usr/include/finclude/math-vector-fortran.h
REM seed 295460570 -1936641571 1475556480 1241902458 1077527349 -804988492 -56733579 1272997991 -436318986 -1570102287 -648983804 -1780113584 -1192959180 -334701185 683296010 168900367 626768459 -44457165 -1176724055 -1679658855 -1261110251 -1042309241 -2147060552 -622366337 683712413 1474434452 952434817 190810078 -622470903 803792459 112176577 877684126 799893507
REM
CELL 1.54180   50.00000   50.00000   50.00000   90.00000   90.00000   90.00000
LATT -1
SFAC C  
C      1  0.5099500000000  0.4145070000000  0.5016570000000 1.0
C      1  0.5644000000000  0.4676300000000  0.5027880000000 1.0
C      1  0.5073130000000  0.4880940000000  0.5555560000000 1.0
C      1  0.5169350000000  0.5255050000000  0.5288320000000 1.0
C      1  0.5528890000000  0.4821790000000  0.4515510000000 1.0
C      1  0.5375770000000  0.5251270000000  0.5763120000000 1.0
C      1  0.4748880000000  0.4910900000000  0.4796720000000 1.0
C      1  0.5714760000000  0.5269300000000  0.5076200000000 1.0
C      1  0.4759910000000  0.4879590000000  0.4398460000000 1.0
C      1  0.4404650000000  0.4908630000000  0.5513100000000 1.0
C      1  0.5585820000000  0.5265700000000  0.4760740000000 1.0
C      1  0.5207620000000  0.5819860000000  0.4849820000000 1.0
C      1  0.4553290000000  0.5692360000000  0.5107870000000 1.0
C      1  0.5352070000000  0.5366500000000  0.4951850000000 1.0
C      1  0.4893050000000  0.4281420000000  0.5132000000000 1.0
C      1  0.4720720000000  0.5273870000000  0.5038860000000 1.0
C      1  0.5037650000000  0.4730610000000  0.4377710000000 1.0
C      1  0.4557530000000  0.4680230000000  0.4488530000000 1.0
C      1  0.4998310000000  0.5931820000000  0.5003590000000 1.0
C      1  0.4281930000000  0.5073320000000  0.5343760000000 1.0
C      1  0.4868110000000  0.4659870000000  0.4985080000000 1.0
C      1  0.4797380000000  0.5701010000000  0.4555890000000 1.0
C      1  0.5180710000000  0.4247500000000  0.5582490000000 1.0
C      1  0.4936640000000  0.5361280000000  0.4701120000000 1.0
C      1  0.4446540000000  0.4523620000000  0.5205880000000 1.0
C      1  0.5227110000000  0.5206150000000  0.4378190000000 1.0
C      1  0.5390910000000  0.5686510000000  0.5004520000000 1.0
C      1  0.4385600000000  0.5218570000000  0.5054880000000 1.0
C      1  0.5096740000000  0.5200170000000  0.4896810000000 1.0
C      1  0.4869990000000  0.5093860000000  0.5286590000000 1.0
C      1  0.4302040000000  0.5348210000000  0.4763480000000 1.0
C      1  0.4655450000000  0.4427980000000  0.5001770000000 1.0
C      1  0.5442940000000  0.4475380000000  0.4888480000000 1.0
C      1  0.5281640000000  0.5000060000000  0.5093450000000 1.0
C      1  0.5371560000000  0.4321140000000  0.5346800000000 1.0
C      1  0.4448750000000  0.5294260000000  0.4564220000000 1.0
C      1  0.4528690000000  0.4638930000000  0.5442690000000 1.0
C      1  0.4700390000000  0.5553680000000  0.4846570000000 1.0
C      1  0.5345730000000  0.5393120000000  0.4554800000000 1.0
C      1  0.5090840000000  0.4896940000000  0.4757810000000 1.0
C      1  0.4730770000000  0.5162530000000  0.4577810000000 1.0
C      1  0.5255650000000  0.4922390000000  0.4480610000000 1.0
C      1  0.4941460000000  0.5479400000000  0.5178090000000 1.0
C      1  0.5343270000000  0.5085530000000  0.5526350000000 1.0
C      1  0.5398900000000  0.5501680000000  0.5261140000000 1.0
C      1  0.5124280000000  0.5634190000000  0.4621390000000 1.0
C      1  0.4958050000000  0.4766290000000  0.5259150000000 1.0
C      1  0.5140360000000  0.4569600000000  0.4822580000000 1.0
C      1  0.4974100000000  0.5108980000000  0.4266520000000 1.0
C      1  0.5266370000000  0.4617210000000  0.5462010000000 1.0
C      1  0.4524680000000  0.4435520000000  0.4722720000000 1.0
C      1  0.4505150000000  0.5407690000000  0.5509480000000 1.0
C      1  0.4414440000000  0.5494910000000  0.5250870000000 1.0
C      1  0.5589300000000  0.5146660000000  0.5299240000000 1.0
C      1  0.5541710000000  0.4554700000000  0.4585480000000 1.0
C      1  0.4273930000000  0.4682690000000  0.5043600000000 1.0
C      1  0.5515060000000  0.4790800000000  0.5572670000000 1.0
C      1  0.5693340000000  0.4984670000000  0.4669960000000 1.0
C      1  0.5815020000000  0.4823170000000  0.4870470000000 1.0
C      1  0.5354690000000  0.4254480000000  0.5079110000000 1.0
C      1  0.4303350000000  0.4691280000000  0.4708410000000 1.0
C      1  0.4991730000000  0.4441090000000  0.5374050000000 1.0
C      1  0.4675030000000  0.5200460000000  0.5523990000000 1.0
C      1  0.5510960000000  0.4835670000000  0.5235620000000 1.0
C      1  0.5059750000000  0.4493120000000  0.4523820000000 1.0
C      1  0.4734150000000  0.4871990000000  0.5588980000000 1.0
C      1  0.4442670000000  0.4930260000000  0.4906870000000 1.0
C      1  0.4847310000000  0.5750200000000  0.5161280000000 1.0
END
