TITL C-2847948-6138-586 0.00169049678543374 125000 -656.190463247405 0 0 121 (C1) n - 1
REM
REM in /home/bkarasulu/work/CARBON/AIRSS/Generating-Clusters/AIREBO/with-SteepDescent/Only-C1/SD-CG-opt/Try1-1.4A-POS3A/HFTN-CG
REM
REM
REM
REM
REM
REM ./C.cell (11c1c37f851c82e70ff6c80c92926a4b)
REM
REM compiler GCC version 9.2.1 20190827 (Red Hat 9.2.1-1)
REM options -cpp -mtune=generic -march=x86-64 -g -O0 -fpre-include=/usr/include/finclude/math-vector-fortran.h
REM seed 18693840 990848493 -439813521 1083478006 619765808 -818857653 1976295604 -938729510 987975095 -289643621 -1207454401 -2002057353 -2028948524 -1899141113 94562879 -85558393 -612163794 419617727 -1784270827 -1329082917 1386953650 1332698127 1650112528 -1472927665 -2093264380 -468563697 -511259035 437368348 -677851293 1123470979 -1159096931 1192520928 -1122503850
REM
CELL 1.54180   50.00000   50.00000   50.00000   90.00000   90.00000   90.00000
LATT -1
SFAC C  
C      1  0.4772070000000  0.5530440000000  0.5443890000000 1.0
C      1  0.4797870000000  0.4975660000000  0.4124520000000 1.0
C      1  0.4546100000000  0.5656720000000  0.4416290000000 1.0
C      1  0.4738480000000  0.5417280000000  0.4320620000000 1.0
C      1  0.5217310000000  0.5034830000000  0.5634860000000 1.0
C      1  0.5309510000000  0.4806410000000  0.4536450000000 1.0
C      1  0.4853430000000  0.4955920000000  0.4649020000000 1.0
C      1  0.5599960000000  0.5347230000000  0.4702200000000 1.0
C      1  0.4684900000000  0.4585990000000  0.5193220000000 1.0
C      1  0.5273120000000  0.5298540000000  0.4726390000000 1.0
C      1  0.4468650000000  0.5036620000000  0.5399550000000 1.0
C      1  0.4697730000000  0.4253240000000  0.5107770000000 1.0
C      1  0.5078350000000  0.5290680000000  0.5907480000000 1.0
C      1  0.5464150000000  0.5776510000000  0.4424220000000 1.0
C      1  0.4975330000000  0.4153890000000  0.4675070000000 1.0
C      1  0.4871750000000  0.5229760000000  0.4105990000000 1.0
C      1  0.4512560000000  0.4292300000000  0.4825250000000 1.0
C      1  0.5629240000000  0.5139500000000  0.4936160000000 1.0
C      1  0.5791380000000  0.4863740000000  0.4819050000000 1.0
C      1  0.4352890000000  0.4460090000000  0.4348990000000 1.0
C      1  0.5409710000000  0.5205680000000  0.5857190000000 1.0
C      1  0.5468860000000  0.5644700000000  0.4739970000000 1.0
C      1  0.5180670000000  0.4519990000000  0.4924540000000 1.0
C      1  0.4156890000000  0.4619680000000  0.5316570000000 1.0
C      1  0.4943280000000  0.5521870000000  0.4660370000000 1.0
C      1  0.4625130000000  0.5875680000000  0.4564860000000 1.0
C      1  0.5529720000000  0.4286120000000  0.4496550000000 1.0
C      1  0.4439640000000  0.4771740000000  0.5219860000000 1.0
C      1  0.5399200000000  0.5902840000000  0.5242070000000 1.0
C      1  0.4754160000000  0.4874400000000  0.5678100000000 1.0
C      1  0.4567210000000  0.5269150000000  0.5070380000000 1.0
C      1  0.5137490000000  0.5363190000000  0.4973060000000 1.0
C      1  0.4498510000000  0.5646720000000  0.5481950000000 1.0
C      1  0.5622460000000  0.4416400000000  0.5137460000000 1.0
C      1  0.5280310000000  0.4664430000000  0.5769380000000 1.0
C      1  0.5005370000000  0.5068420000000  0.4931640000000 1.0
C      1  0.5255270000000  0.5087230000000  0.5300980000000 1.0
C      1  0.4978450000000  0.5702740000000  0.5652110000000 1.0
C      1  0.4942450000000  0.4227190000000  0.5329870000000 1.0
C      1  0.4205520000000  0.5712590000000  0.5612380000000 1.0
C      1  0.5562700000000  0.5106380000000  0.4015660000000 1.0
C      1  0.4929410000000  0.5023970000000  0.5258540000000 1.0
C      1  0.5615620000000  0.5051220000000  0.5639240000000 1.0
C      1  0.4977450000000  0.4751930000000  0.5898050000000 1.0
C      1  0.5300110000000  0.4496220000000  0.4411000000000 1.0
C      1  0.5587260000000  0.5372280000000  0.5530890000000 1.0
C      1  0.4465830000000  0.4794920000000  0.5716000000000 1.0
C      1  0.5384250000000  0.4265610000000  0.5153320000000 1.0
C      1  0.5052310000000  0.5479300000000  0.4081030000000 1.0
C      1  0.5492150000000  0.5186940000000  0.4274280000000 1.0
C      1  0.4715340000000  0.5231570000000  0.5340880000000 1.0
C      1  0.4746210000000  0.4418810000000  0.5715050000000 1.0
C      1  0.4881820000000  0.5071700000000  0.5922340000000 1.0
C      1  0.5679100000000  0.4962000000000  0.5334340000000 1.0
C      1  0.4867790000000  0.4754010000000  0.5394660000000 1.0
C      1  0.4666020000000  0.4568440000000  0.4864880000000 1.0
C      1  0.4496410000000  0.4525120000000  0.5769470000000 1.0
C      1  0.5728890000000  0.4569470000000  0.5369200000000 1.0
C      1  0.4966710000000  0.5592180000000  0.5908820000000 1.0
C      1  0.5218030000000  0.4459330000000  0.4082990000000 1.0
C      1  0.5585920000000  0.5700540000000  0.5441670000000 1.0
C      1  0.5068420000000  0.5481780000000  0.5284170000000 1.0
C      1  0.4257650000000  0.5520390000000  0.5050340000000 1.0
C      1  0.4100680000000  0.5163220000000  0.5807950000000 1.0
C      1  0.5200080000000  0.4037270000000  0.5093440000000 1.0
C      1  0.5162370000000  0.5358010000000  0.5586720000000 1.0
C      1  0.4125180000000  0.4644040000000  0.4717630000000 1.0
C      1  0.5993780000000  0.5061910000000  0.5251240000000 1.0
C      1  0.4975800000000  0.4493220000000  0.3983080000000 1.0
C      1  0.4750180000000  0.5748440000000  0.4824860000000 1.0
C      1  0.5254720000000  0.4936450000000  0.5963930000000 1.0
C      1  0.5823860000000  0.5276000000000  0.5135110000000 1.0
C      1  0.4213740000000  0.5062790000000  0.4465570000000 1.0
C      1  0.4933840000000  0.5921450000000  0.4977690000000 1.0
C      1  0.4240660000000  0.5009370000000  0.5630210000000 1.0
C      1  0.4532200000000  0.5589160000000  0.4959730000000 1.0
C      1  0.4500190000000  0.4082780000000  0.5261090000000 1.0
C      1  0.5764140000000  0.5535110000000  0.5202750000000 1.0
C      1  0.5258450000000  0.5097840000000  0.4461440000000 1.0
C      1  0.4769340000000  0.5295450000000  0.4839560000000 1.0
C      1  0.4162570000000  0.5299720000000  0.4900860000000 1.0
C      1  0.5498690000000  0.4632880000000  0.4171110000000 1.0
C      1  0.4955960000000  0.5223620000000  0.4496170000000 1.0
C      1  0.5681800000000  0.4851000000000  0.4015810000000 1.0
C      1  0.5708570000000  0.4350820000000  0.4659880000000 1.0
C      1  0.4229840000000  0.5606930000000  0.5310000000000 1.0
C      1  0.5210030000000  0.5652020000000  0.4235380000000 1.0
C      1  0.4658400000000  0.4760740000000  0.4351980000000 1.0
C      1  0.5281450000000  0.5676960000000  0.5558020000000 1.0
C      1  0.4349270000000  0.4767870000000  0.4493640000000 1.0
C      1  0.4782110000000  0.4673890000000  0.4053640000000 1.0
C      1  0.5394730000000  0.4777190000000  0.5308920000000 1.0
C      1  0.4547870000000  0.4851650000000  0.4756610000000 1.0
C      1  0.4278920000000  0.5258730000000  0.4644760000000 1.0
C      1  0.5067900000000  0.3958790000000  0.5367170000000 1.0
C      1  0.5065940000000  0.4441390000000  0.4625360000000 1.0
C      1  0.5141990000000  0.6106150000000  0.5142830000000 1.0
C      1  0.4106440000000  0.5026530000000  0.5060560000000 1.0
C      1  0.4947840000000  0.4096590000000  0.4938420000000 1.0
C      1  0.5336520000000  0.4999040000000  0.4982760000000 1.0
C      1  0.5531540000000  0.4714640000000  0.5605040000000 1.0
C      1  0.4839960000000  0.4635450000000  0.4594450000000 1.0
C      1  0.5488560000000  0.5645690000000  0.5058070000000 1.0
C      1  0.4552780000000  0.5374560000000  0.4599910000000 1.0
C      1  0.5787060000000  0.4760470000000  0.4302530000000 1.0
C      1  0.4424920000000  0.5012810000000  0.4993140000000 1.0
C      1  0.4091710000000  0.4916370000000  0.5350760000000 1.0
C      1  0.5178300000000  0.5673700000000  0.4565530000000 1.0
C      1  0.5172940000000  0.4220570000000  0.5655250000000 1.0
C      1  0.5397000000000  0.5394750000000  0.5268620000000 1.0
C      1  0.4343520000000  0.4258130000000  0.4539120000000 1.0
C      1  0.5875760000000  0.4771740000000  0.5135450000000 1.0
C      1  0.5160230000000  0.4479310000000  0.5261590000000 1.0
C      1  0.3979480000000  0.4821730000000  0.4859900000000 1.0
C      1  0.5706010000000  0.5199020000000  0.4463010000000 1.0
C      1  0.5657070000000  0.4562610000000  0.4874640000000 1.0
C      1  0.4188420000000  0.4378140000000  0.4781610000000 1.0
C      1  0.5381390000000  0.4738470000000  0.4831470000000 1.0
C      1  0.5818960000000  0.4942320000000  0.4515320000000 1.0
C      1  0.5099000000000  0.5781420000000  0.5219280000000 1.0
C      1  0.5038850000000  0.4522890000000  0.5576320000000 1.0
END
