TITL C-2847950-6905-365 0.00123007055110765 125000 -910.932569692329 0 0 164 (C1) n - 1
REM
REM in /home/bkarasulu/work/CARBON/AIRSS/Generating-Clusters/AIREBO/with-SteepDescent/Only-C1/SD-CG-opt/Try1-1.4A-POS3A/HFTN-CG
REM
REM
REM
REM
REM
REM ./C.cell (11c1c37f851c82e70ff6c80c92926a4b)
REM
REM compiler GCC version 9.2.1 20190827 (Red Hat 9.2.1-1)
REM options -cpp -mtune=generic -march=x86-64 -g -O0 -fpre-include=/usr/include/finclude/math-vector-fortran.h
REM seed -1839161749 -752657 -1657567206 -2084595023 -1186300138 882936705 -90417884 870923191 -238377843 815619730 -2107648978 -1686380764 438002247 -667220553 1157448505 -1129163516 676415911 379392826 897430679 1653933119 419568768 829378129 1328496424 440249340 1701783537 -1643573379 -317383004 -590753397 -812295184 -1030166835 -1005507931 -681468461 2121576778
REM
CELL 1.54180   50.00000   50.00000   50.00000   90.00000   90.00000   90.00000
LATT -1
SFAC C  
C      1  0.4925610000000  0.4417570000000  0.5841340000000 1.0
C      1  0.4657690000000  0.4052680000000  0.4849690000000 1.0
C      1  0.4381310000000  0.4499690000000  0.5585310000000 1.0
C      1  0.4765150000000  0.5027060000000  0.5927350000000 1.0
C      1  0.5139510000000  0.5895780000000  0.4481540000000 1.0
C      1  0.5594060000000  0.5165890000000  0.5838810000000 1.0
C      1  0.5360200000000  0.5044410000000  0.5514890000000 1.0
C      1  0.5866670000000  0.5519400000000  0.4754660000000 1.0
C      1  0.4170390000000  0.4871880000000  0.4397240000000 1.0
C      1  0.5384610000000  0.5391890000000  0.4989200000000 1.0
C      1  0.4900550000000  0.4619680000000  0.4061460000000 1.0
C      1  0.5292030000000  0.5039270000000  0.5908180000000 1.0
C      1  0.4936770000000  0.5892270000000  0.5645250000000 1.0
C      1  0.5141940000000  0.5621150000000  0.4770730000000 1.0
C      1  0.4914480000000  0.4507300000000  0.4857920000000 1.0
C      1  0.4909480000000  0.5077330000000  0.5236910000000 1.0
C      1  0.5296010000000  0.4075630000000  0.5198780000000 1.0
C      1  0.4416350000000  0.4382340000000  0.5344950000000 1.0
C      1  0.4710650000000  0.4663560000000  0.5429970000000 1.0
C      1  0.4800580000000  0.4258130000000  0.4686730000000 1.0
C      1  0.5625830000000  0.4906650000000  0.4235090000000 1.0
C      1  0.4820530000000  0.5269680000000  0.6111470000000 1.0
C      1  0.4414910000000  0.3987310000000  0.4715000000000 1.0
C      1  0.4765290000000  0.5148260000000  0.5609600000000 1.0
C      1  0.4925890000000  0.5776900000000  0.4346800000000 1.0
C      1  0.5540810000000  0.5603620000000  0.4809370000000 1.0
C      1  0.5300160000000  0.4765170000000  0.6057730000000 1.0
C      1  0.4928200000000  0.5403380000000  0.5519780000000 1.0
C      1  0.4260720000000  0.5802320000000  0.5073580000000 1.0
C      1  0.5546000000000  0.4692190000000  0.4704580000000 1.0
C      1  0.5216830000000  0.4081900000000  0.4269190000000 1.0
C      1  0.4437630000000  0.4779980000000  0.4000460000000 1.0
C      1  0.5734420000000  0.5709670000000  0.5558260000000 1.0
C      1  0.5265920000000  0.5137860000000  0.4084910000000 1.0
C      1  0.5928980000000  0.5592750000000  0.5328870000000 1.0
C      1  0.5055030000000  0.4389760000000  0.5143030000000 1.0
C      1  0.4337850000000  0.4973980000000  0.4210960000000 1.0
C      1  0.4785460000000  0.5107950000000  0.4078240000000 1.0
C      1  0.5354710000000  0.5502710000000  0.5273410000000 1.0
C      1  0.4951490000000  0.4146650000000  0.4252520000000 1.0
C      1  0.5678390000000  0.5321250000000  0.5128940000000 1.0
C      1  0.5553750000000  0.4442590000000  0.4393190000000 1.0
C      1  0.4187510000000  0.5112330000000  0.5011510000000 1.0
C      1  0.4657020000000  0.4948150000000  0.5370920000000 1.0
C      1  0.4272180000000  0.4950940000000  0.5770470000000 1.0
C      1  0.5247810000000  0.4106690000000  0.4941180000000 1.0
C      1  0.6036800000000  0.5277310000000  0.5410600000000 1.0
C      1  0.4659550000000  0.4476700000000  0.5160830000000 1.0
C      1  0.4601200000000  0.5125590000000  0.4363480000000 1.0
C      1  0.4542100000000  0.4347450000000  0.4529290000000 1.0
C      1  0.4156630000000  0.4320690000000  0.4958170000000 1.0
C      1  0.5256230000000  0.5370030000000  0.5566410000000 1.0
C      1  0.5035840000000  0.4547740000000  0.4542870000000 1.0
C      1  0.4657530000000  0.3990150000000  0.5562190000000 1.0
C      1  0.5564320000000  0.5742770000000  0.5275410000000 1.0
C      1  0.4839930000000  0.5275090000000  0.4975350000000 1.0
C      1  0.4394670000000  0.5044360000000  0.5272490000000 1.0
C      1  0.5705730000000  0.5381860000000  0.4521010000000 1.0
C      1  0.5497460000000  0.4351350000000  0.5760980000000 1.0
C      1  0.4982470000000  0.5564990000000  0.4171470000000 1.0
C      1  0.4380390000000  0.4779850000000  0.4903610000000 1.0
C      1  0.5168810000000  0.5335770000000  0.4587740000000 1.0
C      1  0.5982090000000  0.4742570000000  0.5003130000000 1.0
C      1  0.5817490000000  0.4555240000000  0.4557400000000 1.0
C      1  0.4497130000000  0.3993290000000  0.5327950000000 1.0
C      1  0.4792930000000  0.6045930000000  0.4775770000000 1.0
C      1  0.4580850000000  0.5532510000000  0.5669460000000 1.0
C      1  0.3950540000000  0.5011930000000  0.5233870000000 1.0
C      1  0.4534590000000  0.5440930000000  0.5172660000000 1.0
C      1  0.5608990000000  0.5239250000000  0.5433970000000 1.0
C      1  0.4937640000000  0.4426950000000  0.5442480000000 1.0
C      1  0.5909070000000  0.4979590000000  0.4802380000000 1.0
C      1  0.5231670000000  0.5355260000000  0.5905080000000 1.0
C      1  0.4857770000000  0.5623580000000  0.5769540000000 1.0
C      1  0.5403010000000  0.5669540000000  0.5633190000000 1.0
C      1  0.5384940000000  0.5694730000000  0.4544510000000 1.0
C      1  0.5509310000000  0.4737410000000  0.4041110000000 1.0
C      1  0.4840810000000  0.4187580000000  0.5638540000000 1.0
C      1  0.5568480000000  0.5225720000000  0.4184870000000 1.0
C      1  0.4181230000000  0.5518960000000  0.4972630000000 1.0
C      1  0.4562990000000  0.5851060000000  0.5164490000000 1.0
C      1  0.4936680000000  0.4872850000000  0.4532290000000 1.0
C      1  0.4983210000000  0.5457450000000  0.5994200000000 1.0
C      1  0.4859730000000  0.5496460000000  0.5232900000000 1.0
C      1  0.5773580000000  0.4964920000000  0.5748160000000 1.0
C      1  0.5030310000000  0.4964450000000  0.5717530000000 1.0
C      1  0.5521810000000  0.5541610000000  0.4301840000000 1.0
C      1  0.5444760000000  0.4165630000000  0.4406760000000 1.0
C      1  0.5780440000000  0.5695570000000  0.5032410000000 1.0
C      1  0.4267970000000  0.4249280000000  0.4706490000000 1.0
C      1  0.5422920000000  0.4263970000000  0.5378660000000 1.0
C      1  0.4243640000000  0.4190640000000  0.5196830000000 1.0
C      1  0.5629820000000  0.5092210000000  0.4892700000000 1.0
C      1  0.5858070000000  0.4483070000000  0.5422550000000 1.0
C      1  0.4806670000000  0.4753850000000  0.5028520000000 1.0
C      1  0.4545310000000  0.4823260000000  0.5901960000000 1.0
C      1  0.5352730000000  0.4529520000000  0.4902140000000 1.0
C      1  0.3785490000000  0.4971820000000  0.4724360000000 1.0
C      1  0.5470400000000  0.5198280000000  0.4635960000000 1.0
C      1  0.5111860000000  0.4230160000000  0.4648750000000 1.0
C      1  0.4731700000000  0.4824150000000  0.3957840000000 1.0
C      1  0.5418870000000  0.4903390000000  0.5060680000000 1.0
C      1  0.5070760000000  0.6036710000000  0.4711250000000 1.0
C      1  0.4840920000000  0.5323480000000  0.4491680000000 1.0
C      1  0.5196830000000  0.4700000000000  0.4082990000000 1.0
C      1  0.3966950000000  0.5206060000000  0.4691600000000 1.0
C      1  0.5361560000000  0.4735450000000  0.5657710000000 1.0
C      1  0.4751860000000  0.5417250000000  0.4114030000000 1.0
C      1  0.4321440000000  0.5727610000000  0.4540680000000 1.0
C      1  0.4134330000000  0.5470720000000  0.4661640000000 1.0
C      1  0.4096230000000  0.4624750000000  0.5008690000000 1.0
C      1  0.4388970000000  0.4620010000000  0.4617770000000 1.0
C      1  0.4802190000000  0.4429510000000  0.4325740000000 1.0
C      1  0.4813440000000  0.5534460000000  0.4756920000000 1.0
C      1  0.5213070000000  0.5909910000000  0.5595440000000 1.0
C      1  0.4184620000000  0.4967320000000  0.4703940000000 1.0
C      1  0.4063710000000  0.4622750000000  0.4543520000000 1.0
C      1  0.5430400000000  0.4252550000000  0.4720520000000 1.0
C      1  0.5320100000000  0.4641600000000  0.4380240000000 1.0
C      1  0.4538990000000  0.4630710000000  0.4248990000000 1.0
C      1  0.5975990000000  0.4720830000000  0.5293950000000 1.0
C      1  0.4447990000000  0.5234460000000  0.5696240000000 1.0
C      1  0.4548880000000  0.5658110000000  0.5425160000000 1.0
C      1  0.5866860000000  0.4520600000000  0.4868770000000 1.0
C      1  0.5990500000000  0.5362230000000  0.5098940000000 1.0
C      1  0.3974750000000  0.5342810000000  0.5142920000000 1.0
C      1  0.4708120000000  0.5820980000000  0.4906800000000 1.0
C      1  0.5670480000000  0.4343540000000  0.5262110000000 1.0
C      1  0.4535050000000  0.5508560000000  0.4277470000000 1.0
C      1  0.5150180000000  0.4713850000000  0.5104140000000 1.0
C      1  0.4413950000000  0.5341040000000  0.4548230000000 1.0
C      1  0.6063980000000  0.5253830000000  0.4823430000000 1.0
C      1  0.5650190000000  0.4422630000000  0.5002850000000 1.0
C      1  0.5102890000000  0.4884830000000  0.5394690000000 1.0
C      1  0.5776860000000  0.4471990000000  0.5704870000000 1.0
C      1  0.5253460000000  0.4479570000000  0.5474920000000 1.0
C      1  0.5014520000000  0.5083160000000  0.4755360000000 1.0
C      1  0.5174350000000  0.5893940000000  0.4968460000000 1.0
C      1  0.4140940000000  0.5076810000000  0.5497070000000 1.0
C      1  0.5221660000000  0.5406150000000  0.4259310000000 1.0
C      1  0.4625110000000  0.4823420000000  0.4500040000000 1.0
C      1  0.4043370000000  0.4718010000000  0.5331390000000 1.0
C      1  0.5454320000000  0.4918520000000  0.4510980000000 1.0
C      1  0.4966400000000  0.5785150000000  0.5209560000000 1.0
C      1  0.4651180000000  0.4576740000000  0.5744750000000 1.0
C      1  0.5035390000000  0.4957380000000  0.4235730000000 1.0
C      1  0.5632170000000  0.5426370000000  0.5688840000000 1.0
C      1  0.5653240000000  0.4948960000000  0.5264660000000 1.0
C      1  0.4652830000000  0.5709590000000  0.4513570000000 1.0
C      1  0.5851110000000  0.4875570000000  0.4488310000000 1.0
C      1  0.4183850000000  0.4690410000000  0.5581060000000 1.0
C      1  0.4773430000000  0.5976700000000  0.5400430000000 1.0
C      1  0.5921350000000  0.4996110000000  0.5468480000000 1.0
C      1  0.4308220000000  0.5344640000000  0.5406520000000 1.0
C      1  0.5885210000000  0.5178910000000  0.4358940000000 1.0
C      1  0.5284880000000  0.5893740000000  0.5278100000000 1.0
C      1  0.3892630000000  0.4702810000000  0.4766420000000 1.0
C      1  0.5240010000000  0.5142860000000  0.4957240000000 1.0
C      1  0.4628500000000  0.4142470000000  0.5106340000000 1.0
C      1  0.4615700000000  0.5021730000000  0.4940170000000 1.0
C      1  0.4437100000000  0.5306240000000  0.4886060000000 1.0
C      1  0.5254250000000  0.5118740000000  0.3782060000000 1.0
C      1  0.5648130000000  0.4721660000000  0.5771340000000 1.0
C      1  0.5219130000000  0.4512640000000  0.5871540000000 1.0
END
