TITL C-2847948-6138-728 -0.00361541383157708 125000 -939.370930892069 0 0 168 (C1) n - 1
REM
REM in /home/bkarasulu/work/CARBON/AIRSS/Generating-Clusters/AIREBO/with-SteepDescent/Only-C1/SD-CG-opt/Try1-1.4A-POS3A/HFTN-CG
REM
REM
REM
REM
REM
REM ./C.cell (11c1c37f851c82e70ff6c80c92926a4b)
REM
REM compiler GCC version 9.2.1 20190827 (Red Hat 9.2.1-1)
REM options -cpp -mtune=generic -march=x86-64 -g -O0 -fpre-include=/usr/include/finclude/math-vector-fortran.h
REM seed 2008088017 -1202325220 1759954355 -1952252028 223567504 691849954 970694772 1809984759 12646927 -1448615599 -468811782 329850913 -1296177141 330366679 -478175080 925521752 254305191 -1675864387 -1212718730 199016106 -1212918877 -1748144594 1944986593 -1056283802 838083912 1073977919 -1344889714 -1537660388 -1429325580 1606185859 -819747409 1972422660 -1388256274
REM
CELL 1.54180   50.00000   50.00000   50.00000   90.00000   90.00000   90.00000
LATT -1
SFAC C  
C      1  0.3864030000000  0.5614880000000  0.5192140000000 1.0
C      1  0.5126880000000  0.4679210000000  0.3947540000000 1.0
C      1  0.5128670000000  0.4009480000000  0.5226250000000 1.0
C      1  0.4837580000000  0.4117880000000  0.5091120000000 1.0
C      1  0.5810610000000  0.4607750000000  0.5537050000000 1.0
C      1  0.5786630000000  0.4880460000000  0.5740570000000 1.0
C      1  0.5045470000000  0.5918310000000  0.5204240000000 1.0
C      1  0.4924450000000  0.5975940000000  0.4961850000000 1.0
C      1  0.5378370000000  0.4768140000000  0.5282760000000 1.0
C      1  0.5154300000000  0.5809640000000  0.4508350000000 1.0
C      1  0.4117390000000  0.4971790000000  0.5042660000000 1.0
C      1  0.4130060000000  0.5942570000000  0.4710050000000 1.0
C      1  0.5252760000000  0.4564970000000  0.5481740000000 1.0
C      1  0.5627220000000  0.4494590000000  0.5777210000000 1.0
C      1  0.5088390000000  0.4713550000000  0.5720180000000 1.0
C      1  0.4505470000000  0.6006460000000  0.5509600000000 1.0
C      1  0.4867330000000  0.5032690000000  0.5413030000000 1.0
C      1  0.4725870000000  0.5457110000000  0.5876310000000 1.0
C      1  0.4909320000000  0.5550560000000  0.5130590000000 1.0
C      1  0.5806990000000  0.5375190000000  0.5100280000000 1.0
C      1  0.4992070000000  0.5516990000000  0.4292490000000 1.0
C      1  0.4203220000000  0.4390860000000  0.4566760000000 1.0
C      1  0.4855040000000  0.5360760000000  0.6144570000000 1.0
C      1  0.4942640000000  0.5765690000000  0.4758780000000 1.0
C      1  0.4458560000000  0.5909820000000  0.4628700000000 1.0
C      1  0.5291560000000  0.5056010000000  0.5334240000000 1.0
C      1  0.4597060000000  0.5007630000000  0.4993290000000 1.0
C      1  0.5693910000000  0.4410440000000  0.5284780000000 1.0
C      1  0.5834060000000  0.4276790000000  0.5052860000000 1.0
C      1  0.5237270000000  0.4630830000000  0.5980140000000 1.0
C      1  0.5766280000000  0.5335760000000  0.4357440000000 1.0
C      1  0.4754890000000  0.5536270000000  0.4761200000000 1.0
C      1  0.4815840000000  0.3876910000000  0.4860090000000 1.0
C      1  0.4660410000000  0.4858040000000  0.6077400000000 1.0
C      1  0.5273530000000  0.5147010000000  0.6034960000000 1.0
C      1  0.5284500000000  0.5614910000000  0.4286170000000 1.0
C      1  0.4190350000000  0.4446130000000  0.5353670000000 1.0
C      1  0.5900850000000  0.5098210000000  0.5601740000000 1.0
C      1  0.5605950000000  0.5179630000000  0.4816850000000 1.0
C      1  0.4673090000000  0.4065540000000  0.5459200000000 1.0
C      1  0.5650720000000  0.4065020000000  0.4904730000000 1.0
C      1  0.5816320000000  0.4852860000000  0.4496370000000 1.0
C      1  0.4516990000000  0.4272330000000  0.5340010000000 1.0
C      1  0.5356550000000  0.4992740000000  0.4739330000000 1.0
C      1  0.4678570000000  0.4274240000000  0.4449090000000 1.0
C      1  0.4683740000000  0.5196160000000  0.5215830000000 1.0
C      1  0.4887720000000  0.5735330000000  0.5403360000000 1.0
C      1  0.5120060000000  0.3776370000000  0.4745920000000 1.0
C      1  0.5833990000000  0.5151840000000  0.4594460000000 1.0
C      1  0.4881400000000  0.5709160000000  0.5801630000000 1.0
C      1  0.4538050000000  0.5132960000000  0.4739060000000 1.0
C      1  0.5189570000000  0.4415730000000  0.4324620000000 1.0
C      1  0.5318910000000  0.5886890000000  0.5198540000000 1.0
C      1  0.4761890000000  0.4698570000000  0.4226990000000 1.0
C      1  0.4046410000000  0.4641940000000  0.4636780000000 1.0
C      1  0.6052890000000  0.4877370000000  0.4997460000000 1.0
C      1  0.5501020000000  0.4916830000000  0.4374410000000 1.0
C      1  0.4689800000000  0.5233240000000  0.5622600000000 1.0
C      1  0.5831350000000  0.5370240000000  0.5616400000000 1.0
C      1  0.5291220000000  0.5350980000000  0.4574360000000 1.0
C      1  0.4950830000000  0.5413690000000  0.5499700000000 1.0
C      1  0.4227190000000  0.4485680000000  0.4958720000000 1.0
C      1  0.5865660000000  0.4594550000000  0.4972270000000 1.0
C      1  0.4073860000000  0.5249100000000  0.4927510000000 1.0
C      1  0.4968020000000  0.4195130000000  0.4458330000000 1.0
C      1  0.4606950000000  0.4927280000000  0.4515940000000 1.0
C      1  0.4346280000000  0.5165090000000  0.5815440000000 1.0
C      1  0.4908090000000  0.3973120000000  0.5456460000000 1.0
C      1  0.5949880000000  0.5448120000000  0.4209220000000 1.0
C      1  0.4320680000000  0.5348130000000  0.4739520000000 1.0
C      1  0.4899970000000  0.4428640000000  0.5029130000000 1.0
C      1  0.5447140000000  0.4913920000000  0.3979100000000 1.0
C      1  0.5195910000000  0.5051190000000  0.4445370000000 1.0
C      1  0.5029510000000  0.4918280000000  0.5164480000000 1.0
C      1  0.4232380000000  0.5490410000000  0.4363640000000 1.0
C      1  0.4413800000000  0.5403950000000  0.5861200000000 1.0
C      1  0.4455050000000  0.5617170000000  0.4801860000000 1.0
C      1  0.4490390000000  0.5448810000000  0.4154330000000 1.0
C      1  0.4321750000000  0.4557410000000  0.4348810000000 1.0
C      1  0.5198960000000  0.4267330000000  0.5014500000000 1.0
C      1  0.4483010000000  0.4266420000000  0.4707270000000 1.0
C      1  0.5026520000000  0.5105180000000  0.4155550000000 1.0
C      1  0.4275790000000  0.5220510000000  0.4072580000000 1.0
C      1  0.5057410000000  0.3874060000000  0.4430620000000 1.0
C      1  0.5612880000000  0.4759680000000  0.5054190000000 1.0
C      1  0.4922220000000  0.4632640000000  0.5265610000000 1.0
C      1  0.4781370000000  0.4661870000000  0.4564490000000 1.0
C      1  0.4081610000000  0.5234220000000  0.4528790000000 1.0
C      1  0.5157210000000  0.5235910000000  0.4868830000000 1.0
C      1  0.4682110000000  0.4510090000000  0.4799160000000 1.0
C      1  0.5745670000000  0.5971120000000  0.5455720000000 1.0
C      1  0.4861650000000  0.5883410000000  0.4385880000000 1.0
C      1  0.5473470000000  0.4694980000000  0.4624010000000 1.0
C      1  0.5994340000000  0.5170820000000  0.4893900000000 1.0
C      1  0.5341930000000  0.6215010000000  0.4695020000000 1.0
C      1  0.5917290000000  0.5018050000000  0.5339150000000 1.0
C      1  0.5190830000000  0.4199620000000  0.5788340000000 1.0
C      1  0.4282530000000  0.5848430000000  0.4982040000000 1.0
C      1  0.4495260000000  0.4692810000000  0.4987930000000 1.0
C      1  0.4861300000000  0.6176220000000  0.4756150000000 1.0
C      1  0.4189850000000  0.5065330000000  0.4282150000000 1.0
C      1  0.5915540000000  0.5505330000000  0.5378530000000 1.0
C      1  0.5314630000000  0.4648550000000  0.4985460000000 1.0
C      1  0.5116490000000  0.5295700000000  0.5772270000000 1.0
C      1  0.4727930000000  0.5878600000000  0.5613840000000 1.0
C      1  0.5362090000000  0.5942910000000  0.4697470000000 1.0
C      1  0.4857760000000  0.4547550000000  0.5588470000000 1.0
C      1  0.4071930000000  0.5787820000000  0.5229170000000 1.0
C      1  0.5341010000000  0.5148510000000  0.4086390000000 1.0
C      1  0.5531410000000  0.5797270000000  0.5419440000000 1.0
C      1  0.4564990000000  0.4719300000000  0.5590450000000 1.0
C      1  0.5053410000000  0.4101600000000  0.4755670000000 1.0
C      1  0.4290780000000  0.4219160000000  0.5120670000000 1.0
C      1  0.4545120000000  0.4069900000000  0.4951070000000 1.0
C      1  0.4272850000000  0.4836540000000  0.4774450000000 1.0
C      1  0.5731730000000  0.4359670000000  0.4371260000000 1.0
C      1  0.4579570000000  0.4472230000000  0.4275920000000 1.0
C      1  0.5436210000000  0.4286600000000  0.4494560000000 1.0
C      1  0.5418440000000  0.3811530000000  0.4846790000000 1.0
C      1  0.5515300000000  0.4984950000000  0.5866640000000 1.0
C      1  0.5429110000000  0.5653310000000  0.5668850000000 1.0
C      1  0.4323650000000  0.4845400000000  0.4436290000000 1.0
C      1  0.4207080000000  0.5741980000000  0.4471340000000 1.0
C      1  0.4602650000000  0.4571890000000  0.5285770000000 1.0
C      1  0.4707470000000  0.6041290000000  0.4554420000000 1.0
C      1  0.3879520000000  0.5409410000000  0.5013430000000 1.0
C      1  0.5509150000000  0.4685480000000  0.5952530000000 1.0
C      1  0.5085910000000  0.4625930000000  0.4565800000000 1.0
C      1  0.5026880000000  0.5140460000000  0.6190610000000 1.0
C      1  0.5961110000000  0.4673180000000  0.4670200000000 1.0
C      1  0.5475710000000  0.5466860000000  0.4799640000000 1.0
C      1  0.4849400000000  0.5334000000000  0.4536460000000 1.0
C      1  0.5367990000000  0.4426300000000  0.4766480000000 1.0
C      1  0.6027230000000  0.4735500000000  0.5305670000000 1.0
C      1  0.4019310000000  0.4657990000000  0.5061210000000 1.0
C      1  0.5379490000000  0.5161210000000  0.5609550000000 1.0
C      1  0.3878560000000  0.4529200000000  0.5287090000000 1.0
C      1  0.5005320000000  0.4994750000000  0.5680600000000 1.0
C      1  0.5680880000000  0.4648020000000  0.4269430000000 1.0
C      1  0.4428440000000  0.5196560000000  0.5405300000000 1.0
C      1  0.5400710000000  0.4352050000000  0.5669850000000 1.0
C      1  0.5131720000000  0.4243730000000  0.4038920000000 1.0
C      1  0.5694310000000  0.5054960000000  0.5119900000000 1.0
C      1  0.4245430000000  0.4984000000000  0.5325940000000 1.0
C      1  0.4721420000000  0.5690100000000  0.4194300000000 1.0
C      1  0.4588420000000  0.4952110000000  0.5785130000000 1.0
C      1  0.5698070000000  0.4116740000000  0.4600630000000 1.0
C      1  0.4929750000000  0.4268130000000  0.5725510000000 1.0
C      1  0.4764850000000  0.5294950000000  0.4207610000000 1.0
C      1  0.5090400000000  0.6338540000000  0.4699890000000 1.0
C      1  0.4340380000000  0.5922570000000  0.5309440000000 1.0
C      1  0.5387820000000  0.4618250000000  0.4136450000000 1.0
C      1  0.5565690000000  0.5409550000000  0.5688070000000 1.0
C      1  0.5164010000000  0.5632340000000  0.5766730000000 1.0
C      1  0.5330820000000  0.5274980000000  0.5120190000000 1.0
C      1  0.5524580000000  0.5546600000000  0.5186170000000 1.0
C      1  0.5200470000000  0.5516860000000  0.5292510000000 1.0
C      1  0.5445130000000  0.5752770000000  0.4927600000000 1.0
C      1  0.4881110000000  0.4901470000000  0.6234380000000 1.0
C      1  0.5407860000000  0.4372980000000  0.5262350000000 1.0
C      1  0.5466360000000  0.5348900000000  0.4287860000000 1.0
C      1  0.4908090000000  0.5035330000000  0.4625780000000 1.0
C      1  0.4866070000000  0.5300170000000  0.4948250000000 1.0
C      1  0.5415340000000  0.3949380000000  0.5121160000000 1.0
C      1  0.5077620000000  0.4826580000000  0.4840330000000 1.0
C      1  0.4278950000000  0.4730550000000  0.5450340000000 1.0
C      1  0.3945620000000  0.4924480000000  0.4564670000000 1.0
C      1  0.4934300000000  0.4828920000000  0.4067120000000 1.0
END
