TITL C-2847944-5688-387 0.000985817307344069 125000 -848.320431081423 0 0 162 (C1) n - 1
REM
REM in /home/bkarasulu/work/CARBON/AIRSS/Generating-Clusters/AIREBO/with-SteepDescent/Only-C1/SD-CG-opt/Try1-1.4A-POS3A/HFTN-CG
REM
REM
REM
REM
REM
REM ./C.cell (11c1c37f851c82e70ff6c80c92926a4b)
REM
REM compiler GCC version 9.2.1 20190827 (Red Hat 9.2.1-1)
REM options -cpp -mtune=generic -march=x86-64 -g -O0 -fpre-include=/usr/include/finclude/math-vector-fortran.h
REM seed -1132799389 1188276900 -1836571402 -1948128998 1024568782 1109269005 -1688027374 1627275626 1077239981 -2146639890 43821761 -213743100 652856024 -240621425 992032711 1792679831 -1140219226 -492486393 435481422 1126176380 -1359800708 -996118311 931409265 -1903887612 -225701666 -1828700481 -1558066344 -77481082 1951744387 2052930009 1276883149 1105600643 -562981925
REM
CELL 1.54180   50.00000   50.00000   50.00000   90.00000   90.00000   90.00000
LATT -1
SFAC C  
C      1  0.5213180000000  0.4936860000000  0.4082990000000 1.0
C      1  0.5517260000000  0.4218760000000  0.4462030000000 1.0
C      1  0.4755530000000  0.4103010000000  0.5345290000000 1.0
C      1  0.4795490000000  0.4965020000000  0.6024620000000 1.0
C      1  0.5214300000000  0.4486610000000  0.5444860000000 1.0
C      1  0.4441980000000  0.4978770000000  0.4564100000000 1.0
C      1  0.5843120000000  0.5589800000000  0.5007260000000 1.0
C      1  0.5426380000000  0.5242260000000  0.5448890000000 1.0
C      1  0.4720510000000  0.5302620000000  0.5649400000000 1.0
C      1  0.5773530000000  0.4899380000000  0.5911520000000 1.0
C      1  0.5307090000000  0.5865460000000  0.5493480000000 1.0
C      1  0.5029530000000  0.5262030000000  0.4479700000000 1.0
C      1  0.4850290000000  0.4600830000000  0.4256220000000 1.0
C      1  0.5357150000000  0.4949750000000  0.5356530000000 1.0
C      1  0.5109000000000  0.4945560000000  0.5590020000000 1.0
C      1  0.5273410000000  0.5310120000000  0.5837690000000 1.0
C      1  0.5028400000000  0.5562480000000  0.4184580000000 1.0
C      1  0.4952680000000  0.4207940000000  0.5559860000000 1.0
C      1  0.5047550000000  0.3825930000000  0.4939250000000 1.0
C      1  0.4639380000000  0.4118790000000  0.4855830000000 1.0
C      1  0.4204020000000  0.5249350000000  0.4732430000000 1.0
C      1  0.4511460000000  0.5101470000000  0.5471990000000 1.0
C      1  0.4234040000000  0.4861830000000  0.5755860000000 1.0
C      1  0.5695450000000  0.5833180000000  0.4978990000000 1.0
C      1  0.4032270000000  0.4393720000000  0.5526180000000 1.0
C      1  0.5073000000000  0.4932840000000  0.5193930000000 1.0
C      1  0.4714180000000  0.5144830000000  0.4049810000000 1.0
C      1  0.5301470000000  0.5988060000000  0.4834840000000 1.0
C      1  0.4776620000000  0.4757850000000  0.4876670000000 1.0
C      1  0.4328160000000  0.4470530000000  0.5504320000000 1.0
C      1  0.4695520000000  0.5451430000000  0.6130340000000 1.0
C      1  0.4911390000000  0.4498280000000  0.4703060000000 1.0
C      1  0.5952000000000  0.4424470000000  0.5088670000000 1.0
C      1  0.4909550000000  0.4494660000000  0.5389210000000 1.0
C      1  0.5442740000000  0.4389100000000  0.5792340000000 1.0
C      1  0.4040750000000  0.4788560000000  0.4403960000000 1.0
C      1  0.5224520000000  0.4215850000000  0.5081680000000 1.0
C      1  0.5270030000000  0.4673960000000  0.5723130000000 1.0
C      1  0.5186400000000  0.5950720000000  0.5214100000000 1.0
C      1  0.4864160000000  0.4804230000000  0.5400900000000 1.0
C      1  0.5512310000000  0.5853890000000  0.5217540000000 1.0
C      1  0.5293010000000  0.5044070000000  0.4821840000000 1.0
C      1  0.6015870000000  0.5002550000000  0.5025820000000 1.0
C      1  0.4003670000000  0.5013290000000  0.4577710000000 1.0
C      1  0.5513400000000  0.4721120000000  0.4737470000000 1.0
C      1  0.4527050000000  0.4853360000000  0.5970580000000 1.0
C      1  0.4263080000000  0.5582770000000  0.5257120000000 1.0
C      1  0.4639640000000  0.4889520000000  0.5158790000000 1.0
C      1  0.5033020000000  0.5219100000000  0.4142240000000 1.0
C      1  0.5714090000000  0.4833340000000  0.5221130000000 1.0
C      1  0.4772180000000  0.4516060000000  0.5111420000000 1.0
C      1  0.4095840000000  0.4975740000000  0.4902960000000 1.0
C      1  0.4855710000000  0.4232600000000  0.4654350000000 1.0
C      1  0.5586260000000  0.4577640000000  0.5036980000000 1.0
C      1  0.5699920000000  0.5128570000000  0.4123260000000 1.0
C      1  0.5055590000000  0.4079920000000  0.4520160000000 1.0
C      1  0.3783990000000  0.4335020000000  0.5519790000000 1.0
C      1  0.4327320000000  0.5760470000000  0.4813260000000 1.0
C      1  0.5052860000000  0.5281100000000  0.5580480000000 1.0
C      1  0.4146240000000  0.4220830000000  0.4680730000000 1.0
C      1  0.5791480000000  0.5195150000000  0.5033760000000 1.0
C      1  0.5091540000000  0.4664860000000  0.4487090000000 1.0
C      1  0.5369060000000  0.5274450000000  0.4465970000000 1.0
C      1  0.5080620000000  0.5241150000000  0.5243970000000 1.0
C      1  0.4625200000000  0.5816280000000  0.5512360000000 1.0
C      1  0.4379850000000  0.5460490000000  0.4888620000000 1.0
C      1  0.5308280000000  0.4482860000000  0.4668880000000 1.0
C      1  0.5815360000000  0.4652380000000  0.4330140000000 1.0
C      1  0.4430600000000  0.5053560000000  0.4173350000000 1.0
C      1  0.4760800000000  0.5168050000000  0.5272190000000 1.0
C      1  0.5427730000000  0.5627410000000  0.5657710000000 1.0
C      1  0.4302490000000  0.5779650000000  0.4534430000000 1.0
C      1  0.5950050000000  0.5259230000000  0.4529130000000 1.0
C      1  0.5783890000000  0.5421340000000  0.5283820000000 1.0
C      1  0.5481020000000  0.4973090000000  0.4547500000000 1.0
C      1  0.4257790000000  0.4747600000000  0.4733980000000 1.0
C      1  0.4347980000000  0.4079530000000  0.4732790000000 1.0
C      1  0.5335750000000  0.4791670000000  0.4319300000000 1.0
C      1  0.4386460000000  0.4592040000000  0.4380450000000 1.0
C      1  0.5475040000000  0.4356010000000  0.5269790000000 1.0
C      1  0.4789650000000  0.4364490000000  0.4055770000000 1.0
C      1  0.4807850000000  0.5893500000000  0.4476850000000 1.0
C      1  0.4306360000000  0.5248720000000  0.4408000000000 1.0
C      1  0.4826720000000  0.4227170000000  0.5836500000000 1.0
C      1  0.5594540000000  0.4487730000000  0.5559670000000 1.0
C      1  0.4909080000000  0.4087880000000  0.5062480000000 1.0
C      1  0.4570080000000  0.4329870000000  0.5076810000000 1.0
C      1  0.5106220000000  0.4805820000000  0.4931840000000 1.0
C      1  0.5367540000000  0.5656230000000  0.4833640000000 1.0
C      1  0.5242670000000  0.5474610000000  0.5085040000000 1.0
C      1  0.4534460000000  0.4614200000000  0.4685850000000 1.0
C      1  0.5162550000000  0.5632450000000  0.5870830000000 1.0
C      1  0.5031620000000  0.6072300000000  0.4951940000000 1.0
C      1  0.5065660000000  0.5609640000000  0.5492390000000 1.0
C      1  0.4364500000000  0.4795320000000  0.5466070000000 1.0
C      1  0.4985330000000  0.5680160000000  0.5169620000000 1.0
C      1  0.4811670000000  0.5903680000000  0.4794470000000 1.0
C      1  0.4441610000000  0.5360540000000  0.5835210000000 1.0
C      1  0.5253350000000  0.4538680000000  0.4978790000000 1.0
C      1  0.5502390000000  0.5033370000000  0.5056580000000 1.0
C      1  0.5998580000000  0.4763050000000  0.4594350000000 1.0
C      1  0.5041570000000  0.4857070000000  0.6009770000000 1.0
C      1  0.5482650000000  0.5093810000000  0.3953280000000 1.0
C      1  0.5242950000000  0.4193280000000  0.4329170000000 1.0
C      1  0.5011640000000  0.4696950000000  0.3996140000000 1.0
C      1  0.5261510000000  0.5286060000000  0.3895870000000 1.0
C      1  0.5059000000000  0.4572960000000  0.5969920000000 1.0
C      1  0.4313480000000  0.5535840000000  0.4315000000000 1.0
C      1  0.5534550000000  0.5497980000000  0.4644660000000 1.0
C      1  0.4793850000000  0.5233060000000  0.5974090000000 1.0
C      1  0.3964040000000  0.5325350000000  0.5199410000000 1.0
C      1  0.4588690000000  0.5708560000000  0.4401390000000 1.0
C      1  0.4315530000000  0.4944990000000  0.5162760000000 1.0
C      1  0.5802530000000  0.4264700000000  0.5261490000000 1.0
C      1  0.4714140000000  0.4793300000000  0.4464580000000 1.0
C      1  0.5336840000000  0.5898390000000  0.4518000000000 1.0
C      1  0.5800490000000  0.5263330000000  0.5582150000000 1.0
C      1  0.5086190000000  0.5742970000000  0.4426960000000 1.0
C      1  0.5136730000000  0.5332330000000  0.4794830000000 1.0
C      1  0.4952070000000  0.5605370000000  0.4710860000000 1.0
C      1  0.5190050000000  0.3894020000000  0.4717350000000 1.0
C      1  0.4720570000000  0.5464730000000  0.4118010000000 1.0
C      1  0.4603120000000  0.5635150000000  0.5908110000000 1.0
C      1  0.4698080000000  0.5394100000000  0.4791980000000 1.0
C      1  0.5897350000000  0.5014560000000  0.5408250000000 1.0
C      1  0.4690570000000  0.5063740000000  0.4755530000000 1.0
C      1  0.5594970000000  0.4779290000000  0.5516320000000 1.0
C      1  0.4283410000000  0.4813210000000  0.4205380000000 1.0
C      1  0.5126330000000  0.4380720000000  0.4070320000000 1.0
C      1  0.4763010000000  0.5447850000000  0.5117120000000 1.0
C      1  0.4962370000000  0.4963400000000  0.4588360000000 1.0
C      1  0.4615830000000  0.4344890000000  0.5901740000000 1.0
C      1  0.5611690000000  0.5945860000000  0.4714620000000 1.0
C      1  0.4790770000000  0.5958870000000  0.5181120000000 1.0
C      1  0.5672180000000  0.5356840000000  0.4359240000000 1.0
C      1  0.4258930000000  0.5246140000000  0.5310550000000 1.0
C      1  0.4722560000000  0.5406730000000  0.4453020000000 1.0
C      1  0.4483880000000  0.4255760000000  0.5348270000000 1.0
C      1  0.4860540000000  0.5707820000000  0.5733170000000 1.0
C      1  0.5364660000000  0.4160220000000  0.4760370000000 1.0
C      1  0.5439760000000  0.4400930000000  0.4050070000000 1.0
C      1  0.3852870000000  0.5100710000000  0.5077280000000 1.0
C      1  0.5556420000000  0.5060960000000  0.5705520000000 1.0
C      1  0.4093880000000  0.4501110000000  0.4580130000000 1.0
C      1  0.4458660000000  0.4574920000000  0.5800570000000 1.0
C      1  0.5797520000000  0.4450000000000  0.4802800000000 1.0
C      1  0.4326420000000  0.5121810000000  0.5913270000000 1.0
C      1  0.5988660000000  0.4712380000000  0.4904120000000 1.0
C      1  0.4434890000000  0.5801550000000  0.5272910000000 1.0
C      1  0.5304960000000  0.5010480000000  0.5935650000000 1.0
C      1  0.5804970000000  0.5389330000000  0.4770470000000 1.0
C      1  0.4682290000000  0.5527940000000  0.5423840000000 1.0
C      1  0.5467790000000  0.5536950000000  0.5332300000000 1.0
C      1  0.4845700000000  0.4910350000000  0.3860660000000 1.0
C      1  0.4067560000000  0.5534220000000  0.5001170000000 1.0
C      1  0.5597850000000  0.5409690000000  0.5812980000000 1.0
C      1  0.5539830000000  0.4591340000000  0.4216080000000 1.0
C      1  0.5794700000000  0.4980720000000  0.4416380000000 1.0
C      1  0.5206330000000  0.4088230000000  0.5396330000000 1.0
C      1  0.4527600000000  0.5924180000000  0.4980200000000 1.0
C      1  0.5724200000000  0.4406030000000  0.4518590000000 1.0
C      1  0.5509880000000  0.4751910000000  0.5951420000000 1.0
END
