TITL C-2847958-8115-81 0.0347286368763674 125000 -90.1830577618923 0 0 16 (C1) n - 1
REM
REM in /home/bkarasulu/work/CARBON/AIRSS/Generating-Clusters/AIREBO/with-SteepDescent/Only-C1/SD-CG-opt/Try1-1.4A-POS3A/HFTN-CG
REM
REM
REM
REM
REM
REM ./C.cell (11c1c37f851c82e70ff6c80c92926a4b)
REM
REM compiler GCC version 9.2.1 20190827 (Red Hat 9.2.1-1)
REM options -cpp -mtune=generic -march=x86-64 -g -O0 -fpre-include=/usr/include/finclude/math-vector-fortran.h
REM seed 898229221 1218456851 -1509261316 761568698 586335342 701412966 -718213104 -1362981544 1800090960 1020338417 1709639983 -392306520 138836586 -1588924758 1270824239 986477019 162984756 -795217528 1058885913 1745217476 -2105812211 -960380524 -1703096607 -1329516460 1604918196 695464708 299345534 -1482358031 35463056 -2121834143 2086742998 1394418173 992104674
REM
CELL 1.54180   50.00000   50.00000   50.00000   90.00000   90.00000   90.00000
LATT -1
SFAC C  
C      1  0.4823650000000  0.4796750000000  0.5208410000000 1.0
C      1  0.4702590000000  0.4061980000000  0.5964800000000 1.0
C      1  0.5686660000000  0.5093760000000  0.4765590000000 1.0
C      1  0.4702690000000  0.5014230000000  0.5006470000000 1.0
C      1  0.5021540000000  0.4987220000000  0.5042180000000 1.0
C      1  0.4748710000000  0.4424920000000  0.5584250000000 1.0
C      1  0.4586920000000  0.5218700000000  0.4867010000000 1.0
C      1  0.4726580000000  0.4232620000000  0.5767280000000 1.0
C      1  0.5436550000000  0.5193920000000  0.4748810000000 1.0
C      1  0.4851100000000  0.5485900000000  0.4536640000000 1.0
C      1  0.5115250000000  0.5446340000000  0.4501920000000 1.0
C      1  0.4633590000000  0.5362120000000  0.4641290000000 1.0
C      1  0.5380090000000  0.5414180000000  0.4581530000000 1.0
C      1  0.5573620000000  0.5587110000000  0.4508030000000 1.0
C      1  0.4786290000000  0.4600750000000  0.5387690000000 1.0
C      1  0.5224170000000  0.5079500000000  0.4888110000000 1.0
END
