TITL C-2848508-1660-378 0.000359111884967697 125000 -984.576995315331 0 0 183 (C1) n - 1
REM
REM in /home/bkarasulu/work/CARBON/AIRSS/Generating-Clusters/AIREBO/with-SteepDescent/Only-C1/SD-CG-opt/Try1-1.4A-POS3A/HFTN-CG
REM
REM
REM
REM
REM
REM ./C.cell (11c1c37f851c82e70ff6c80c92926a4b)
REM
REM compiler GCC version 9.2.1 20190827 (Red Hat 9.2.1-1)
REM options -cpp -mtune=generic -march=x86-64 -g -O0 -fpre-include=/usr/include/finclude/math-vector-fortran.h
REM seed -1353146643 -44410084 342396088 -268010510 -1480505991 1212895379 -144852764 1689852526 326053906 1596131740 650745110 1214450381 1438980322 -36185174 365992036 1007109 1450091452 -1622524858 -1127350601 1555138121 -5838642 915850498 726863247 336243671 456340698 -1365082358 -655842309 1370485414 -961887567 1151608002 -1762808858 77936623 -1197240271
REM
CELL 1.54180   50.00000   50.00000   50.00000   90.00000   90.00000   90.00000
LATT -1
SFAC C  
C      1  0.5507290000000  0.4680640000000  0.5454580000000 1.0
C      1  0.4712410000000  0.4784840000000  0.4362640000000 1.0
C      1  0.4512440000000  0.4958250000000  0.4148660000000 1.0
C      1  0.5128620000000  0.4489780000000  0.4666380000000 1.0
C      1  0.4130890000000  0.4463530000000  0.5337660000000 1.0
C      1  0.4225190000000  0.5728590000000  0.5497020000000 1.0
C      1  0.5217830000000  0.4731770000000  0.5735990000000 1.0
C      1  0.4859350000000  0.6086690000000  0.5117470000000 1.0
C      1  0.4533950000000  0.4262950000000  0.4488600000000 1.0
C      1  0.5490060000000  0.5921230000000  0.5400840000000 1.0
C      1  0.4169660000000  0.5396940000000  0.5144670000000 1.0
C      1  0.5753640000000  0.4722800000000  0.5271560000000 1.0
C      1  0.4691060000000  0.4660550000000  0.5970610000000 1.0
C      1  0.6003280000000  0.4936040000000  0.4447270000000 1.0
C      1  0.4783740000000  0.5513510000000  0.4681990000000 1.0
C      1  0.5513700000000  0.5503800000000  0.5771680000000 1.0
C      1  0.3871170000000  0.5268900000000  0.5071430000000 1.0
C      1  0.5847770000000  0.4357660000000  0.5652180000000 1.0
C      1  0.4960510000000  0.5696300000000  0.5883400000000 1.0
C      1  0.4936960000000  0.4268980000000  0.4264440000000 1.0
C      1  0.4508460000000  0.5399200000000  0.5114440000000 1.0
C      1  0.5138310000000  0.5765670000000  0.4644920000000 1.0
C      1  0.5193280000000  0.4694840000000  0.3935560000000 1.0
C      1  0.5732730000000  0.5357030000000  0.5601710000000 1.0
C      1  0.5080970000000  0.4222190000000  0.4870830000000 1.0
C      1  0.5309910000000  0.6055080000000  0.5235300000000 1.0
C      1  0.4731500000000  0.5227230000000  0.5638400000000 1.0
C      1  0.4883530000000  0.3927260000000  0.5071880000000 1.0
C      1  0.5418860000000  0.5225710000000  0.4932100000000 1.0
C      1  0.4173470000000  0.4057940000000  0.5418920000000 1.0
C      1  0.4638060000000  0.5721720000000  0.5310450000000 1.0
C      1  0.4368260000000  0.5174770000000  0.5411380000000 1.0
C      1  0.4970850000000  0.5376030000000  0.5448200000000 1.0
C      1  0.4867870000000  0.5456210000000  0.3964250000000 1.0
C      1  0.4783120000000  0.5220700000000  0.5973450000000 1.0
C      1  0.4147350000000  0.4711520000000  0.5528600000000 1.0
C      1  0.5990740000000  0.5043100000000  0.5279110000000 1.0
C      1  0.5803070000000  0.5823450000000  0.4909120000000 1.0
C      1  0.4971120000000  0.4162480000000  0.5817130000000 1.0
C      1  0.4886150000000  0.4666860000000  0.3930730000000 1.0
C      1  0.4820130000000  0.4713130000000  0.5298280000000 1.0
C      1  0.5202770000000  0.4239510000000  0.5941920000000 1.0
C      1  0.4901760000000  0.4921880000000  0.4115640000000 1.0
C      1  0.5447500000000  0.4334770000000  0.6107800000000 1.0
C      1  0.4237500000000  0.5228610000000  0.4882750000000 1.0
C      1  0.4504060000000  0.4392500000000  0.5109870000000 1.0
C      1  0.4463230000000  0.5238800000000  0.4427590000000 1.0
C      1  0.5279390000000  0.4453530000000  0.4110840000000 1.0
C      1  0.5312550000000  0.5345560000000  0.5886320000000 1.0
C      1  0.4539870000000  0.5645350000000  0.4881920000000 1.0
C      1  0.4176540000000  0.5706870000000  0.5037480000000 1.0
C      1  0.4897630000000  0.5309010000000  0.5121700000000 1.0
C      1  0.6030440000000  0.4531150000000  0.5643560000000 1.0
C      1  0.5255950000000  0.5201880000000  0.5511360000000 1.0
C      1  0.4236280000000  0.4211300000000  0.4874690000000 1.0
C      1  0.5486420000000  0.4904050000000  0.4269940000000 1.0
C      1  0.5057200000000  0.5422070000000  0.5976110000000 1.0
C      1  0.5750480000000  0.5175250000000  0.4988470000000 1.0
C      1  0.5884020000000  0.4868750000000  0.4926390000000 1.0
C      1  0.5188060000000  0.5924790000000  0.5831440000000 1.0
C      1  0.5758830000000  0.5777020000000  0.4603630000000 1.0
C      1  0.5335550000000  0.5042160000000  0.5803320000000 1.0
C      1  0.5152240000000  0.4892060000000  0.4328050000000 1.0
C      1  0.5718500000000  0.4155840000000  0.5136410000000 1.0
C      1  0.5477510000000  0.5162640000000  0.4439560000000 1.0
C      1  0.4788510000000  0.3977310000000  0.5393240000000 1.0
C      1  0.4875370000000  0.4998040000000  0.5211830000000 1.0
C      1  0.5435060000000  0.4258480000000  0.5293830000000 1.0
C      1  0.5766830000000  0.4367560000000  0.4901600000000 1.0
C      1  0.4228760000000  0.5656680000000  0.4744240000000 1.0
C      1  0.5541560000000  0.4036830000000  0.4667640000000 1.0
C      1  0.4528520000000  0.5732470000000  0.4277220000000 1.0
C      1  0.4417260000000  0.4713100000000  0.5182630000000 1.0
C      1  0.3934910000000  0.4812010000000  0.4942910000000 1.0
C      1  0.5745620000000  0.5206300000000  0.4644410000000 1.0
C      1  0.5218070000000  0.3999920000000  0.5073940000000 1.0
C      1  0.5386010000000  0.5746590000000  0.5639700000000 1.0
C      1  0.4240220000000  0.5089460000000  0.4221730000000 1.0
C      1  0.5670420000000  0.4896380000000  0.4663430000000 1.0
C      1  0.6123160000000  0.4830790000000  0.4687570000000 1.0
C      1  0.5044520000000  0.6115070000000  0.5327410000000 1.0
C      1  0.5030590000000  0.4980600000000  0.4940490000000 1.0
C      1  0.4077050000000  0.4789850000000  0.4442720000000 1.0
C      1  0.5335680000000  0.5425230000000  0.4200990000000 1.0
C      1  0.4535810000000  0.4993780000000  0.5194340000000 1.0
C      1  0.4580870000000  0.6062740000000  0.5066760000000 1.0
C      1  0.4885090000000  0.4502880000000  0.5086320000000 1.0
C      1  0.5240000000000  0.4024300000000  0.5411370000000 1.0
C      1  0.5064960000000  0.4034300000000  0.4441300000000 1.0
C      1  0.4145050000000  0.5458720000000  0.4521090000000 1.0
C      1  0.4833990000000  0.5694220000000  0.5046000000000 1.0
C      1  0.5218570000000  0.4437090000000  0.5095660000000 1.0
C      1  0.4679290000000  0.4570620000000  0.5642880000000 1.0
C      1  0.4708140000000  0.5817190000000  0.5599510000000 1.0
C      1  0.4788150000000  0.5121310000000  0.4609920000000 1.0
C      1  0.5327100000000  0.5513060000000  0.4772830000000 1.0
C      1  0.4675510000000  0.3931400000000  0.4802600000000 1.0
C      1  0.5269040000000  0.5000260000000  0.5142020000000 1.0
C      1  0.4700420000000  0.4475600000000  0.4017110000000 1.0
C      1  0.4382400000000  0.4166650000000  0.5541410000000 1.0
C      1  0.5825370000000  0.5539720000000  0.4446060000000 1.0
C      1  0.4261700000000  0.4579730000000  0.4463410000000 1.0
C      1  0.5002060000000  0.5911140000000  0.4883760000000 1.0
C      1  0.5003960000000  0.4019080000000  0.5567750000000 1.0
C      1  0.4351740000000  0.5435780000000  0.6188810000000 1.0
C      1  0.5618730000000  0.5638540000000  0.5333630000000 1.0
C      1  0.4662530000000  0.5163620000000  0.4923380000000 1.0
C      1  0.4825580000000  0.4369310000000  0.4569640000000 1.0
C      1  0.5551380000000  0.4396730000000  0.5573470000000 1.0
C      1  0.4635280000000  0.4840750000000  0.4819230000000 1.0
C      1  0.5349670000000  0.4933820000000  0.3985110000000 1.0
C      1  0.5966040000000  0.5416060000000  0.5046130000000 1.0
C      1  0.5731100000000  0.4256170000000  0.4637560000000 1.0
C      1  0.4350370000000  0.4890980000000  0.5552450000000 1.0
C      1  0.5481450000000  0.4993840000000  0.5379080000000 1.0
C      1  0.5101540000000  0.5030780000000  0.4622950000000 1.0
C      1  0.5975410000000  0.5260210000000  0.4419190000000 1.0
C      1  0.5245910000000  0.5030690000000  0.6121850000000 1.0
C      1  0.4755740000000  0.4336740000000  0.5877590000000 1.0
C      1  0.5008380000000  0.5083500000000  0.6188150000000 1.0
C      1  0.5903940000000  0.5071210000000  0.5666110000000 1.0
C      1  0.5494480000000  0.5805360000000  0.4820050000000 1.0
C      1  0.4975600000000  0.5977910000000  0.5580280000000 1.0
C      1  0.4179730000000  0.5453280000000  0.5462180000000 1.0
C      1  0.5657400000000  0.4453610000000  0.4441190000000 1.0
C      1  0.6089700000000  0.4597940000000  0.4937010000000 1.0
C      1  0.4456310000000  0.4478190000000  0.5435440000000 1.0
C      1  0.5043230000000  0.4591060000000  0.4290330000000 1.0
C      1  0.4690490000000  0.4901390000000  0.5550190000000 1.0
C      1  0.4943210000000  0.4006600000000  0.4687520000000 1.0
C      1  0.4577330000000  0.5433100000000  0.5436950000000 1.0
C      1  0.5219310000000  0.4702260000000  0.5308540000000 1.0
C      1  0.4966660000000  0.5802820000000  0.4353660000000 1.0
C      1  0.5654090000000  0.4623850000000  0.4978960000000 1.0
C      1  0.5085780000000  0.5370570000000  0.4618420000000 1.0
C      1  0.4513540000000  0.4527080000000  0.4274950000000 1.0
C      1  0.4228780000000  0.4725030000000  0.4923450000000 1.0
C      1  0.4754800000000  0.4212160000000  0.5167960000000 1.0
C      1  0.3805060000000  0.4983220000000  0.5160890000000 1.0
C      1  0.3876280000000  0.5092140000000  0.4785920000000 1.0
C      1  0.6025370000000  0.4308160000000  0.5084480000000 1.0
C      1  0.5357850000000  0.4644920000000  0.4872040000000 1.0
C      1  0.4545800000000  0.5970830000000  0.4783600000000 1.0
C      1  0.5725240000000  0.4744070000000  0.4395540000000 1.0
C      1  0.5134440000000  0.5532100000000  0.5052630000000 1.0
C      1  0.4565020000000  0.5467270000000  0.6022110000000 1.0
C      1  0.5060180000000  0.6051110000000  0.4237040000000 1.0
C      1  0.4331050000000  0.4967430000000  0.4725040000000 1.0
C      1  0.5852630000000  0.5652200000000  0.5113070000000 1.0
C      1  0.5345710000000  0.5208350000000  0.3933520000000 1.0
C      1  0.5002230000000  0.4572270000000  0.5536420000000 1.0
C      1  0.4517850000000  0.5361130000000  0.4131970000000 1.0
C      1  0.5360150000000  0.5437690000000  0.5289030000000 1.0
C      1  0.5386210000000  0.4931130000000  0.4765870000000 1.0
C      1  0.4648940000000  0.5692790000000  0.5875540000000 1.0
C      1  0.5023600000000  0.4963270000000  0.5580090000000 1.0
C      1  0.4096110000000  0.4243340000000  0.5118260000000 1.0
C      1  0.5045880000000  0.5477690000000  0.4321420000000 1.0
C      1  0.4097360000000  0.5118300000000  0.4528960000000 1.0
C      1  0.4784060000000  0.5311450000000  0.4337610000000 1.0
C      1  0.5303140000000  0.5981220000000  0.4964150000000 1.0
C      1  0.4654810000000  0.4509580000000  0.4828420000000 1.0
C      1  0.4686220000000  0.5803930000000  0.4546020000000 1.0
C      1  0.4368420000000  0.5877590000000  0.5229920000000 1.0
C      1  0.4767880000000  0.5671800000000  0.4109500000000 1.0
C      1  0.5504000000000  0.3977790000000  0.4950830000000 1.0
C      1  0.4724400000000  0.5165020000000  0.3970800000000 1.0
C      1  0.5068150000000  0.5647390000000  0.5572680000000 1.0
C      1  0.4910770000000  0.4749550000000  0.4637320000000 1.0
C      1  0.5718850000000  0.5173320000000  0.5327080000000 1.0
C      1  0.5376250000000  0.4484570000000  0.5808570000000 1.0
C      1  0.4779090000000  0.4196410000000  0.3993230000000 1.0
C      1  0.5139770000000  0.5446440000000  0.3925000000000 1.0
C      1  0.4646560000000  0.4916190000000  0.6039140000000 1.0
C      1  0.5509440000000  0.5487110000000  0.4486730000000 1.0
C      1  0.5990250000000  0.4792580000000  0.5490630000000 1.0
C      1  0.4281010000000  0.5558420000000  0.4275480000000 1.0
C      1  0.4449390000000  0.4081700000000  0.4693710000000 1.0
C      1  0.5912470000000  0.5608250000000  0.5502290000000 1.0
C      1  0.4325580000000  0.4485570000000  0.4746480000000 1.0
C      1  0.5336090000000  0.4087460000000  0.4476460000000 1.0
C      1  0.4483370000000  0.5355540000000  0.4707280000000 1.0
C      1  0.5354740000000  0.4393050000000  0.4425610000000 1.0
END
