TITL C-2848496-4490-729 -0.000589225084085648 125000 -462.414384642751 0 0 85 (C1) n - 1
REM
REM in /home/bkarasulu/work/CARBON/AIRSS/Generating-Clusters/AIREBO/with-SteepDescent/Only-C1/SD-CG-opt/Try1-1.4A-POS3A/HFTN-CG
REM
REM
REM
REM
REM
REM ./C.cell (11c1c37f851c82e70ff6c80c92926a4b)
REM
REM compiler GCC version 9.2.1 20190827 (Red Hat 9.2.1-1)
REM options -cpp -mtune=generic -march=x86-64 -g -O0 -fpre-include=/usr/include/finclude/math-vector-fortran.h
REM seed -1126848283 -1396007975 -1492146232 -2047481784 1879417287 227662301 -468257780 648954070 465825965 -632608583 405300624 617593326 -2130763412 1249629530 -561290233 -1890915674 1728299518 -226907482 868799207 -1925078850 1905554701 -772123791 1453579361 392290117 -86297738 1775139278 1500173594 -660609046 1425104858 -931438108 1196807229 1729922897 -1906060944
REM
CELL 1.54180   50.00000   50.00000   50.00000   90.00000   90.00000   90.00000
LATT -1
SFAC C  
C      1  0.5488050000000  0.4704480000000  0.4592120000000 1.0
C      1  0.4754420000000  0.4722790000000  0.5812460000000 1.0
C      1  0.4787080000000  0.5827500000000  0.4998350000000 1.0
C      1  0.5590710000000  0.5069550000000  0.5415820000000 1.0
C      1  0.4575230000000  0.5290620000000  0.5649330000000 1.0
C      1  0.4883090000000  0.5429940000000  0.5687170000000 1.0
C      1  0.4338970000000  0.4781170000000  0.5442790000000 1.0
C      1  0.4674170000000  0.5373150000000  0.4396170000000 1.0
C      1  0.5437430000000  0.5015480000000  0.4460820000000 1.0
C      1  0.4174250000000  0.5148480000000  0.5355220000000 1.0
C      1  0.4840640000000  0.5698210000000  0.4720270000000 1.0
C      1  0.5119560000000  0.5094530000000  0.4689750000000 1.0
C      1  0.5090390000000  0.4876290000000  0.5256700000000 1.0
C      1  0.5184230000000  0.5406460000000  0.4304090000000 1.0
C      1  0.5179880000000  0.4345280000000  0.5259930000000 1.0
C      1  0.5089520000000  0.5380510000000  0.4965070000000 1.0
C      1  0.5248670000000  0.5109900000000  0.5066930000000 1.0
C      1  0.5270350000000  0.5132800000000  0.4254120000000 1.0
C      1  0.4918910000000  0.4322230000000  0.4611390000000 1.0
C      1  0.4182820000000  0.5615200000000  0.4856850000000 1.0
C      1  0.4777850000000  0.5033950000000  0.5676760000000 1.0
C      1  0.4927370000000  0.4658710000000  0.5461150000000 1.0
C      1  0.5533680000000  0.4530250000000  0.5262610000000 1.0
C      1  0.5286820000000  0.4451430000000  0.4542880000000 1.0
C      1  0.4435130000000  0.4827180000000  0.4399280000000 1.0
C      1  0.5571420000000  0.4636270000000  0.5583450000000 1.0
C      1  0.5592740000000  0.5599600000000  0.4888570000000 1.0
C      1  0.4338310000000  0.4943870000000  0.5162610000000 1.0
C      1  0.4648880000000  0.5639490000000  0.4472260000000 1.0
C      1  0.5235020000000  0.4655830000000  0.4809780000000 1.0
C      1  0.5217990000000  0.5673590000000  0.4378370000000 1.0
C      1  0.4848070000000  0.5720590000000  0.5235020000000 1.0
C      1  0.4520780000000  0.5507920000000  0.5318470000000 1.0
C      1  0.5270490000000  0.5047010000000  0.5499960000000 1.0
C      1  0.4272160000000  0.4902070000000  0.4862540000000 1.0
C      1  0.4769230000000  0.5201470000000  0.5380950000000 1.0
C      1  0.5892900000000  0.4881630000000  0.5087120000000 1.0
C      1  0.4514490000000  0.4394010000000  0.5154910000000 1.0
C      1  0.4727480000000  0.5632750000000  0.5510910000000 1.0
C      1  0.4957530000000  0.5415890000000  0.5268970000000 1.0
C      1  0.4604000000000  0.4714400000000  0.4205980000000 1.0
C      1  0.5290200000000  0.4789520000000  0.5697610000000 1.0
C      1  0.5654720000000  0.5825800000000  0.5052930000000 1.0
C      1  0.4814010000000  0.5363240000000  0.4773100000000 1.0
C      1  0.4670700000000  0.5076040000000  0.4660230000000 1.0
C      1  0.5655010000000  0.5320040000000  0.5302310000000 1.0
C      1  0.5256600000000  0.5335830000000  0.5321090000000 1.0
C      1  0.5428160000000  0.5091400000000  0.4792650000000 1.0
C      1  0.4442440000000  0.5150920000000  0.4419620000000 1.0
C      1  0.5335920000000  0.3925250000000  0.4607730000000 1.0
C      1  0.5210850000000  0.4158610000000  0.4672000000000 1.0
C      1  0.5142950000000  0.5730140000000  0.4646420000000 1.0
C      1  0.5490800000000  0.5544220000000  0.5421160000000 1.0
C      1  0.5754220000000  0.5076400000000  0.4886420000000 1.0
C      1  0.5734130000000  0.4930180000000  0.4603260000000 1.0
C      1  0.5697380000000  0.5344700000000  0.5027960000000 1.0
C      1  0.4936420000000  0.4732970000000  0.4247220000000 1.0
C      1  0.4807020000000  0.4331020000000  0.4895640000000 1.0
C      1  0.4991940000000  0.4840860000000  0.4773790000000 1.0
C      1  0.4967540000000  0.5276210000000  0.4482240000000 1.0
C      1  0.5717340000000  0.4800940000000  0.5327000000000 1.0
C      1  0.4886230000000  0.4265180000000  0.5403100000000 1.0
C      1  0.4312310000000  0.5157570000000  0.4714130000000 1.0
C      1  0.5722460000000  0.5622150000000  0.4633960000000 1.0
C      1  0.4627840000000  0.5059630000000  0.5142080000000 1.0
C      1  0.4320000000000  0.5347170000000  0.5467070000000 1.0
C      1  0.5041540000000  0.4899440000000  0.5838610000000 1.0
C      1  0.5287410000000  0.5585200000000  0.4847150000000 1.0
C      1  0.4803690000000  0.4785500000000  0.4543730000000 1.0
C      1  0.5501940000000  0.4218600000000  0.5244010000000 1.0
C      1  0.5012450000000  0.4509640000000  0.5754670000000 1.0
C      1  0.5078950000000  0.4221920000000  0.4963470000000 1.0
C      1  0.4453000000000  0.4698160000000  0.4713480000000 1.0
C      1  0.4596930000000  0.4648970000000  0.5541510000000 1.0
C      1  0.5100780000000  0.5268540000000  0.5694390000000 1.0
C      1  0.5271900000000  0.4634280000000  0.5106190000000 1.0
C      1  0.5129360000000  0.4491730000000  0.4301320000000 1.0
C      1  0.5270970000000  0.4479010000000  0.5558980000000 1.0
C      1  0.4827050000000  0.4852720000000  0.5042820000000 1.0
C      1  0.4595490000000  0.5370920000000  0.5033830000000 1.0
C      1  0.5098940000000  0.4965750000000  0.4125750000000 1.0
C      1  0.4652690000000  0.4596300000000  0.4942740000000 1.0
C      1  0.4644130000000  0.4383460000000  0.5393420000000 1.0
C      1  0.4662740000000  0.4481810000000  0.4555920000000 1.0
C      1  0.4332170000000  0.5399620000000  0.4869340000000 1.0
END
