TITL C-2847955-7945-101 -0.00232122151986124 125000 -297.077019091792 0 0 52 (C1) n - 1
REM
REM in /home/bkarasulu/work/CARBON/AIRSS/Generating-Clusters/AIREBO/with-SteepDescent/Only-C1/SD-CG-opt/Try1-1.4A-POS3A/HFTN-CG
REM
REM
REM
REM
REM
REM ./C.cell (11c1c37f851c82e70ff6c80c92926a4b)
REM
REM compiler GCC version 9.2.1 20190827 (Red Hat 9.2.1-1)
REM options -cpp -mtune=generic -march=x86-64 -g -O0 -fpre-include=/usr/include/finclude/math-vector-fortran.h
REM seed -10240750 -1734604784 -2142720726 -2039300774 -877143840 -944486039 756108734 774862899 -1805929903 -659527479 1988241706 -1233390575 1732407039 -1426007722 -516535867 1543842843 656753070 -974395756 1278956464 -1942987819 1395668554 -1762793021 1537570702 1178206684 163642505 -1948037986 1842498749 449615326 -1739974622 -977840570 -1134292156 1081193592 -1242837819
REM
CELL 1.54180   50.00000   50.00000   50.00000   90.00000   90.00000   90.00000
LATT -1
SFAC C  
C      1  0.5130380000000  0.5154300000000  0.5109040000000 1.0
C      1  0.5093920000000  0.5454820000000  0.4792430000000 1.0
C      1  0.5282150000000  0.5220330000000  0.4744940000000 1.0
C      1  0.5361730000000  0.5767980000000  0.4505200000000 1.0
C      1  0.5542840000000  0.5562460000000  0.4482840000000 1.0
C      1  0.5018940000000  0.4870580000000  0.5357750000000 1.0
C      1  0.4684400000000  0.5773370000000  0.4876840000000 1.0
C      1  0.5564430000000  0.4788640000000  0.4755050000000 1.0
C      1  0.5301480000000  0.5017280000000  0.5370450000000 1.0
C      1  0.4890030000000  0.5872110000000  0.4723250000000 1.0
C      1  0.5066520000000  0.4491750000000  0.5023930000000 1.0
C      1  0.4260310000000  0.4943840000000  0.5074780000000 1.0
C      1  0.4253480000000  0.4921550000000  0.4781660000000 1.0
C      1  0.4737230000000  0.4639690000000  0.4640370000000 1.0
C      1  0.5566610000000  0.4602850000000  0.5153620000000 1.0
C      1  0.5407060000000  0.4563570000000  0.4382040000000 1.0
C      1  0.4953690000000  0.5435210000000  0.5038000000000 1.0
C      1  0.4787750000000  0.4211490000000  0.5378460000000 1.0
C      1  0.4840330000000  0.4780140000000  0.4322280000000 1.0
C      1  0.4584310000000  0.5020520000000  0.5591200000000 1.0
C      1  0.5086720000000  0.4628370000000  0.4450700000000 1.0
C      1  0.5284340000000  0.5403770000000  0.5470330000000 1.0
C      1  0.4535720000000  0.4516370000000  0.5059330000000 1.0
C      1  0.5571290000000  0.5082670000000  0.4843510000000 1.0
C      1  0.5563730000000  0.5313220000000  0.5322760000000 1.0
C      1  0.4401590000000  0.4727700000000  0.5213400000000 1.0
C      1  0.4816820000000  0.5106650000000  0.5219770000000 1.0
C      1  0.4466080000000  0.4800370000000  0.5480550000000 1.0
C      1  0.4665390000000  0.4935840000000  0.4537840000000 1.0
C      1  0.5032790000000  0.4596020000000  0.5328370000000 1.0
C      1  0.5466690000000  0.5176880000000  0.5621420000000 1.0
C      1  0.5031060000000  0.4688970000000  0.4780130000000 1.0
C      1  0.5550900000000  0.4846260000000  0.5258680000000 1.0
C      1  0.4707360000000  0.5558410000000  0.5058730000000 1.0
C      1  0.4336260000000  0.5231900000000  0.5166640000000 1.0
C      1  0.5610470000000  0.4729380000000  0.4488980000000 1.0
C      1  0.4722630000000  0.5294220000000  0.5487260000000 1.0
C      1  0.4598340000000  0.5141650000000  0.4995210000000 1.0
C      1  0.4767750000000  0.4370120000000  0.5131970000000 1.0
C      1  0.4970600000000  0.4387510000000  0.5509660000000 1.0
C      1  0.5558760000000  0.5348850000000  0.4638500000000 1.0
C      1  0.5614990000000  0.5108280000000  0.5139330000000 1.0
C      1  0.5138210000000  0.4954080000000  0.4850370000000 1.0
C      1  0.5566180000000  0.5109960000000  0.5860840000000 1.0
C      1  0.4544310000000  0.5435210000000  0.5259590000000 1.0
C      1  0.4259640000000  0.4650530000000  0.4693030000000 1.0
C      1  0.5381290000000  0.4543170000000  0.4904510000000 1.0
C      1  0.4511490000000  0.5064440000000  0.4729250000000 1.0
C      1  0.5274930000000  0.4409760000000  0.4630530000000 1.0
C      1  0.5027970000000  0.5377540000000  0.5424400000000 1.0
C      1  0.4501880000000  0.4529050000000  0.4777670000000 1.0
C      1  0.5106230000000  0.5840390000000  0.4562650000000 1.0
END
