TITL C-2847955-7945-349 0.00199247688959523 125000 -1062.67539549388 0 0 193 (C1) n - 1
REM
REM in /home/bkarasulu/work/CARBON/AIRSS/Generating-Clusters/AIREBO/with-SteepDescent/Only-C1/SD-CG-opt/Try1-1.4A-POS3A/HFTN-CG
REM
REM
REM
REM
REM
REM ./C.cell (11c1c37f851c82e70ff6c80c92926a4b)
REM
REM compiler GCC version 9.2.1 20190827 (Red Hat 9.2.1-1)
REM options -cpp -mtune=generic -march=x86-64 -g -O0 -fpre-include=/usr/include/finclude/math-vector-fortran.h
REM seed 1275036463 -1584318607 1204954339 2099845534 -45276586 311124889 -1883010679 329057839 1850123540 897376510 -686602294 -1372602409 564714268 604902172 1977411931 -2013614886 -65871657 1853739885 1787766940 1066803464 -532161545 2009658428 62240501 1311589856 1280031594 -318665749 -354944906 1316211162 -1481940741 -1653539234 -1633136217 -1727995383 -386672887
REM
CELL 1.54180   50.00000   50.00000   50.00000   90.00000   90.00000   90.00000
LATT -1
SFAC C  
C      1  0.5043610000000  0.5942960000000  0.4485850000000 1.0
C      1  0.4721360000000  0.4764190000000  0.5949290000000 1.0
C      1  0.3951380000000  0.4979060000000  0.4600020000000 1.0
C      1  0.5777440000000  0.4826170000000  0.5981740000000 1.0
C      1  0.4655830000000  0.5050670000000  0.6079200000000 1.0
C      1  0.4903400000000  0.4872530000000  0.3921950000000 1.0
C      1  0.4373330000000  0.5434730000000  0.5858290000000 1.0
C      1  0.5421430000000  0.5497120000000  0.5176770000000 1.0
C      1  0.4602940000000  0.4098180000000  0.4454430000000 1.0
C      1  0.4831540000000  0.5479580000000  0.5863200000000 1.0
C      1  0.4969980000000  0.5136560000000  0.6097160000000 1.0
C      1  0.5502640000000  0.5033440000000  0.5451980000000 1.0
C      1  0.4547840000000  0.5880280000000  0.4677840000000 1.0
C      1  0.4850600000000  0.5775000000000  0.4791620000000 1.0
C      1  0.4822140000000  0.4802860000000  0.5072890000000 1.0
C      1  0.5690500000000  0.4264460000000  0.5650670000000 1.0
C      1  0.4962950000000  0.5235820000000  0.5372090000000 1.0
C      1  0.4240560000000  0.5566330000000  0.5440460000000 1.0
C      1  0.5723930000000  0.4308120000000  0.4625280000000 1.0
C      1  0.5433170000000  0.5172200000000  0.5169320000000 1.0
C      1  0.5509380000000  0.5030040000000  0.6029240000000 1.0
C      1  0.5497830000000  0.5244160000000  0.4095110000000 1.0
C      1  0.5238600000000  0.5182250000000  0.4006100000000 1.0
C      1  0.4723770000000  0.5882700000000  0.4379250000000 1.0
C      1  0.4083430000000  0.4966760000000  0.5204810000000 1.0
C      1  0.5647910000000  0.5661340000000  0.5570820000000 1.0
C      1  0.4894740000000  0.4314160000000  0.5923750000000 1.0
C      1  0.4501940000000  0.5460810000000  0.4713480000000 1.0
C      1  0.4466290000000  0.5727410000000  0.5152350000000 1.0
C      1  0.5438940000000  0.4642100000000  0.5138010000000 1.0
C      1  0.5348010000000  0.6097160000000  0.5180480000000 1.0
C      1  0.5742400000000  0.5500300000000  0.4896910000000 1.0
C      1  0.5189500000000  0.5894500000000  0.5402940000000 1.0
C      1  0.4788410000000  0.5692270000000  0.4103770000000 1.0
C      1  0.5717230000000  0.5230750000000  0.5868710000000 1.0
C      1  0.6086410000000  0.5043220000000  0.5478440000000 1.0
C      1  0.5837700000000  0.5672130000000  0.4644940000000 1.0
C      1  0.5295960000000  0.6108150000000  0.4910270000000 1.0
C      1  0.4595640000000  0.5584480000000  0.5771160000000 1.0
C      1  0.5054190000000  0.5643990000000  0.5822400000000 1.0
C      1  0.4622020000000  0.4213280000000  0.5520360000000 1.0
C      1  0.4656990000000  0.4012770000000  0.5320060000000 1.0
C      1  0.4485140000000  0.5570110000000  0.4329960000000 1.0
C      1  0.5184500000000  0.4523410000000  0.4977810000000 1.0
C      1  0.5423970000000  0.5421970000000  0.5480460000000 1.0
C      1  0.4972310000000  0.5177420000000  0.3807740000000 1.0
C      1  0.5104580000000  0.4678540000000  0.4082700000000 1.0
C      1  0.4463730000000  0.4586320000000  0.5816560000000 1.0
C      1  0.4441140000000  0.3994710000000  0.5135120000000 1.0
C      1  0.5260370000000  0.5092700000000  0.4720320000000 1.0
C      1  0.5303080000000  0.4881050000000  0.4259740000000 1.0
C      1  0.4761340000000  0.5579280000000  0.4528240000000 1.0
C      1  0.4885930000000  0.5560360000000  0.5041420000000 1.0
C      1  0.5279960000000  0.4914370000000  0.5639740000000 1.0
C      1  0.6006130000000  0.4927320000000  0.5785660000000 1.0
C      1  0.4405890000000  0.4994570000000  0.3987960000000 1.0
C      1  0.5581360000000  0.5507260000000  0.5837100000000 1.0
C      1  0.5387060000000  0.5451300000000  0.4476920000000 1.0
C      1  0.5343210000000  0.3922150000000  0.4789060000000 1.0
C      1  0.4400770000000  0.4912930000000  0.4515910000000 1.0
C      1  0.5624870000000  0.5097940000000  0.4356710000000 1.0
C      1  0.5741910000000  0.4878680000000  0.5587820000000 1.0
C      1  0.5054010000000  0.5438960000000  0.4426670000000 1.0
C      1  0.5404780000000  0.4308480000000  0.4863210000000 1.0
C      1  0.5016480000000  0.4422140000000  0.4160240000000 1.0
C      1  0.5786040000000  0.4473360000000  0.4403730000000 1.0
C      1  0.5724210000000  0.4576630000000  0.5519990000000 1.0
C      1  0.4474690000000  0.5272980000000  0.3984970000000 1.0
C      1  0.4519950000000  0.4543000000000  0.5066910000000 1.0
C      1  0.5431780000000  0.4903620000000  0.4548010000000 1.0
C      1  0.4964930000000  0.4054370000000  0.4817120000000 1.0
C      1  0.5024260000000  0.5320040000000  0.4948890000000 1.0
C      1  0.4295990000000  0.4961370000000  0.5775100000000 1.0
C      1  0.4709480000000  0.5099980000000  0.4704290000000 1.0
C      1  0.4964920000000  0.5215780000000  0.4204380000000 1.0
C      1  0.5701730000000  0.5444210000000  0.4177920000000 1.0
C      1  0.4934420000000  0.4573170000000  0.6049840000000 1.0
C      1  0.5568910000000  0.4155820000000  0.5352310000000 1.0
C      1  0.5293000000000  0.4523750000000  0.4434070000000 1.0
C      1  0.5440250000000  0.4062520000000  0.5081000000000 1.0
C      1  0.5251580000000  0.5213490000000  0.6104530000000 1.0
C      1  0.4389810000000  0.4914630000000  0.5451810000000 1.0
C      1  0.4160770000000  0.5160890000000  0.4766820000000 1.0
C      1  0.4902230000000  0.4701330000000  0.4758390000000 1.0
C      1  0.4261910000000  0.4438610000000  0.4338290000000 1.0
C      1  0.4154760000000  0.4922940000000  0.4159650000000 1.0
C      1  0.5031450000000  0.4404680000000  0.5233470000000 1.0
C      1  0.4988040000000  0.5827640000000  0.5612530000000 1.0
C      1  0.5178900000000  0.5239480000000  0.5630110000000 1.0
C      1  0.4351250000000  0.5883260000000  0.5428810000000 1.0
C      1  0.4828350000000  0.4979980000000  0.4407820000000 1.0
C      1  0.5961300000000  0.5284690000000  0.5044140000000 1.0
C      1  0.5524070000000  0.6051500000000  0.4725310000000 1.0
C      1  0.5793910000000  0.4236380000000  0.5109860000000 1.0
C      1  0.4937220000000  0.4378890000000  0.4792180000000 1.0
C      1  0.5466850000000  0.4813810000000  0.3988010000000 1.0
C      1  0.5361840000000  0.4181790000000  0.5614400000000 1.0
C      1  0.4766950000000  0.4554980000000  0.5283360000000 1.0
C      1  0.5896880000000  0.4732840000000  0.4531780000000 1.0
C      1  0.5665700000000  0.4543620000000  0.5853310000000 1.0
C      1  0.4991180000000  0.5236880000000  0.4664900000000 1.0
C      1  0.5724310000000  0.4778860000000  0.4821370000000 1.0
C      1  0.4130080000000  0.4270310000000  0.4869370000000 1.0
C      1  0.4084710000000  0.5042260000000  0.5520240000000 1.0
C      1  0.4658400000000  0.4707390000000  0.4295980000000 1.0
C      1  0.4672280000000  0.5766250000000  0.5492220000000 1.0
C      1  0.5719050000000  0.4808510000000  0.5160210000000 1.0
C      1  0.5422300000000  0.4581080000000  0.5418680000000 1.0
C      1  0.5444630000000  0.5366790000000  0.4801230000000 1.0
C      1  0.5042620000000  0.6055610000000  0.4799290000000 1.0
C      1  0.6104000000000  0.4724920000000  0.5520920000000 1.0
C      1  0.4171530000000  0.4414070000000  0.5367860000000 1.0
C      1  0.4926690000000  0.4075380000000  0.4494850000000 1.0
C      1  0.4762490000000  0.5374600000000  0.3984860000000 1.0
C      1  0.4738340000000  0.4953080000000  0.5655740000000 1.0
C      1  0.5916410000000  0.4968830000000  0.4304370000000 1.0
C      1  0.5722650000000  0.5270390000000  0.5539040000000 1.0
C      1  0.4626620000000  0.4827120000000  0.4011470000000 1.0
C      1  0.5976030000000  0.5027390000000  0.4635850000000 1.0
C      1  0.4600470000000  0.6041360000000  0.4946880000000 1.0
C      1  0.4133530000000  0.5755320000000  0.5182270000000 1.0
C      1  0.5467140000000  0.4603630000000  0.4706150000000 1.0
C      1  0.5524670000000  0.5900650000000  0.5388830000000 1.0
C      1  0.3871140000000  0.5404150000000  0.4892000000000 1.0
C      1  0.5742760000000  0.4713510000000  0.4165760000000 1.0
C      1  0.4408230000000  0.5439880000000  0.5006250000000 1.0
C      1  0.5563440000000  0.5739150000000  0.4455480000000 1.0
C      1  0.5131450000000  0.5091310000000  0.5130590000000 1.0
C      1  0.4173280000000  0.5191770000000  0.4344240000000 1.0
C      1  0.5061820000000  0.5718220000000  0.4253370000000 1.0
C      1  0.4465460000000  0.5216900000000  0.4516310000000 1.0
C      1  0.4143620000000  0.5477020000000  0.5701350000000 1.0
C      1  0.4326920000000  0.4967670000000  0.4965830000000 1.0
C      1  0.4734920000000  0.4418280000000  0.4182840000000 1.0
C      1  0.5214390000000  0.4922620000000  0.3787880000000 1.0
C      1  0.5122510000000  0.3945400000000  0.5050280000000 1.0
C      1  0.6038960000000  0.5010300000000  0.4900460000000 1.0
C      1  0.4437210000000  0.4433090000000  0.4110550000000 1.0
C      1  0.5682460000000  0.5688410000000  0.5173970000000 1.0
C      1  0.4383650000000  0.4651570000000  0.5327560000000 1.0
C      1  0.4426250000000  0.5159720000000  0.5937810000000 1.0
C      1  0.5425160000000  0.4156000000000  0.4568450000000 1.0
C      1  0.3765620000000  0.5192060000000  0.4720250000000 1.0
C      1  0.4935750000000  0.3941370000000  0.5296700000000 1.0
C      1  0.3897600000000  0.4581250000000  0.4962920000000 1.0
C      1  0.5068820000000  0.5817240000000  0.5122500000000 1.0
C      1  0.4746970000000  0.5903610000000  0.5190150000000 1.0
C      1  0.4337020000000  0.4217740000000  0.4501780000000 1.0
C      1  0.5845460000000  0.4387810000000  0.4883300000000 1.0
C      1  0.4679740000000  0.3904660000000  0.4711330000000 1.0
C      1  0.5311910000000  0.5808660000000  0.4646020000000 1.0
C      1  0.4133800000000  0.4737690000000  0.4444230000000 1.0
C      1  0.4647160000000  0.4329750000000  0.4899100000000 1.0
C      1  0.4631010000000  0.5040520000000  0.5031300000000 1.0
C      1  0.4338960000000  0.5402720000000  0.4185630000000 1.0
C      1  0.4219560000000  0.4196570000000  0.5145030000000 1.0
C      1  0.5289140000000  0.5445110000000  0.5877630000000 1.0
C      1  0.5464400000000  0.4528510000000  0.4173050000000 1.0
C      1  0.5268100000000  0.5633860000000  0.4916560000000 1.0
C      1  0.4644490000000  0.5103810000000  0.5365530000000 1.0
C      1  0.4128730000000  0.5421700000000  0.4579630000000 1.0
C      1  0.5065320000000  0.4763730000000  0.4470080000000 1.0
C      1  0.5781650000000  0.5989890000000  0.4676220000000 1.0
C      1  0.4746920000000  0.5486580000000  0.5313710000000 1.0
C      1  0.5398640000000  0.4749860000000  0.5897860000000 1.0
C      1  0.4025620000000  0.5671860000000  0.4909180000000 1.0
C      1  0.5083150000000  0.4796560000000  0.5290700000000 1.0
C      1  0.4385300000000  0.4694580000000  0.4847390000000 1.0
C      1  0.4001820000000  0.4662450000000  0.5209410000000 1.0
C      1  0.5104290000000  0.4163860000000  0.5444060000000 1.0
C      1  0.5614580000000  0.5090340000000  0.4903050000000 1.0
C      1  0.5852020000000  0.5100360000000  0.5274010000000 1.0
C      1  0.4426990000000  0.4114410000000  0.4813060000000 1.0
C      1  0.5131880000000  0.4620880000000  0.5552530000000 1.0
C      1  0.5944260000000  0.5623630000000  0.5483580000000 1.0
C      1  0.5988830000000  0.5565370000000  0.5200880000000 1.0
C      1  0.4621240000000  0.4718010000000  0.4626660000000 1.0
C      1  0.4263910000000  0.5701840000000  0.4684340000000 1.0
C      1  0.6022690000000  0.4671650000000  0.4947080000000 1.0
C      1  0.4906510000000  0.4372500000000  0.5610650000000 1.0
C      1  0.4445980000000  0.5370010000000  0.5326520000000 1.0
C      1  0.5953800000000  0.4588110000000  0.5269420000000 1.0
C      1  0.4894700000000  0.5184180000000  0.5790120000000 1.0
C      1  0.4115340000000  0.5282430000000  0.5078380000000 1.0
C      1  0.4401030000000  0.4367160000000  0.5601030000000 1.0
C      1  0.5173580000000  0.4852350000000  0.4892390000000 1.0
C      1  0.3962190000000  0.5275420000000  0.5681460000000 1.0
C      1  0.4697100000000  0.4635360000000  0.5574210000000 1.0
C      1  0.4121700000000  0.4560680000000  0.4734390000000 1.0
C      1  0.5719900000000  0.5385690000000  0.4512350000000 1.0
C      1  0.5222020000000  0.4528190000000  0.6003850000000 1.0
C      1  0.5299990000000  0.4274190000000  0.5922510000000 1.0
C      1  0.5154380000000  0.4234600000000  0.4389140000000 1.0
END
