TITL C-2847956-8218-315 -0.000342293831726825 125000 -664.50036764744 0 0 125 (C1) n - 1
REM
REM in /home/bkarasulu/work/CARBON/AIRSS/Generating-Clusters/AIREBO/with-SteepDescent/Only-C1/SD-CG-opt/Try1-1.4A-POS3A/HFTN-CG
REM
REM
REM
REM
REM
REM ./C.cell (11c1c37f851c82e70ff6c80c92926a4b)
REM
REM compiler GCC version 9.2.1 20190827 (Red Hat 9.2.1-1)
REM options -cpp -mtune=generic -march=x86-64 -g -O0 -fpre-include=/usr/include/finclude/math-vector-fortran.h
REM seed 1531421305 -25164404 -1534534201 -1315559579 1770366608 1776838705 -1523676474 -976323762 -1314400156 -364983798 -895903303 30433848 433596481 -1366514433 44517939 440899156 1615392504 1633857466 2124225222 2039657896 -1930659007 -983196226 1336994215 1464520048 -1600228982 249707304 275316305 1950525528 1406101014 -1315863644 1701323960 -1842176326 1004187057
REM
CELL 1.54180   50.00000   50.00000   50.00000   90.00000   90.00000   90.00000
LATT -1
SFAC C  
C      1  0.6008940000000  0.5451590000000  0.4203110000000 1.0
C      1  0.5395480000000  0.4585870000000  0.5402760000000 1.0
C      1  0.5884350000000  0.4937150000000  0.4972000000000 1.0
C      1  0.4851150000000  0.4711550000000  0.5041740000000 1.0
C      1  0.5067620000000  0.5492990000000  0.5824410000000 1.0
C      1  0.4034490000000  0.5011100000000  0.5350970000000 1.0
C      1  0.4351890000000  0.5441080000000  0.5384210000000 1.0
C      1  0.5440510000000  0.4777150000000  0.4248590000000 1.0
C      1  0.4045630000000  0.5425880000000  0.5299900000000 1.0
C      1  0.5694640000000  0.5070000000000  0.4764450000000 1.0
C      1  0.5053030000000  0.5668790000000  0.5649250000000 1.0
C      1  0.5417820000000  0.5282290000000  0.5038900000000 1.0
C      1  0.4656520000000  0.5112140000000  0.4422600000000 1.0
C      1  0.4544010000000  0.5248180000000  0.5458850000000 1.0
C      1  0.5838440000000  0.5323110000000  0.4647600000000 1.0
C      1  0.5924990000000  0.5255730000000  0.4375270000000 1.0
C      1  0.4321270000000  0.4846180000000  0.4559160000000 1.0
C      1  0.4805920000000  0.5649290000000  0.4985780000000 1.0
C      1  0.4770410000000  0.4828220000000  0.4544580000000 1.0
C      1  0.4187990000000  0.5085540000000  0.5054530000000 1.0
C      1  0.5183880000000  0.4368190000000  0.4474580000000 1.0
C      1  0.4782310000000  0.5006830000000  0.5857660000000 1.0
C      1  0.4904980000000  0.5624560000000  0.4411670000000 1.0
C      1  0.5037070000000  0.4802220000000  0.5955230000000 1.0
C      1  0.6077190000000  0.4873660000000  0.4132620000000 1.0
C      1  0.5374320000000  0.5116600000000  0.4677810000000 1.0
C      1  0.4676260000000  0.4648540000000  0.4168860000000 1.0
C      1  0.5088050000000  0.4648470000000  0.5277400000000 1.0
C      1  0.5227770000000  0.5970840000000  0.4739060000000 1.0
C      1  0.4718180000000  0.4143050000000  0.4786170000000 1.0
C      1  0.4377410000000  0.4779150000000  0.5694930000000 1.0
C      1  0.4822500000000  0.4524860000000  0.4814300000000 1.0
C      1  0.4536590000000  0.4152130000000  0.5073550000000 1.0
C      1  0.5049850000000  0.5400530000000  0.4297000000000 1.0
C      1  0.5081340000000  0.4795740000000  0.4678330000000 1.0
C      1  0.4569380000000  0.5227370000000  0.4885530000000 1.0
C      1  0.5000510000000  0.5969920000000  0.5183000000000 1.0
C      1  0.5342410000000  0.4163220000000  0.5559900000000 1.0
C      1  0.4882160000000  0.5557510000000  0.5266320000000 1.0
C      1  0.4694250000000  0.4700840000000  0.5734340000000 1.0
C      1  0.4453880000000  0.5696620000000  0.4639170000000 1.0
C      1  0.5284700000000  0.4522350000000  0.4205770000000 1.0
C      1  0.4247810000000  0.5675790000000  0.5186780000000 1.0
C      1  0.5893150000000  0.4985810000000  0.4296760000000 1.0
C      1  0.4135520000000  0.5318340000000  0.4551740000000 1.0
C      1  0.4577090000000  0.4246270000000  0.5577380000000 1.0
C      1  0.4388330000000  0.4680530000000  0.4290380000000 1.0
C      1  0.5426050000000  0.4672720000000  0.5690320000000 1.0
C      1  0.4619470000000  0.5608560000000  0.4421810000000 1.0
C      1  0.5099250000000  0.5135470000000  0.4478600000000 1.0
C      1  0.5607570000000  0.4235840000000  0.4738180000000 1.0
C      1  0.5184890000000  0.4570240000000  0.5837260000000 1.0
C      1  0.4297070000000  0.5401860000000  0.4991240000000 1.0
C      1  0.4539590000000  0.4602000000000  0.4650460000000 1.0
C      1  0.4213690000000  0.4745100000000  0.5464030000000 1.0
C      1  0.4755210000000  0.4391300000000  0.5729610000000 1.0
C      1  0.5676870000000  0.5175370000000  0.5548980000000 1.0
C      1  0.4846570000000  0.5315950000000  0.5503580000000 1.0
C      1  0.4543500000000  0.5224300000000  0.5788340000000 1.0
C      1  0.4290450000000  0.5100800000000  0.4729350000000 1.0
C      1  0.5510840000000  0.4299960000000  0.5035610000000 1.0
C      1  0.4570060000000  0.5830360000000  0.4856860000000 1.0
C      1  0.5271480000000  0.5942780000000  0.5020690000000 1.0
C      1  0.4313580000000  0.4805660000000  0.5158290000000 1.0
C      1  0.4842880000000  0.5226150000000  0.4683150000000 1.0
C      1  0.5792820000000  0.4425390000000  0.4651890000000 1.0
C      1  0.5223080000000  0.5547700000000  0.5041110000000 1.0
C      1  0.5302530000000  0.5441680000000  0.4624730000000 1.0
C      1  0.5686530000000  0.4594280000000  0.5020070000000 1.0
C      1  0.5671490000000  0.4827550000000  0.4383020000000 1.0
C      1  0.4930960000000  0.4576090000000  0.4382340000000 1.0
C      1  0.5871200000000  0.5562110000000  0.4888690000000 1.0
C      1  0.4201540000000  0.5339220000000  0.4290070000000 1.0
C      1  0.4489150000000  0.5740270000000  0.5427450000000 1.0
C      1  0.4295910000000  0.5033800000000  0.5792510000000 1.0
C      1  0.4472140000000  0.4389090000000  0.4391910000000 1.0
C      1  0.5069530000000  0.4319750000000  0.5321630000000 1.0
C      1  0.5272870000000  0.5403470000000  0.5405390000000 1.0
C      1  0.5080350000000  0.4369820000000  0.4778010000000 1.0
C      1  0.5053610000000  0.5798100000000  0.4605200000000 1.0
C      1  0.4622750000000  0.4566700000000  0.5239990000000 1.0
C      1  0.4540100000000  0.5556360000000  0.5712570000000 1.0
C      1  0.5168020000000  0.5714570000000  0.5332470000000 1.0
C      1  0.5522870000000  0.4980690000000  0.5746370000000 1.0
C      1  0.5186150000000  0.4198920000000  0.5052350000000 1.0
C      1  0.4695930000000  0.5160930000000  0.5167420000000 1.0
C      1  0.5010020000000  0.3744910000000  0.4881910000000 1.0
C      1  0.4047230000000  0.5086870000000  0.5651880000000 1.0
C      1  0.5059990000000  0.4323710000000  0.5661730000000 1.0
C      1  0.5062180000000  0.5186270000000  0.5855230000000 1.0
C      1  0.5666100000000  0.4736140000000  0.4706500000000 1.0
C      1  0.4556790000000  0.4305650000000  0.5301880000000 1.0
C      1  0.4974610000000  0.4003840000000  0.4892750000000 1.0
C      1  0.4843800000000  0.4801070000000  0.5476620000000 1.0
C      1  0.5712070000000  0.5512990000000  0.5171100000000 1.0
C      1  0.5413240000000  0.4165000000000  0.4562670000000 1.0
C      1  0.5237380000000  0.5041320000000  0.4955880000000 1.0
C      1  0.5303060000000  0.5010880000000  0.5969490000000 1.0
C      1  0.5008070000000  0.5510210000000  0.4780300000000 1.0
C      1  0.4600850000000  0.4892810000000  0.5290470000000 1.0
C      1  0.4992680000000  0.4922340000000  0.4022120000000 1.0
C      1  0.5675280000000  0.5170900000000  0.5208780000000 1.0
C      1  0.5716440000000  0.4777950000000  0.5549180000000 1.0
C      1  0.5024850000000  0.5252230000000  0.5221020000000 1.0
C      1  0.5238080000000  0.4584870000000  0.4978990000000 1.0
C      1  0.5516930000000  0.5791910000000  0.5154330000000 1.0
C      1  0.4944820000000  0.5318110000000  0.4046170000000 1.0
C      1  0.4928420000000  0.4978370000000  0.4899710000000 1.0
C      1  0.5109740000000  0.4847830000000  0.4282550000000 1.0
C      1  0.4708180000000  0.5188770000000  0.4091880000000 1.0
C      1  0.5352420000000  0.4722880000000  0.4743340000000 1.0
C      1  0.5727820000000  0.4837810000000  0.5254220000000 1.0
C      1  0.5467460000000  0.4311700000000  0.5354990000000 1.0
C      1  0.5441400000000  0.5892490000000  0.5428720000000 1.0
C      1  0.5983790000000  0.4543480000000  0.4863000000000 1.0
C      1  0.5041970000000  0.5047710000000  0.5560800000000 1.0
C      1  0.5564020000000  0.5446050000000  0.4800540000000 1.0
C      1  0.4242080000000  0.5525100000000  0.4717420000000 1.0
C      1  0.4278360000000  0.4583990000000  0.4950730000000 1.0
C      1  0.4501650000000  0.5367020000000  0.4264270000000 1.0
C      1  0.5174900000000  0.4963570000000  0.5259920000000 1.0
C      1  0.4671070000000  0.5885150000000  0.5179320000000 1.0
C      1  0.4438250000000  0.4332010000000  0.4830660000000 1.0
C      1  0.5549900000000  0.5444860000000  0.5462350000000 1.0
C      1  0.4753550000000  0.4306560000000  0.4490050000000 1.0
END
