TITL C-2848498-1409-570 0.000340109596822966 125000 -658.577621168113 0 0 122 (C1) n - 1
REM
REM in /home/bkarasulu/work/CARBON/AIRSS/Generating-Clusters/AIREBO/with-SteepDescent/Only-C1/SD-CG-opt/Try1-1.4A-POS3A/HFTN-CG
REM
REM
REM
REM
REM
REM ./C.cell (11c1c37f851c82e70ff6c80c92926a4b)
REM
REM compiler GCC version 9.2.1 20190827 (Red Hat 9.2.1-1)
REM options -cpp -mtune=generic -march=x86-64 -g -O0 -fpre-include=/usr/include/finclude/math-vector-fortran.h
REM seed -1379341408 1409269053 123679525 -984917937 804007260 492095721 -989236646 285019682 1744497660 1145584856 1736861426 347063754 -1726386184 1386955255 -2008008848 1761787970 -1045910659 -303699932 -20916112 61616866 607466647 417840822 1502679818 2048741787 2143831785 1175066544 -836174792 -1481944574 -277816645 1562038790 -242618473 91823980 1722367023
REM
CELL 1.54180   50.00000   50.00000   50.00000   90.00000   90.00000   90.00000
LATT -1
SFAC C  
C      1  0.4846490000000  0.5546620000000  0.5505530000000 1.0
C      1  0.5260540000000  0.4496230000000  0.4211950000000 1.0
C      1  0.5520520000000  0.5521640000000  0.5166580000000 1.0
C      1  0.5326850000000  0.5977310000000  0.5032820000000 1.0
C      1  0.4651720000000  0.4876900000000  0.5275760000000 1.0
C      1  0.5078050000000  0.5137370000000  0.3987690000000 1.0
C      1  0.5245400000000  0.4339050000000  0.5762120000000 1.0
C      1  0.5593390000000  0.5588970000000  0.5628400000000 1.0
C      1  0.5149830000000  0.5589200000000  0.4081840000000 1.0
C      1  0.5713510000000  0.4424130000000  0.5247480000000 1.0
C      1  0.5342340000000  0.4119090000000  0.5217910000000 1.0
C      1  0.5202460000000  0.4871500000000  0.5923130000000 1.0
C      1  0.4433040000000  0.5820910000000  0.5292240000000 1.0
C      1  0.5313500000000  0.5893810000000  0.4770700000000 1.0
C      1  0.4682170000000  0.4814690000000  0.4119120000000 1.0
C      1  0.4957860000000  0.4531480000000  0.5097230000000 1.0
C      1  0.5194760000000  0.4239940000000  0.4934350000000 1.0
C      1  0.5046740000000  0.5584790000000  0.5121660000000 1.0
C      1  0.4526670000000  0.5401950000000  0.5713580000000 1.0
C      1  0.4128430000000  0.5154460000000  0.5109140000000 1.0
C      1  0.5831740000000  0.5355270000000  0.4547520000000 1.0
C      1  0.4239220000000  0.4643240000000  0.5230890000000 1.0
C      1  0.4815010000000  0.5039280000000  0.5602470000000 1.0
C      1  0.4511880000000  0.5447130000000  0.5192690000000 1.0
C      1  0.5089790000000  0.5138340000000  0.5756600000000 1.0
C      1  0.4068630000000  0.5387290000000  0.4992140000000 1.0
C      1  0.4755580000000  0.5453100000000  0.5004590000000 1.0
C      1  0.4985150000000  0.4778390000000  0.5582370000000 1.0
C      1  0.5928770000000  0.4644610000000  0.5318370000000 1.0
C      1  0.4805460000000  0.4584800000000  0.5796200000000 1.0
C      1  0.5812090000000  0.4619700000000  0.5012480000000 1.0
C      1  0.4441410000000  0.5250250000000  0.4567530000000 1.0
C      1  0.5292540000000  0.5269810000000  0.5151340000000 1.0
C      1  0.4686070000000  0.4390690000000  0.5111580000000 1.0
C      1  0.4911740000000  0.4295830000000  0.5762800000000 1.0
C      1  0.5865710000000  0.5397010000000  0.4846920000000 1.0
C      1  0.5327540000000  0.5782890000000  0.5541270000000 1.0
C      1  0.4909960000000  0.4250080000000  0.5423820000000 1.0
C      1  0.4852440000000  0.5091080000000  0.4220430000000 1.0
C      1  0.4499440000000  0.4994170000000  0.4994970000000 1.0
C      1  0.4811170000000  0.4640820000000  0.4621640000000 1.0
C      1  0.4672680000000  0.4732760000000  0.4907230000000 1.0
C      1  0.5523930000000  0.4980100000000  0.5473490000000 1.0
C      1  0.4970400000000  0.5162910000000  0.5174480000000 1.0
C      1  0.4478140000000  0.4680100000000  0.4563910000000 1.0
C      1  0.4269200000000  0.5489860000000  0.4742820000000 1.0
C      1  0.4312290000000  0.4433510000000  0.4729130000000 1.0
C      1  0.5248300000000  0.4872460000000  0.4931260000000 1.0
C      1  0.5512460000000  0.5376030000000  0.4664610000000 1.0
C      1  0.4884700000000  0.5780710000000  0.4363610000000 1.0
C      1  0.5015860000000  0.5850740000000  0.4669580000000 1.0
C      1  0.5194370000000  0.4246980000000  0.4341690000000 1.0
C      1  0.4287400000000  0.4461160000000  0.5433440000000 1.0
C      1  0.5437270000000  0.4470610000000  0.5382720000000 1.0
C      1  0.4731420000000  0.4477840000000  0.4170700000000 1.0
C      1  0.5309200000000  0.4264780000000  0.4615040000000 1.0
C      1  0.5888220000000  0.4877210000000  0.4854910000000 1.0
C      1  0.5411180000000  0.4162130000000  0.5523720000000 1.0
C      1  0.4288910000000  0.5632660000000  0.5050880000000 1.0
C      1  0.5495850000000  0.4926280000000  0.4623900000000 1.0
C      1  0.5726020000000  0.4594780000000  0.4700570000000 1.0
C      1  0.4598730000000  0.4684040000000  0.5545150000000 1.0
C      1  0.5467460000000  0.5129870000000  0.4894980000000 1.0
C      1  0.5512590000000  0.5709580000000  0.4711840000000 1.0
C      1  0.4074920000000  0.4600910000000  0.4610740000000 1.0
C      1  0.5810770000000  0.4884920000000  0.4544740000000 1.0
C      1  0.5299740000000  0.5738230000000  0.5232480000000 1.0
C      1  0.4504610000000  0.4876520000000  0.5791860000000 1.0
C      1  0.5081190000000  0.4529760000000  0.4797470000000 1.0
C      1  0.4184440000000  0.4912660000000  0.5258970000000 1.0
C      1  0.4831140000000  0.5425560000000  0.4285700000000 1.0
C      1  0.4405290000000  0.4965160000000  0.4681730000000 1.0
C      1  0.4425140000000  0.5144900000000  0.5678300000000 1.0
C      1  0.5577910000000  0.5313680000000  0.5429400000000 1.0
C      1  0.4424010000000  0.5085800000000  0.5376500000000 1.0
C      1  0.4788840000000  0.5141220000000  0.4898380000000 1.0
C      1  0.5693470000000  0.5602660000000  0.4937430000000 1.0
C      1  0.5206060000000  0.5510610000000  0.5674880000000 1.0
C      1  0.5211580000000  0.4695350000000  0.4394560000000 1.0
C      1  0.4854270000000  0.5380450000000  0.5802060000000 1.0
C      1  0.4115300000000  0.4849850000000  0.4598200000000 1.0
C      1  0.5281240000000  0.4632120000000  0.5127370000000 1.0
C      1  0.5284320000000  0.5247360000000  0.4514680000000 1.0
C      1  0.5126150000000  0.5382300000000  0.4876890000000 1.0
C      1  0.4920280000000  0.4212490000000  0.4275880000000 1.0
C      1  0.5400980000000  0.5037050000000  0.4318440000000 1.0
C      1  0.4714390000000  0.4345580000000  0.4483550000000 1.0
C      1  0.5384940000000  0.4607550000000  0.4665750000000 1.0
C      1  0.5516620000000  0.4690500000000  0.5603740000000 1.0
C      1  0.4449490000000  0.5567750000000  0.5504590000000 1.0
C      1  0.4526650000000  0.5062510000000  0.4313660000000 1.0
C      1  0.4436370000000  0.5644060000000  0.4513660000000 1.0
C      1  0.5075990000000  0.5081610000000  0.4726250000000 1.0
C      1  0.4414810000000  0.4557610000000  0.4998420000000 1.0
C      1  0.4611050000000  0.5658500000000  0.4292000000000 1.0
C      1  0.5793620000000  0.5129410000000  0.4991040000000 1.0
C      1  0.5344250000000  0.4650690000000  0.5828210000000 1.0
C      1  0.5336500000000  0.5047490000000  0.4058730000000 1.0
C      1  0.5846750000000  0.4878900000000  0.5439250000000 1.0
C      1  0.4964290000000  0.5527590000000  0.4656980000000 1.0
C      1  0.4601050000000  0.4371700000000  0.5424930000000 1.0
C      1  0.4637010000000  0.4137900000000  0.4929360000000 1.0
C      1  0.5246950000000  0.5266380000000  0.5491390000000 1.0
C      1  0.5020660000000  0.4084070000000  0.5182130000000 1.0
C      1  0.5133860000000  0.5476050000000  0.4381790000000 1.0
C      1  0.5834520000000  0.5143890000000  0.5286720000000 1.0
C      1  0.5010810000000  0.5834150000000  0.5516650000000 1.0
C      1  0.4718440000000  0.5256130000000  0.5383730000000 1.0
C      1  0.4882500000000  0.5829580000000  0.4979040000000 1.0
C      1  0.5076530000000  0.5403550000000  0.3890190000000 1.0
C      1  0.4756790000000  0.5798450000000  0.5293420000000 1.0
C      1  0.5115930000000  0.4497580000000  0.5490600000000 1.0
C      1  0.5236200000000  0.4860340000000  0.5375390000000 1.0
C      1  0.4451670000000  0.4636270000000  0.4268660000000 1.0
C      1  0.4663200000000  0.5460360000000  0.4688040000000 1.0
C      1  0.5913570000000  0.5134310000000  0.4408980000000 1.0
C      1  0.4949380000000  0.4838120000000  0.5192960000000 1.0
C      1  0.4794540000000  0.3940010000000  0.5032690000000 1.0
C      1  0.4975370000000  0.4897290000000  0.4472440000000 1.0
C      1  0.4912230000000  0.4826990000000  0.5971750000000 1.0
C      1  0.4527350000000  0.4217340000000  0.4680810000000 1.0
C      1  0.4731910000000  0.5089370000000  0.5928370000000 1.0
END
