TITL C-2848500-1637-244 0.000371447446199048 125000 -392.73378440239 0 0 72 (C1) n - 1
REM
REM in /home/bkarasulu/work/CARBON/AIRSS/Generating-Clusters/AIREBO/with-SteepDescent/Only-C1/SD-CG-opt/Try1-1.4A-POS3A/HFTN-CG
REM
REM
REM
REM
REM
REM ./C.cell (11c1c37f851c82e70ff6c80c92926a4b)
REM
REM compiler GCC version 9.2.1 20190827 (Red Hat 9.2.1-1)
REM options -cpp -mtune=generic -march=x86-64 -g -O0 -fpre-include=/usr/include/finclude/math-vector-fortran.h
REM seed -1986580263 -2057616388 1475362300 1225565987 99412105 889043431 353655620 -1533316447 -1757100161 -1303543483 -674507426 124774549 -1542665699 -1724660722 960993508 -1672485715 1298307738 -1997316614 845326663 -407301833 -2002882301 -1762093076 -1491006771 -983695971 -557507891 -1351323448 502402651 155779822 294877543 773763562 -1810704072 -1851213358 -1809075013
REM
CELL 1.54180   50.00000   50.00000   50.00000   90.00000   90.00000   90.00000
LATT -1
SFAC C  
C      1  0.4767320000000  0.5431650000000  0.5484710000000 1.0
C      1  0.4676100000000  0.5216370000000  0.4617480000000 1.0
C      1  0.4965660000000  0.5317820000000  0.4513420000000 1.0
C      1  0.4865640000000  0.4904610000000  0.5846930000000 1.0
C      1  0.4468200000000  0.4948120000000  0.5264220000000 1.0
C      1  0.5607780000000  0.5106690000000  0.5367940000000 1.0
C      1  0.4971370000000  0.4897680000000  0.4260920000000 1.0
C      1  0.4415020000000  0.5269000000000  0.4932360000000 1.0
C      1  0.4966960000000  0.4434540000000  0.4383160000000 1.0
C      1  0.4771030000000  0.4880690000000  0.5348080000000 1.0
C      1  0.4778260000000  0.4927060000000  0.4525860000000 1.0
C      1  0.4715450000000  0.5630730000000  0.5253600000000 1.0
C      1  0.5545020000000  0.5573170000000  0.5162610000000 1.0
C      1  0.4508700000000  0.4644370000000  0.5160710000000 1.0
C      1  0.5379710000000  0.5707110000000  0.4932030000000 1.0
C      1  0.4965840000000  0.4686550000000  0.5167710000000 1.0
C      1  0.5529860000000  0.4850490000000  0.4616900000000 1.0
C      1  0.5207950000000  0.4763040000000  0.4682860000000 1.0
C      1  0.4659500000000  0.4508100000000  0.5433300000000 1.0
C      1  0.5315930000000  0.4879230000000  0.5047970000000 1.0
C      1  0.5368220000000  0.5373810000000  0.4864590000000 1.0
C      1  0.5449570000000  0.5087510000000  0.5641440000000 1.0
C      1  0.4700780000000  0.4372680000000  0.5121220000000 1.0
C      1  0.4522610000000  0.5320180000000  0.5630970000000 1.0
C      1  0.4870760000000  0.4729010000000  0.4743010000000 1.0
C      1  0.5096770000000  0.5479140000000  0.4688830000000 1.0
C      1  0.4122050000000  0.4831540000000  0.4858870000000 1.0
C      1  0.5490170000000  0.4691700000000  0.4292860000000 1.0
C      1  0.4210430000000  0.5045970000000  0.5065210000000 1.0
C      1  0.4631750000000  0.4561340000000  0.4849740000000 1.0
C      1  0.5101240000000  0.5183260000000  0.4315860000000 1.0
C      1  0.5156600000000  0.5010010000000  0.5840620000000 1.0
C      1  0.5527040000000  0.5288750000000  0.5162520000000 1.0
C      1  0.5222140000000  0.5314830000000  0.5747090000000 1.0
C      1  0.4574650000000  0.5534550000000  0.4557610000000 1.0
C      1  0.4882830000000  0.4136270000000  0.5084650000000 1.0
C      1  0.4676420000000  0.5675150000000  0.4786150000000 1.0
C      1  0.5095210000000  0.4372290000000  0.5179610000000 1.0
C      1  0.4848080000000  0.5253720000000  0.5241270000000 1.0
C      1  0.4357260000000  0.5144420000000  0.5519650000000 1.0
C      1  0.4656850000000  0.4756710000000  0.4274600000000 1.0
C      1  0.4730550000000  0.5188150000000  0.4956880000000 1.0
C      1  0.5303370000000  0.4781740000000  0.5671580000000 1.0
C      1  0.4491150000000  0.4652050000000  0.4553590000000 1.0
C      1  0.5295290000000  0.4835160000000  0.5374440000000 1.0
C      1  0.4282040000000  0.4856550000000  0.4636530000000 1.0
C      1  0.5512050000000  0.4610690000000  0.5259040000000 1.0
C      1  0.5871530000000  0.4843070000000  0.5024610000000 1.0
C      1  0.5810420000000  0.4769240000000  0.4766490000000 1.0
C      1  0.5368940000000  0.4446110000000  0.5080110000000 1.0
C      1  0.5763530000000  0.4661560000000  0.4460910000000 1.0
C      1  0.5505650000000  0.5332910000000  0.4556190000000 1.0
C      1  0.4740260000000  0.4430110000000  0.4488020000000 1.0
C      1  0.5699770000000  0.4850660000000  0.5252810000000 1.0
C      1  0.5173710000000  0.4673880000000  0.4356540000000 1.0
C      1  0.4995510000000  0.4492510000000  0.5460530000000 1.0
C      1  0.4917150000000  0.5831590000000  0.5224310000000 1.0
C      1  0.4960890000000  0.5700870000000  0.4784130000000 1.0
C      1  0.4759960000000  0.4757360000000  0.5642400000000 1.0
C      1  0.5172020000000  0.4524940000000  0.5683520000000 1.0
C      1  0.5363360000000  0.4258000000000  0.4640650000000 1.0
C      1  0.4937250000000  0.4947770000000  0.4951470000000 1.0
C      1  0.4572850000000  0.5555650000000  0.5024980000000 1.0
C      1  0.5353750000000  0.4480460000000  0.4803590000000 1.0
C      1  0.5066780000000  0.5044660000000  0.5311150000000 1.0
C      1  0.4116920000000  0.5109160000000  0.5362440000000 1.0
C      1  0.4357970000000  0.5129190000000  0.4627670000000 1.0
C      1  0.5522470000000  0.5872420000000  0.4757920000000 1.0
C      1  0.5372380000000  0.5272510000000  0.4315620000000 1.0
C      1  0.5222240000000  0.5067450000000  0.4834010000000 1.0
C      1  0.5095170000000  0.5808450000000  0.5008980000000 1.0
C      1  0.5022350000000  0.5475300000000  0.5659780000000 1.0
END
