TITL C-2847955-7945-554 0.000857169525298623 125000 -1045.23590671057 0 0 192 (C1) n - 1
REM
REM in /home/bkarasulu/work/CARBON/AIRSS/Generating-Clusters/AIREBO/with-SteepDescent/Only-C1/SD-CG-opt/Try1-1.4A-POS3A/HFTN-CG
REM
REM
REM
REM
REM
REM ./C.cell (11c1c37f851c82e70ff6c80c92926a4b)
REM
REM compiler GCC version 9.2.1 20190827 (Red Hat 9.2.1-1)
REM options -cpp -mtune=generic -march=x86-64 -g -O0 -fpre-include=/usr/include/finclude/math-vector-fortran.h
REM seed -591068639 -256736613 -1854645891 -1551618198 751570594 -897399511 -1923531920 349402376 634328199 -1114283861 -1752707179 -569137332 -382413757 -762278119 -804218549 773207668 1774484918 -1394900115 -899995824 -1203227243 198958734 -2036835359 1826757130 708409281 988724241 -1705160342 -1546218906 -2133223035 -1710952647 -407128527 816038880 1469366728 -1595133762
REM
CELL 1.54180   50.00000   50.00000   50.00000   90.00000   90.00000   90.00000
LATT -1
SFAC C  
C      1  0.4283980000000  0.5161630000000  0.4983860000000 1.0
C      1  0.5815150000000  0.5013350000000  0.5203750000000 1.0
C      1  0.4111600000000  0.5273360000000  0.5423150000000 1.0
C      1  0.5153240000000  0.4921940000000  0.3810530000000 1.0
C      1  0.5023780000000  0.5347750000000  0.4900470000000 1.0
C      1  0.5381840000000  0.4057280000000  0.5496010000000 1.0
C      1  0.5068930000000  0.4137020000000  0.5600740000000 1.0
C      1  0.4142730000000  0.5401070000000  0.4788090000000 1.0
C      1  0.4879510000000  0.4562390000000  0.5541760000000 1.0
C      1  0.4304470000000  0.4392370000000  0.4392540000000 1.0
C      1  0.5880410000000  0.4365200000000  0.4944620000000 1.0
C      1  0.4328600000000  0.4861680000000  0.5076490000000 1.0
C      1  0.5161050000000  0.5958770000000  0.5446860000000 1.0
C      1  0.4275270000000  0.4389270000000  0.4984350000000 1.0
C      1  0.4586590000000  0.5033420000000  0.4758500000000 1.0
C      1  0.5166570000000  0.5200650000000  0.3895900000000 1.0
C      1  0.5123180000000  0.3926290000000  0.5334460000000 1.0
C      1  0.5157230000000  0.4832270000000  0.4231180000000 1.0
C      1  0.4399670000000  0.4901890000000  0.3867350000000 1.0
C      1  0.4559930000000  0.3970880000000  0.4476500000000 1.0
C      1  0.5282070000000  0.5143940000000  0.4852090000000 1.0
C      1  0.5791470000000  0.4648160000000  0.4787330000000 1.0
C      1  0.5077580000000  0.5616730000000  0.4816980000000 1.0
C      1  0.5727880000000  0.5358400000000  0.4537960000000 1.0
C      1  0.5120330000000  0.4337580000000  0.3864090000000 1.0
C      1  0.6144720000000  0.5009330000000  0.4922300000000 1.0
C      1  0.4847610000000  0.5987260000000  0.5487700000000 1.0
C      1  0.5056280000000  0.4326520000000  0.5204220000000 1.0
C      1  0.5692670000000  0.4203820000000  0.4525120000000 1.0
C      1  0.4884590000000  0.5781750000000  0.5219370000000 1.0
C      1  0.5958870000000  0.5212000000000  0.5769820000000 1.0
C      1  0.4182110000000  0.5004760000000  0.5521280000000 1.0
C      1  0.4803500000000  0.4477430000000  0.4249320000000 1.0
C      1  0.5386930000000  0.4308170000000  0.4419120000000 1.0
C      1  0.4518890000000  0.4452200000000  0.5213870000000 1.0
C      1  0.4792750000000  0.3944440000000  0.4947450000000 1.0
C      1  0.4314710000000  0.5645860000000  0.5198580000000 1.0
C      1  0.4848410000000  0.5507070000000  0.5831980000000 1.0
C      1  0.4076850000000  0.4541840000000  0.4599090000000 1.0
C      1  0.5436880000000  0.5464880000000  0.4620910000000 1.0
C      1  0.5209170000000  0.4513690000000  0.4214680000000 1.0
C      1  0.5385650000000  0.5254590000000  0.4115060000000 1.0
C      1  0.5008860000000  0.4463800000000  0.6186910000000 1.0
C      1  0.4579680000000  0.5289200000000  0.4974080000000 1.0
C      1  0.5250930000000  0.4632850000000  0.3898950000000 1.0
C      1  0.4872090000000  0.4749320000000  0.3857670000000 1.0
C      1  0.4569630000000  0.5706170000000  0.5122750000000 1.0
C      1  0.5888990000000  0.5355250000000  0.5489060000000 1.0
C      1  0.5702310000000  0.5576010000000  0.4321280000000 1.0
C      1  0.5240280000000  0.5442660000000  0.5616520000000 1.0
C      1  0.5372770000000  0.4351910000000  0.5326420000000 1.0
C      1  0.4331200000000  0.4943700000000  0.4614840000000 1.0
C      1  0.4442700000000  0.5803260000000  0.4467070000000 1.0
C      1  0.5763140000000  0.5641890000000  0.5560600000000 1.0
C      1  0.4068260000000  0.5099730000000  0.4157150000000 1.0
C      1  0.5694020000000  0.4977280000000  0.4755090000000 1.0
C      1  0.4627530000000  0.4856930000000  0.5205570000000 1.0
C      1  0.5547570000000  0.4156270000000  0.4821120000000 1.0
C      1  0.4834790000000  0.4892580000000  0.5867480000000 1.0
C      1  0.5870810000000  0.4888590000000  0.4478530000000 1.0
C      1  0.5238810000000  0.4334590000000  0.5766930000000 1.0
C      1  0.5250630000000  0.4043620000000  0.4792640000000 1.0
C      1  0.5030060000000  0.4878400000000  0.4522990000000 1.0
C      1  0.5040700000000  0.4951240000000  0.4946640000000 1.0
C      1  0.5261200000000  0.5779300000000  0.5661700000000 1.0
C      1  0.5218570000000  0.5801780000000  0.5150760000000 1.0
C      1  0.4341400000000  0.4130490000000  0.4529100000000 1.0
C      1  0.4877420000000  0.4474780000000  0.5870320000000 1.0
C      1  0.5974830000000  0.4422130000000  0.5225770000000 1.0
C      1  0.4146070000000  0.5666430000000  0.4974490000000 1.0
C      1  0.4584570000000  0.6045300000000  0.4871980000000 1.0
C      1  0.4534790000000  0.5661010000000  0.4175120000000 1.0
C      1  0.5699720000000  0.5170820000000  0.5963720000000 1.0
C      1  0.4479370000000  0.4590530000000  0.5521970000000 1.0
C      1  0.4655810000000  0.5085450000000  0.4291910000000 1.0
C      1  0.4218420000000  0.4150170000000  0.4773900000000 1.0
C      1  0.3803330000000  0.4713250000000  0.5397830000000 1.0
C      1  0.4802950000000  0.3958380000000  0.5340060000000 1.0
C      1  0.4078270000000  0.5124960000000  0.4644050000000 1.0
C      1  0.4796560000000  0.5090520000000  0.5100000000000 1.0
C      1  0.4274490000000  0.5467040000000  0.5828840000000 1.0
C      1  0.5969740000000  0.5380240000000  0.4700750000000 1.0
C      1  0.5715740000000  0.4770000000000  0.4285590000000 1.0
C      1  0.4935840000000  0.4801310000000  0.5337880000000 1.0
C      1  0.5797860000000  0.4299640000000  0.5432680000000 1.0
C      1  0.4929620000000  0.6039960000000  0.4545270000000 1.0
C      1  0.5374290000000  0.5687020000000  0.4870910000000 1.0
C      1  0.5648150000000  0.5737240000000  0.5328710000000 1.0
C      1  0.5798130000000  0.5791060000000  0.5059950000000 1.0
C      1  0.5617620000000  0.5464710000000  0.4087140000000 1.0
C      1  0.5577800000000  0.5221360000000  0.4958380000000 1.0
C      1  0.4479350000000  0.4257530000000  0.5557990000000 1.0
C      1  0.5020740000000  0.4434500000000  0.4486960000000 1.0
C      1  0.4490540000000  0.4907070000000  0.5493150000000 1.0
C      1  0.5155850000000  0.4661290000000  0.5812290000000 1.0
C      1  0.5665980000000  0.4846150000000  0.6023260000000 1.0
C      1  0.5106200000000  0.6067410000000  0.4820720000000 1.0
C      1  0.5294300000000  0.6182590000000  0.5242770000000 1.0
C      1  0.5359280000000  0.5303100000000  0.5337400000000 1.0
C      1  0.5517170000000  0.4881490000000  0.5584530000000 1.0
C      1  0.4128020000000  0.5262550000000  0.4368910000000 1.0
C      1  0.4881040000000  0.4962040000000  0.4097780000000 1.0
C      1  0.4975850000000  0.5414960000000  0.4003800000000 1.0
C      1  0.5526020000000  0.5088640000000  0.4491800000000 1.0
C      1  0.5633340000000  0.4237410000000  0.5140220000000 1.0
C      1  0.3916790000000  0.4675460000000  0.4835030000000 1.0
C      1  0.4626110000000  0.4563080000000  0.4720350000000 1.0
C      1  0.4049800000000  0.4240170000000  0.5274860000000 1.0
C      1  0.5352760000000  0.4822940000000  0.4614770000000 1.0
C      1  0.4814650000000  0.4820900000000  0.4745580000000 1.0
C      1  0.5630120000000  0.5438040000000  0.5782280000000 1.0
C      1  0.5141810000000  0.5164170000000  0.4569490000000 1.0
C      1  0.4627200000000  0.5323120000000  0.5535620000000 1.0
C      1  0.6233230000000  0.4889870000000  0.5151760000000 1.0
C      1  0.5250290000000  0.4892320000000  0.5374150000000 1.0
C      1  0.4014740000000  0.4514250000000  0.4265940000000 1.0
C      1  0.5156530000000  0.4578990000000  0.4747880000000 1.0
C      1  0.5931160000000  0.5500200000000  0.5184120000000 1.0
C      1  0.4684960000000  0.5552260000000  0.4842370000000 1.0
C      1  0.5065600000000  0.4042860000000  0.5030930000000 1.0
C      1  0.4305280000000  0.4134720000000  0.5329110000000 1.0
C      1  0.4860540000000  0.5479570000000  0.5371610000000 1.0
C      1  0.4886000000000  0.4490890000000  0.3980150000000 1.0
C      1  0.5728050000000  0.4467240000000  0.4312980000000 1.0
C      1  0.4551370000000  0.4570170000000  0.4395380000000 1.0
C      1  0.5371690000000  0.4574130000000  0.5579220000000 1.0
C      1  0.4801910000000  0.5632680000000  0.3966270000000 1.0
C      1  0.5723510000000  0.4710040000000  0.5107970000000 1.0
C      1  0.5189540000000  0.5919150000000  0.4459830000000 1.0
C      1  0.4754770000000  0.5692400000000  0.5613360000000 1.0
C      1  0.5379710000000  0.5577080000000  0.5895580000000 1.0
C      1  0.4737610000000  0.3834330000000  0.4703040000000 1.0
C      1  0.5220630000000  0.5409210000000  0.4364230000000 1.0
C      1  0.4446950000000  0.4864140000000  0.4342090000000 1.0
C      1  0.4898820000000  0.5323260000000  0.4295590000000 1.0
C      1  0.5490100000000  0.5016100000000  0.5210380000000 1.0
C      1  0.4890720000000  0.5143630000000  0.6089980000000 1.0
C      1  0.5671160000000  0.5825180000000  0.4423420000000 1.0
C      1  0.4621660000000  0.5056930000000  0.3898090000000 1.0
C      1  0.5444860000000  0.4952400000000  0.4207170000000 1.0
C      1  0.4007030000000  0.4533390000000  0.5107500000000 1.0
C      1  0.4771050000000  0.4293710000000  0.5386820000000 1.0
C      1  0.6202260000000  0.5469190000000  0.4624280000000 1.0
C      1  0.4229550000000  0.5700620000000  0.4645830000000 1.0
C      1  0.4856920000000  0.4737530000000  0.6169330000000 1.0
C      1  0.4249340000000  0.4888070000000  0.4106790000000 1.0
C      1  0.6020160000000  0.4715910000000  0.5274240000000 1.0
C      1  0.4800260000000  0.5031220000000  0.5558910000000 1.0
C      1  0.5518380000000  0.5513340000000  0.5122710000000 1.0
C      1  0.4415220000000  0.4706240000000  0.5829070000000 1.0
C      1  0.5344870000000  0.6129490000000  0.4963300000000 1.0
C      1  0.5119240000000  0.4123450000000  0.4518310000000 1.0
C      1  0.4329020000000  0.5488560000000  0.5493860000000 1.0
C      1  0.4656890000000  0.5248510000000  0.5866540000000 1.0
C      1  0.5435740000000  0.4626880000000  0.5136550000000 1.0
C      1  0.3857530000000  0.4943120000000  0.4777370000000 1.0
C      1  0.5157990000000  0.5234330000000  0.6161290000000 1.0
C      1  0.4561330000000  0.4065410000000  0.5134140000000 1.0
C      1  0.4889470000000  0.3946520000000  0.4447940000000 1.0
C      1  0.5202070000000  0.5509930000000  0.6127980000000 1.0
C      1  0.4858240000000  0.5843950000000  0.4886050000000 1.0
C      1  0.5179800000000  0.5721230000000  0.4274040000000 1.0
C      1  0.5452400000000  0.5920060000000  0.4635890000000 1.0
C      1  0.5595380000000  0.5189690000000  0.5554470000000 1.0
C      1  0.6066370000000  0.4836010000000  0.4718140000000 1.0
C      1  0.4044920000000  0.5279220000000  0.5155850000000 1.0
C      1  0.4776470000000  0.4184160000000  0.5708860000000 1.0
C      1  0.5769880000000  0.4445890000000  0.5670760000000 1.0
C      1  0.4110050000000  0.4774440000000  0.5310110000000 1.0
C      1  0.4832500000000  0.5219930000000  0.4674560000000 1.0
C      1  0.5541260000000  0.4564600000000  0.4580670000000 1.0
C      1  0.4958870000000  0.5637240000000  0.6088650000000 1.0
C      1  0.5100310000000  0.4645800000000  0.5083600000000 1.0
C      1  0.5916940000000  0.5253130000000  0.4985200000000 1.0
C      1  0.4596050000000  0.4607860000000  0.6007240000000 1.0
C      1  0.5691880000000  0.4691740000000  0.5784010000000 1.0
C      1  0.4384600000000  0.5415000000000  0.4355520000000 1.0
C      1  0.5627990000000  0.5990450000000  0.4918440000000 1.0
C      1  0.4662230000000  0.4326580000000  0.4940400000000 1.0
C      1  0.5364810000000  0.4408480000000  0.4903420000000 1.0
C      1  0.5040590000000  0.5289920000000  0.5220650000000 1.0
C      1  0.5167560000000  0.4962490000000  0.5870250000000 1.0
C      1  0.5401130000000  0.5044010000000  0.6069640000000 1.0
C      1  0.4361280000000  0.5200170000000  0.5927360000000 1.0
C      1  0.4315010000000  0.4671550000000  0.4804400000000 1.0
C      1  0.4680950000000  0.5458570000000  0.4515320000000 1.0
C      1  0.4268020000000  0.4952890000000  0.5821100000000 1.0
C      1  0.5031010000000  0.5239460000000  0.5727960000000 1.0
C      1  0.4563960000000  0.5333640000000  0.4078370000000 1.0
C      1  0.4557290000000  0.6035150000000  0.5583810000000 1.0
C      1  0.4428260000000  0.5758230000000  0.5675730000000 1.0
C      1  0.4643370000000  0.5985380000000  0.4580080000000 1.0
END
