TITL C-2847950-6905-188 0.000137442284960001 125000 -1023.04507171308 0 0 187 (C1) n - 1
REM
REM in /home/bkarasulu/work/CARBON/AIRSS/Generating-Clusters/AIREBO/with-SteepDescent/Only-C1/SD-CG-opt/Try1-1.4A-POS3A/HFTN-CG
REM
REM
REM
REM
REM
REM ./C.cell (11c1c37f851c82e70ff6c80c92926a4b)
REM
REM compiler GCC version 9.2.1 20190827 (Red Hat 9.2.1-1)
REM options -cpp -mtune=generic -march=x86-64 -g -O0 -fpre-include=/usr/include/finclude/math-vector-fortran.h
REM seed -1805083025 939259206 905205666 -1854710083 -1923090902 -2026047334 1419459800 1968064800 -1126013246 849784647 1259488576 1630183924 -593749150 -1300041708 -1808789067 944931842 -316882169 -1429653726 1383609607 1080357528 -1276341858 1714540991 -1027270927 -253568087 -1127018528 -1921982013 -241027205 844372061 1055292563 303374450 1355808349 79866385 1225863723
REM
CELL 1.54180   50.00000   50.00000   50.00000   90.00000   90.00000   90.00000
LATT -1
SFAC C  
C      1  0.5537390000000  0.5264720000000  0.5699890000000 1.0
C      1  0.4992330000000  0.4048890000000  0.4155830000000 1.0
C      1  0.5514200000000  0.4685900000000  0.5227470000000 1.0
C      1  0.5351140000000  0.4179560000000  0.5727180000000 1.0
C      1  0.5856130000000  0.4406210000000  0.5539910000000 1.0
C      1  0.4378210000000  0.5064530000000  0.5406560000000 1.0
C      1  0.4217330000000  0.4907190000000  0.4370140000000 1.0
C      1  0.4359860000000  0.4308150000000  0.5709060000000 1.0
C      1  0.4681190000000  0.5560990000000  0.4892630000000 1.0
C      1  0.4222640000000  0.5530830000000  0.4932610000000 1.0
C      1  0.5143470000000  0.4746560000000  0.4414320000000 1.0
C      1  0.5110270000000  0.4214400000000  0.4667780000000 1.0
C      1  0.5032980000000  0.5334360000000  0.4940290000000 1.0
C      1  0.5426850000000  0.4525930000000  0.6144940000000 1.0
C      1  0.4095890000000  0.4382080000000  0.5094660000000 1.0
C      1  0.6417080000000  0.4821690000000  0.5225310000000 1.0
C      1  0.5242880000000  0.5674340000000  0.5651510000000 1.0
C      1  0.5407280000000  0.4834980000000  0.5894460000000 1.0
C      1  0.5490340000000  0.4573530000000  0.4335240000000 1.0
C      1  0.5802400000000  0.5240290000000  0.5998200000000 1.0
C      1  0.5306100000000  0.4285010000000  0.5049640000000 1.0
C      1  0.5068080000000  0.5717420000000  0.4173070000000 1.0
C      1  0.4363680000000  0.4053250000000  0.4883170000000 1.0
C      1  0.4830540000000  0.5476170000000  0.4394220000000 1.0
C      1  0.4232900000000  0.5357810000000  0.5326640000000 1.0
C      1  0.4678660000000  0.5760670000000  0.5118900000000 1.0
C      1  0.5142440000000  0.5422950000000  0.6127230000000 1.0
C      1  0.5015040000000  0.4858400000000  0.5826270000000 1.0
C      1  0.4890710000000  0.4059410000000  0.4475480000000 1.0
C      1  0.5495000000000  0.5890890000000  0.5241540000000 1.0
C      1  0.5090710000000  0.5970020000000  0.4577800000000 1.0
C      1  0.4612860000000  0.5335660000000  0.3965290000000 1.0
C      1  0.4323290000000  0.4855020000000  0.4051300000000 1.0
C      1  0.5481310000000  0.5197850000000  0.5402090000000 1.0
C      1  0.4543720000000  0.3923130000000  0.5073370000000 1.0
C      1  0.4077780000000  0.5041870000000  0.5689900000000 1.0
C      1  0.4897110000000  0.5267940000000  0.5697030000000 1.0
C      1  0.4408110000000  0.5858770000000  0.5550800000000 1.0
C      1  0.5682600000000  0.5054780000000  0.5215260000000 1.0
C      1  0.5000590000000  0.6145790000000  0.5233930000000 1.0
C      1  0.5347590000000  0.4783150000000  0.4976890000000 1.0
C      1  0.5521300000000  0.4416100000000  0.5599250000000 1.0
C      1  0.4557250000000  0.4144170000000  0.5302780000000 1.0
C      1  0.5590000000000  0.5134740000000  0.4936070000000 1.0
C      1  0.4783740000000  0.4911470000000  0.4271500000000 1.0
C      1  0.5148760000000  0.4549690000000  0.4973280000000 1.0
C      1  0.5249000000000  0.4115200000000  0.4306880000000 1.0
C      1  0.4182140000000  0.5668590000000  0.5393760000000 1.0
C      1  0.5194100000000  0.5915880000000  0.5143270000000 1.0
C      1  0.5214410000000  0.5850670000000  0.4361480000000 1.0
C      1  0.5083100000000  0.3974490000000  0.5425970000000 1.0
C      1  0.4881330000000  0.4555940000000  0.5925060000000 1.0
C      1  0.5585200000000  0.5438220000000  0.5197790000000 1.0
C      1  0.4314760000000  0.5639900000000  0.4624730000000 1.0
C      1  0.5246000000000  0.5884920000000  0.4833690000000 1.0
C      1  0.5768950000000  0.4686830000000  0.5440580000000 1.0
C      1  0.5870600000000  0.5674230000000  0.4974490000000 1.0
C      1  0.5447970000000  0.4864020000000  0.4470640000000 1.0
C      1  0.5596380000000  0.4852850000000  0.4755860000000 1.0
C      1  0.5635750000000  0.4514020000000  0.4031950000000 1.0
C      1  0.4948100000000  0.5738290000000  0.5300470000000 1.0
C      1  0.4908730000000  0.5622500000000  0.4648890000000 1.0
C      1  0.5683700000000  0.4817360000000  0.5709850000000 1.0
C      1  0.5368190000000  0.5392960000000  0.4939200000000 1.0
C      1  0.6039310000000  0.4631640000000  0.4672650000000 1.0
C      1  0.4567840000000  0.5513980000000  0.4202820000000 1.0
C      1  0.4410400000000  0.5741310000000  0.4361800000000 1.0
C      1  0.4717610000000  0.4733540000000  0.4784180000000 1.0
C      1  0.5569250000000  0.5264730000000  0.6098090000000 1.0
C      1  0.5681560000000  0.4837970000000  0.4104630000000 1.0
C      1  0.4587120000000  0.6113980000000  0.5483500000000 1.0
C      1  0.5465440000000  0.5681860000000  0.4445080000000 1.0
C      1  0.5544790000000  0.5666550000000  0.5390570000000 1.0
C      1  0.4187480000000  0.5305900000000  0.5659650000000 1.0
C      1  0.5743230000000  0.4075240000000  0.5308870000000 1.0
C      1  0.5810390000000  0.5005830000000  0.4281750000000 1.0
C      1  0.3942320000000  0.4922210000000  0.4555200000000 1.0
C      1  0.5695230000000  0.5284560000000  0.4277540000000 1.0
C      1  0.4439560000000  0.5404500000000  0.5839080000000 1.0
C      1  0.3969740000000  0.5173880000000  0.4684680000000 1.0
C      1  0.4809400000000  0.4968880000000  0.4585370000000 1.0
C      1  0.4417800000000  0.4631470000000  0.4368920000000 1.0
C      1  0.5254780000000  0.5267300000000  0.4549360000000 1.0
C      1  0.4620370000000  0.5205460000000  0.6065310000000 1.0
C      1  0.5605470000000  0.4555770000000  0.5897660000000 1.0
C      1  0.4219210000000  0.5336650000000  0.4583210000000 1.0
C      1  0.4580610000000  0.4147360000000  0.5618140000000 1.0
C      1  0.5187700000000  0.5044720000000  0.5017330000000 1.0
C      1  0.4479950000000  0.5369820000000  0.5092790000000 1.0
C      1  0.5183920000000  0.5282240000000  0.3853330000000 1.0
C      1  0.3864460000000  0.4721570000000  0.4722100000000 1.0
C      1  0.4886670000000  0.5221310000000  0.3885220000000 1.0
C      1  0.4847740000000  0.5656450000000  0.5615660000000 1.0
C      1  0.4280940000000  0.4809190000000  0.5762970000000 1.0
C      1  0.3894360000000  0.4990650000000  0.5488820000000 1.0
C      1  0.5042990000000  0.5520180000000  0.5845870000000 1.0
C      1  0.5426370000000  0.4151380000000  0.4776690000000 1.0
C      1  0.5244800000000  0.5579850000000  0.4683220000000 1.0
C      1  0.5324810000000  0.5128460000000  0.5930150000000 1.0
C      1  0.5382730000000  0.3973750000000  0.4501930000000 1.0
C      1  0.4383240000000  0.5842580000000  0.5209830000000 1.0
C      1  0.4895580000000  0.4603780000000  0.5181510000000 1.0
C      1  0.5243720000000  0.5503660000000  0.6346620000000 1.0
C      1  0.4797750000000  0.4897370000000  0.5317880000000 1.0
C      1  0.5948480000000  0.5138140000000  0.4761780000000 1.0
C      1  0.4799160000000  0.5937370000000  0.4590840000000 1.0
C      1  0.5785040000000  0.4444820000000  0.4325660000000 1.0
C      1  0.5378900000000  0.4732160000000  0.3986560000000 1.0
C      1  0.4299580000000  0.4341390000000  0.4615190000000 1.0
C      1  0.4286250000000  0.4337920000000  0.5296800000000 1.0
C      1  0.4563320000000  0.5647700000000  0.5705390000000 1.0
C      1  0.4231280000000  0.5232500000000  0.4272250000000 1.0
C      1  0.5102100000000  0.4113410000000  0.5656450000000 1.0
C      1  0.4929460000000  0.4495390000000  0.4730860000000 1.0
C      1  0.4452470000000  0.5064780000000  0.5832090000000 1.0
C      1  0.5547140000000  0.4349470000000  0.5264150000000 1.0
C      1  0.5096300000000  0.5035410000000  0.4689960000000 1.0
C      1  0.6086160000000  0.5285970000000  0.5384160000000 1.0
C      1  0.4048050000000  0.4689370000000  0.5002500000000 1.0
C      1  0.6006050000000  0.4607590000000  0.5008880000000 1.0
C      1  0.5028230000000  0.5926940000000  0.5671060000000 1.0
C      1  0.4466330000000  0.5131180000000  0.4850910000000 1.0
C      1  0.6121400000000  0.4845170000000  0.5160150000000 1.0
C      1  0.5554030000000  0.5181000000000  0.4532910000000 1.0
C      1  0.5934760000000  0.4982540000000  0.5409020000000 1.0
C      1  0.4583920000000  0.4690210000000  0.5829550000000 1.0
C      1  0.4760790000000  0.5264830000000  0.4745680000000 1.0
C      1  0.4716360000000  0.5224490000000  0.5272420000000 1.0
C      1  0.4917400000000  0.6143130000000  0.5537820000000 1.0
C      1  0.5168260000000  0.4638490000000  0.6035490000000 1.0
C      1  0.4360120000000  0.4587730000000  0.5515330000000 1.0
C      1  0.5709990000000  0.4267920000000  0.4786700000000 1.0
C      1  0.5062810000000  0.5382070000000  0.4220620000000 1.0
C      1  0.5557500000000  0.5512740000000  0.4197870000000 1.0
C      1  0.6027170000000  0.5130040000000  0.5025000000000 1.0
C      1  0.4604920000000  0.4213240000000  0.4547770000000 1.0
C      1  0.5685190000000  0.5909720000000  0.5027720000000 1.0
C      1  0.4804480000000  0.4300390000000  0.5139750000000 1.0
C      1  0.5314060000000  0.4664470000000  0.5494340000000 1.0
C      1  0.4148960000000  0.5199350000000  0.4952260000000 1.0
C      1  0.5070980000000  0.4130160000000  0.5168970000000 1.0
C      1  0.4613510000000  0.4262840000000  0.4875170000000 1.0
C      1  0.4905170000000  0.4596460000000  0.4229990000000 1.0
C      1  0.5092610000000  0.4567450000000  0.3986030000000 1.0
C      1  0.4987090000000  0.4003960000000  0.4904980000000 1.0
C      1  0.4687410000000  0.4528730000000  0.5586260000000 1.0
C      1  0.4509760000000  0.4731490000000  0.5245860000000 1.0
C      1  0.4643100000000  0.5154510000000  0.5582170000000 1.0
C      1  0.4874990000000  0.4899100000000  0.3944000000000 1.0
C      1  0.5730380000000  0.5369310000000  0.4736570000000 1.0
C      1  0.4546160000000  0.4567230000000  0.4991610000000 1.0
C      1  0.4310780000000  0.4630290000000  0.4794860000000 1.0
C      1  0.4938510000000  0.5415090000000  0.5216400000000 1.0
C      1  0.5192990000000  0.5113540000000  0.5328350000000 1.0
C      1  0.5188400000000  0.4978370000000  0.3981920000000 1.0
C      1  0.4769810000000  0.4285750000000  0.4258330000000 1.0
C      1  0.5904590000000  0.4396800000000  0.4564710000000 1.0
C      1  0.5847130000000  0.4314320000000  0.5094430000000 1.0
C      1  0.4291580000000  0.4548250000000  0.4064350000000 1.0
C      1  0.5543160000000  0.5980530000000  0.4778280000000 1.0
C      1  0.4711180000000  0.6070270000000  0.5206890000000 1.0
C      1  0.4543210000000  0.5342070000000  0.4495850000000 1.0
C      1  0.5903690000000  0.5414600000000  0.5143360000000 1.0
C      1  0.4693460000000  0.4596350000000  0.4496100000000 1.0
C      1  0.4373580000000  0.4899680000000  0.4666980000000 1.0
C      1  0.4573570000000  0.5016600000000  0.4026660000000 1.0
C      1  0.4259200000000  0.4926860000000  0.5123770000000 1.0
C      1  0.5828660000000  0.5090960000000  0.5713380000000 1.0
C      1  0.4989870000000  0.5152400000000  0.5988360000000 1.0
C      1  0.5535700000000  0.5571900000000  0.5671660000000 1.0
C      1  0.5165200000000  0.5433970000000  0.5440400000000 1.0
C      1  0.4188710000000  0.4383240000000  0.4318950000000 1.0
C      1  0.4121610000000  0.4212190000000  0.4871270000000 1.0
C      1  0.5226780000000  0.4415720000000  0.4419450000000 1.0
C      1  0.5699270000000  0.4583790000000  0.4869090000000 1.0
C      1  0.5337320000000  0.5458770000000  0.4036160000000 1.0
C      1  0.5885340000000  0.4900820000000  0.4582900000000 1.0
C      1  0.5075130000000  0.4871770000000  0.5513920000000 1.0
C      1  0.4526290000000  0.5964600000000  0.4530320000000 1.0
C      1  0.3948380000000  0.5200490000000  0.5226800000000 1.0
C      1  0.4782670000000  0.3830560000000  0.4952280000000 1.0
C      1  0.4338000000000  0.6029480000000  0.4737580000000 1.0
C      1  0.3845040000000  0.4875270000000  0.5196940000000 1.0
C      1  0.5151670000000  0.5065560000000  0.4295800000000 1.0
C      1  0.5655120000000  0.5666560000000  0.4711250000000 1.0
C      1  0.4244990000000  0.5870440000000  0.4936700000000 1.0
C      1  0.4866990000000  0.4280230000000  0.5722820000000 1.0
END
