TITL C-2847958-8115-523 -0.000431124852907584 125000 -330.755871739672 0 0 63 (C1) n - 1
REM
REM in /home/bkarasulu/work/CARBON/AIRSS/Generating-Clusters/AIREBO/with-SteepDescent/Only-C1/SD-CG-opt/Try1-1.4A-POS3A/HFTN-CG
REM
REM
REM
REM
REM
REM ./C.cell (11c1c37f851c82e70ff6c80c92926a4b)
REM
REM compiler GCC version 9.2.1 20190827 (Red Hat 9.2.1-1)
REM options -cpp -mtune=generic -march=x86-64 -g -O0 -fpre-include=/usr/include/finclude/math-vector-fortran.h
REM seed 545321130 -1123379274 1361243312 -770847838 -1516583206 -686998270 452964859 -476214079 -1068715513 26412602 321834841 1029418636 1294290528 700502016 699148872 -1042650540 -1315373456 -1408523222 -164319309 1249342559 1771925337 -651481441 -1565999053 750131592 409856599 1335921706 -823905087 1349833641 1788614193 1339676400 1177754808 -606493005 -756111911
REM
CELL 1.54180   50.00000   50.00000   50.00000   90.00000   90.00000   90.00000
LATT -1
SFAC C  
C      1  0.4856000000000  0.4943660000000  0.5080630000000 1.0
C      1  0.5283050000000  0.5149360000000  0.4794980000000 1.0
C      1  0.5679250000000  0.4958380000000  0.4768520000000 1.0
C      1  0.4694070000000  0.5067040000000  0.4227670000000 1.0
C      1  0.5418800000000  0.5712780000000  0.4944750000000 1.0
C      1  0.5655460000000  0.4748210000000  0.4992530000000 1.0
C      1  0.5532990000000  0.4471840000000  0.4855900000000 1.0
C      1  0.5583240000000  0.5240120000000  0.4890700000000 1.0
C      1  0.5058230000000  0.4369290000000  0.5460860000000 1.0
C      1  0.4963940000000  0.4968660000000  0.4221180000000 1.0
C      1  0.4864030000000  0.5708960000000  0.5198220000000 1.0
C      1  0.4341650000000  0.5312790000000  0.5216010000000 1.0
C      1  0.5044850000000  0.4264640000000  0.4715930000000 1.0
C      1  0.4390040000000  0.4849320000000  0.4603120000000 1.0
C      1  0.5465040000000  0.5415400000000  0.5373370000000 1.0
C      1  0.4638000000000  0.4275700000000  0.5083730000000 1.0
C      1  0.4708410000000  0.5244110000000  0.5020320000000 1.0
C      1  0.4395990000000  0.4788790000000  0.5386100000000 1.0
C      1  0.4718500000000  0.4863490000000  0.5381140000000 1.0
C      1  0.4610980000000  0.5483760000000  0.5241010000000 1.0
C      1  0.4797980000000  0.4429730000000  0.4838320000000 1.0
C      1  0.4587170000000  0.4781830000000  0.4938430000000 1.0
C      1  0.5589310000000  0.4492940000000  0.4519120000000 1.0
C      1  0.5182020000000  0.5566680000000  0.5455130000000 1.0
C      1  0.5145610000000  0.5120620000000  0.5104680000000 1.0
C      1  0.5195140000000  0.5135520000000  0.4265290000000 1.0
C      1  0.4866470000000  0.5497250000000  0.5464260000000 1.0
C      1  0.5010260000000  0.4663140000000  0.4965220000000 1.0
C      1  0.5006360000000  0.5072480000000  0.4676740000000 1.0
C      1  0.4236980000000  0.4771980000000  0.5190440000000 1.0
C      1  0.4987580000000  0.4789040000000  0.4653010000000 1.0
C      1  0.5100780000000  0.5455540000000  0.5144210000000 1.0
C      1  0.5207430000000  0.5232060000000  0.5509880000000 1.0
C      1  0.4965310000000  0.4452500000000  0.5228460000000 1.0
C      1  0.5012400000000  0.4727930000000  0.4366780000000 1.0
C      1  0.4801620000000  0.5559190000000  0.4903210000000 1.0
C      1  0.5338340000000  0.4661600000000  0.5054600000000 1.0
C      1  0.4378590000000  0.5342270000000  0.4691610000000 1.0
C      1  0.4633090000000  0.5070270000000  0.5721860000000 1.0
C      1  0.5555830000000  0.4832780000000  0.4506090000000 1.0
C      1  0.5560890000000  0.5508390000000  0.5065340000000 1.0
C      1  0.5687160000000  0.4856010000000  0.5525500000000 1.0
C      1  0.4680530000000  0.4598640000000  0.5181240000000 1.0
C      1  0.5353050000000  0.5078870000000  0.4480580000000 1.0
C      1  0.4527060000000  0.5109050000000  0.4493480000000 1.0
C      1  0.5481190000000  0.4878760000000  0.5706600000000 1.0
C      1  0.5224380000000  0.4844450000000  0.5286800000000 1.0
C      1  0.4490240000000  0.5178060000000  0.5463260000000 1.0
C      1  0.5473190000000  0.5143940000000  0.5196350000000 1.0
C      1  0.4971920000000  0.5047790000000  0.5671850000000 1.0
C      1  0.5645100000000  0.4902410000000  0.5264730000000 1.0
C      1  0.4823990000000  0.5186240000000  0.5398780000000 1.0
C      1  0.5290600000000  0.4374040000000  0.4646910000000 1.0
C      1  0.5193980000000  0.4829440000000  0.5593620000000 1.0
C      1  0.4652970000000  0.5527910000000  0.4612630000000 1.0
C      1  0.4966960000000  0.5650690000000  0.4560340000000 1.0
C      1  0.4604870000000  0.4609030000000  0.4652130000000 1.0
C      1  0.5289090000000  0.4631450000000  0.4443250000000 1.0
C      1  0.5123260000000  0.5644910000000  0.4862390000000 1.0
C      1  0.4298370000000  0.5226810000000  0.4948180000000 1.0
C      1  0.5110840000000  0.4538440000000  0.5668970000000 1.0
C      1  0.4294020000000  0.4925900000000  0.4918340000000 1.0
C      1  0.4755580000000  0.5217110000000  0.4704750000000 1.0
END
