TITL C-2848507-1641-511 -0.00488517182804032 125000 -900.296477312304 0 0 165 (C1) n - 1
REM
REM in /home/bkarasulu/work/CARBON/AIRSS/Generating-Clusters/AIREBO/with-SteepDescent/Only-C1/SD-CG-opt/Try1-1.4A-POS3A/HFTN-CG
REM
REM
REM
REM
REM
REM ./C.cell (11c1c37f851c82e70ff6c80c92926a4b)
REM
REM compiler GCC version 9.2.1 20190827 (Red Hat 9.2.1-1)
REM options -cpp -mtune=generic -march=x86-64 -g -O0 -fpre-include=/usr/include/finclude/math-vector-fortran.h
REM seed -1233686437 8394399 -1363208160 620471785 664307831 -1113054933 -1149331459 1949168375 -164277313 2106830952 -1498057241 1614868838 852529848 1357361648 -326452255 -347460257 1877226560 1799810967 487152828 774353342 -866061334 1992959203 675354654 -505560069 1861215834 -343273179 -1548119194 272029039 -241008239 -459320638 1398896909 659441775 -1100116759
REM
CELL 1.54180   50.00000   50.00000   50.00000   90.00000   90.00000   90.00000
LATT -1
SFAC C  
C      1  0.5070670000000  0.4690060000000  0.4075930000000 1.0
C      1  0.4403150000000  0.4528950000000  0.5122090000000 1.0
C      1  0.5744390000000  0.4547140000000  0.4565150000000 1.0
C      1  0.5558870000000  0.5334260000000  0.5536280000000 1.0
C      1  0.5727930000000  0.4298630000000  0.4737700000000 1.0
C      1  0.5191250000000  0.4884340000000  0.5887250000000 1.0
C      1  0.5653150000000  0.4398480000000  0.5333720000000 1.0
C      1  0.4004620000000  0.4633750000000  0.5338770000000 1.0
C      1  0.4563540000000  0.5968110000000  0.5305550000000 1.0
C      1  0.3713180000000  0.4569060000000  0.5366790000000 1.0
C      1  0.5104520000000  0.6058610000000  0.5385150000000 1.0
C      1  0.5643390000000  0.5655800000000  0.4549940000000 1.0
C      1  0.4170000000000  0.5017680000000  0.4938920000000 1.0
C      1  0.4127270000000  0.4700990000000  0.5055340000000 1.0
C      1  0.4371360000000  0.5885630000000  0.4803830000000 1.0
C      1  0.4347320000000  0.5877550000000  0.5105240000000 1.0
C      1  0.5049080000000  0.5063510000000  0.4638890000000 1.0
C      1  0.4704600000000  0.4353610000000  0.4192380000000 1.0
C      1  0.5236070000000  0.4549010000000  0.5326340000000 1.0
C      1  0.5558070000000  0.5436370000000  0.4023010000000 1.0
C      1  0.4723200000000  0.4031560000000  0.4881530000000 1.0
C      1  0.5242470000000  0.4026690000000  0.5081920000000 1.0
C      1  0.5418910000000  0.5210590000000  0.3986050000000 1.0
C      1  0.5205590000000  0.5853840000000  0.5900430000000 1.0
C      1  0.4494960000000  0.5150780000000  0.5828930000000 1.0
C      1  0.5613250000000  0.4785380000000  0.4166290000000 1.0
C      1  0.4762550000000  0.5560710000000  0.5463170000000 1.0
C      1  0.4673170000000  0.4956390000000  0.5956210000000 1.0
C      1  0.5410750000000  0.5355230000000  0.4946060000000 1.0
C      1  0.4864930000000  0.4808360000000  0.5331280000000 1.0
C      1  0.5182430000000  0.4945780000000  0.5331700000000 1.0
C      1  0.5329700000000  0.4339210000000  0.5080030000000 1.0
C      1  0.5131850000000  0.4690740000000  0.4756000000000 1.0
C      1  0.4710670000000  0.5544480000000  0.4658100000000 1.0
C      1  0.5046470000000  0.5819730000000  0.4169900000000 1.0
C      1  0.5540960000000  0.4107910000000  0.4831660000000 1.0
C      1  0.5066980000000  0.5257140000000  0.5404720000000 1.0
C      1  0.4975740000000  0.4364290000000  0.4052520000000 1.0
C      1  0.4144010000000  0.4838770000000  0.5533430000000 1.0
C      1  0.5791880000000  0.5166780000000  0.4636310000000 1.0
C      1  0.4507950000000  0.5129560000000  0.5204670000000 1.0
C      1  0.4482500000000  0.4015060000000  0.5119950000000 1.0
C      1  0.4827700000000  0.4734680000000  0.4641320000000 1.0
C      1  0.4686950000000  0.5530120000000  0.5132860000000 1.0
C      1  0.4196970000000  0.5101410000000  0.5339490000000 1.0
C      1  0.4554570000000  0.4536800000000  0.4684590000000 1.0
C      1  0.4822160000000  0.4398060000000  0.4842070000000 1.0
C      1  0.5516710000000  0.5216390000000  0.4474990000000 1.0
C      1  0.5418500000000  0.5078490000000  0.5125440000000 1.0
C      1  0.4428180000000  0.4883290000000  0.4053470000000 1.0
C      1  0.4470590000000  0.5433180000000  0.4324080000000 1.0
C      1  0.5803810000000  0.4827500000000  0.4710690000000 1.0
C      1  0.4833540000000  0.4525540000000  0.5756210000000 1.0
C      1  0.4986940000000  0.5308360000000  0.5708020000000 1.0
C      1  0.5538940000000  0.4878490000000  0.4918280000000 1.0
C      1  0.4964430000000  0.5012100000000  0.4955280000000 1.0
C      1  0.5559550000000  0.4112960000000  0.5171270000000 1.0
C      1  0.4304640000000  0.5230710000000  0.4500790000000 1.0
C      1  0.4500100000000  0.5063250000000  0.4871290000000 1.0
C      1  0.4740180000000  0.5225060000000  0.4335070000000 1.0
C      1  0.5437120000000  0.4967350000000  0.4644200000000 1.0
C      1  0.4197800000000  0.5137840000000  0.5682170000000 1.0
C      1  0.5204720000000  0.5514340000000  0.5261590000000 1.0
C      1  0.4366790000000  0.4945670000000  0.4368140000000 1.0
C      1  0.4028680000000  0.5173900000000  0.4671880000000 1.0
C      1  0.5974850000000  0.4683420000000  0.5062630000000 1.0
C      1  0.5963160000000  0.5102850000000  0.5311170000000 1.0
C      1  0.4624400000000  0.4925470000000  0.5529720000000 1.0
C      1  0.5658780000000  0.5212740000000  0.5254370000000 1.0
C      1  0.5486350000000  0.5565500000000  0.5304130000000 1.0
C      1  0.4241300000000  0.4446770000000  0.5477870000000 1.0
C      1  0.5068520000000  0.4298530000000  0.5492350000000 1.0
C      1  0.5521380000000  0.4672200000000  0.5187980000000 1.0
C      1  0.5818040000000  0.4817840000000  0.4010410000000 1.0
C      1  0.4566210000000  0.5793290000000  0.5538400000000 1.0
C      1  0.5128570000000  0.5909890000000  0.5645040000000 1.0
C      1  0.5135150000000  0.5021700000000  0.4038550000000 1.0
C      1  0.5603550000000  0.5726770000000  0.5596610000000 1.0
C      1  0.4288950000000  0.4690330000000  0.4536810000000 1.0
C      1  0.5324910000000  0.5552650000000  0.5666670000000 1.0
C      1  0.5347570000000  0.4509810000000  0.4058380000000 1.0
C      1  0.5146150000000  0.5565900000000  0.4943410000000 1.0
C      1  0.4989010000000  0.4383100000000  0.4544180000000 1.0
C      1  0.5405420000000  0.4508320000000  0.4842760000000 1.0
C      1  0.5260240000000  0.5176040000000  0.5807530000000 1.0
C      1  0.5512370000000  0.5906380000000  0.4619020000000 1.0
C      1  0.4537350000000  0.4198810000000  0.4650990000000 1.0
C      1  0.5052020000000  0.5304740000000  0.4444900000000 1.0
C      1  0.4262970000000  0.4444860000000  0.4314180000000 1.0
C      1  0.4858240000000  0.5997030000000  0.5227370000000 1.0
C      1  0.4366560000000  0.5675990000000  0.5702310000000 1.0
C      1  0.5539200000000  0.4529630000000  0.4328850000000 1.0
C      1  0.4269650000000  0.5380870000000  0.4806920000000 1.0
C      1  0.4313350000000  0.4244290000000  0.5211990000000 1.0
C      1  0.4970430000000  0.4060360000000  0.4649910000000 1.0
C      1  0.4497630000000  0.5716150000000  0.4368360000000 1.0
C      1  0.4743260000000  0.5206660000000  0.4679080000000 1.0
C      1  0.5855860000000  0.5692930000000  0.5369370000000 1.0
C      1  0.4993080000000  0.5347880000000  0.6045700000000 1.0
C      1  0.5347760000000  0.6079110000000  0.5228520000000 1.0
C      1  0.5582600000000  0.5881030000000  0.5294310000000 1.0
C      1  0.4938990000000  0.5047760000000  0.6007570000000 1.0
C      1  0.4516920000000  0.4274760000000  0.5548830000000 1.0
C      1  0.5958680000000  0.4813240000000  0.5316770000000 1.0
C      1  0.6047230000000  0.5117150000000  0.4836290000000 1.0
C      1  0.4936170000000  0.5291190000000  0.4065220000000 1.0
C      1  0.5509110000000  0.5318460000000  0.5931680000000 1.0
C      1  0.4414830000000  0.5434290000000  0.5312920000000 1.0
C      1  0.5160160000000  0.4164780000000  0.4133520000000 1.0
C      1  0.4406480000000  0.4692040000000  0.5646870000000 1.0
C      1  0.5076020000000  0.6035620000000  0.3999890000000 1.0
C      1  0.4615680000000  0.4049120000000  0.5385990000000 1.0
C      1  0.5262200000000  0.4135880000000  0.4388970000000 1.0
C      1  0.4219370000000  0.5625980000000  0.5163250000000 1.0
C      1  0.4764270000000  0.4439900000000  0.5441920000000 1.0
C      1  0.4121030000000  0.4511790000000  0.4772530000000 1.0
C      1  0.5564370000000  0.5556120000000  0.4273950000000 1.0
C      1  0.5778220000000  0.4671630000000  0.5493310000000 1.0
C      1  0.6110420000000  0.4830800000000  0.4852930000000 1.0
C      1  0.5856060000000  0.5321230000000  0.4999240000000 1.0
C      1  0.5271990000000  0.6069900000000  0.4702510000000 1.0
C      1  0.5288310000000  0.4225010000000  0.5741210000000 1.0
C      1  0.4901500000000  0.4132660000000  0.5737800000000 1.0
C      1  0.5249950000000  0.5531850000000  0.5986170000000 1.0
C      1  0.4741120000000  0.4566290000000  0.5126940000000 1.0
C      1  0.5975880000000  0.5445140000000  0.5292360000000 1.0
C      1  0.4481130000000  0.4274070000000  0.4331140000000 1.0
C      1  0.4683810000000  0.5255240000000  0.5590840000000 1.0
C      1  0.5307970000000  0.5454580000000  0.4472850000000 1.0
C      1  0.4023220000000  0.4833680000000  0.4693340000000 1.0
C      1  0.5152790000000  0.4749850000000  0.5062090000000 1.0
C      1  0.4104170000000  0.5312050000000  0.5095940000000 1.0
C      1  0.5327490000000  0.4415400000000  0.4547580000000 1.0
C      1  0.5402690000000  0.4992610000000  0.4246560000000 1.0
C      1  0.5449250000000  0.4688500000000  0.5867380000000 1.0
C      1  0.5663540000000  0.5445700000000  0.4767430000000 1.0
C      1  0.4450200000000  0.4800590000000  0.5268260000000 1.0
C      1  0.4907170000000  0.5775980000000  0.5063320000000 1.0
C      1  0.5723450000000  0.4529140000000  0.4963440000000 1.0
C      1  0.4205160000000  0.4242350000000  0.4709040000000 1.0
C      1  0.5043310000000  0.5643570000000  0.5498380000000 1.0
C      1  0.4917110000000  0.3843620000000  0.4432920000000 1.0
C      1  0.4976470000000  0.3969170000000  0.5100960000000 1.0
C      1  0.4859510000000  0.4619080000000  0.4335910000000 1.0
C      1  0.5667570000000  0.4829540000000  0.5703610000000 1.0
C      1  0.5309460000000  0.6172270000000  0.4962170000000 1.0
C      1  0.4830440000000  0.5113110000000  0.5248010000000 1.0
C      1  0.5201590000000  0.4841900000000  0.4475800000000 1.0
C      1  0.5655470000000  0.5105710000000  0.5740520000000 1.0
C      1  0.5288620000000  0.4767570000000  0.5581490000000 1.0
C      1  0.4324220000000  0.5891110000000  0.4522010000000 1.0
C      1  0.5243710000000  0.5676860000000  0.4660650000000 1.0
C      1  0.4635290000000  0.4693830000000  0.5854780000000 1.0
C      1  0.4892690000000  0.4044360000000  0.5350360000000 1.0
C      1  0.4484080000000  0.5588690000000  0.4866160000000 1.0
C      1  0.5309290000000  0.4042340000000  0.4689250000000 1.0
C      1  0.5382570000000  0.4411720000000  0.5973290000000 1.0
C      1  0.4906550000000  0.5347790000000  0.4941810000000 1.0
C      1  0.5061580000000  0.5893930000000  0.4501400000000 1.0
C      1  0.4978490000000  0.5564280000000  0.4055320000000 1.0
C      1  0.4679950000000  0.4899280000000  0.4260780000000 1.0
C      1  0.4779860000000  0.5768370000000  0.4462440000000 1.0
C      1  0.4698240000000  0.4828550000000  0.4914830000000 1.0
C      1  0.4318510000000  0.5425180000000  0.5603080000000 1.0
C      1  0.5080660000000  0.4469950000000  0.5853100000000 1.0
END
