TITL C-2848506-1665-512 0.0189116554323441 125000 -1000.34841193496 0 0 186 (C1) n - 1
REM
REM in /home/bkarasulu/work/CARBON/AIRSS/Generating-Clusters/AIREBO/with-SteepDescent/Only-C1/SD-CG-opt/Try1-1.4A-POS3A/HFTN-CG
REM
REM
REM
REM
REM
REM ./C.cell (11c1c37f851c82e70ff6c80c92926a4b)
REM
REM compiler GCC version 9.2.1 20190827 (Red Hat 9.2.1-1)
REM options -cpp -mtune=generic -march=x86-64 -g -O0 -fpre-include=/usr/include/finclude/math-vector-fortran.h
REM seed -862603144 -1930275708 1273204250 1750642075 497106285 -604907115 -717701022 -356714821 681601660 -1633694729 1415605532 1777651074 -1465238365 791043456 -1403027953 687738502 1580201396 336082043 519806855 1671589849 -1593944600 1748719485 -1833245725 182854902 294690257 -1247452770 -1381414907 1773832828 -1482515989 1309387474 2131274548 1758471311 1367738598
REM
CELL 1.54180   50.00000   50.00000   50.00000   90.00000   90.00000   90.00000
LATT -1
SFAC C  
C      1  0.5164830000000  0.4385270000000  0.6129470000000 1.0
C      1  0.4264260000000  0.5362910000000  0.4480210000000 1.0
C      1  0.4843930000000  0.5653450000000  0.5083600000000 1.0
C      1  0.5140410000000  0.6065400000000  0.4794060000000 1.0
C      1  0.6039440000000  0.5250110000000  0.5190050000000 1.0
C      1  0.5557330000000  0.5347590000000  0.5692620000000 1.0
C      1  0.4981630000000  0.4837290000000  0.3854070000000 1.0
C      1  0.5385860000000  0.5114650000000  0.4077700000000 1.0
C      1  0.4345060000000  0.4995820000000  0.4611480000000 1.0
C      1  0.4910540000000  0.4494180000000  0.5361590000000 1.0
C      1  0.4898810000000  0.5558680000000  0.4189930000000 1.0
C      1  0.5326890000000  0.5952500000000  0.5055170000000 1.0
C      1  0.4619860000000  0.5346360000000  0.5933160000000 1.0
C      1  0.5299030000000  0.5350540000000  0.4444820000000 1.0
C      1  0.5200940000000  0.5566040000000  0.4227000000000 1.0
C      1  0.4910810000000  0.4107760000000  0.5463530000000 1.0
C      1  0.6050850000000  0.4945500000000  0.5103250000000 1.0
C      1  0.4399500000000  0.6060010000000  0.5230040000000 1.0
C      1  0.3903660000000  0.4547050000000  0.5367470000000 1.0
C      1  0.6241230000000  0.4828040000000  0.4618780000000 1.0
C      1  0.5702830000000  0.5681830000000  0.4485210000000 1.0
C      1  0.4751540000000  0.5047670000000  0.5998240000000 1.0
C      1  0.4669250000000  0.4421980000000  0.4732950000000 1.0
C      1  0.4625690000000  0.5402560000000  0.4319040000000 1.0
C      1  0.6175660000000  0.4754990000000  0.4870390000000 1.0
C      1  0.5333800000000  0.5018380000000  0.5103540000000 1.0
C      1  0.5728970000000  0.4852260000000  0.5157140000000 1.0
C      1  0.5148690000000  0.5047990000000  0.5674030000000 1.0
C      1  0.5453760000000  0.5814840000000  0.4562670000000 1.0
C      1  0.5534200000000  0.5310590000000  0.4767290000000 1.0
C      1  0.4635900000000  0.5181920000000  0.3885750000000 1.0
C      1  0.4364470000000  0.4274600000000  0.4764590000000 1.0
C      1  0.5084930000000  0.4479890000000  0.4717840000000 1.0
C      1  0.5165670000000  0.4281920000000  0.4476240000000 1.0
C      1  0.4969080000000  0.5450700000000  0.5772450000000 1.0
C      1  0.4988290000000  0.5993780000000  0.5444490000000 1.0
C      1  0.5258720000000  0.5427760000000  0.6042160000000 1.0
C      1  0.4270670000000  0.5119590000000  0.4241810000000 1.0
C      1  0.4411380000000  0.4845530000000  0.4096110000000 1.0
C      1  0.4382600000000  0.5250960000000  0.5737380000000 1.0
C      1  0.4713960000000  0.5862090000000  0.5596450000000 1.0
C      1  0.4810230000000  0.5962320000000  0.5221880000000 1.0
C      1  0.3952100000000  0.4655650000000  0.5081980000000 1.0
C      1  0.5855010000000  0.5097440000000  0.4870340000000 1.0
C      1  0.4012030000000  0.4865560000000  0.5417100000000 1.0
C      1  0.4207390000000  0.4900110000000  0.4907650000000 1.0
C      1  0.5468510000000  0.4594910000000  0.4327660000000 1.0
C      1  0.4815580000000  0.5101930000000  0.4716810000000 1.0
C      1  0.5840490000000  0.4578620000000  0.5535340000000 1.0
C      1  0.4743050000000  0.5657810000000  0.5866880000000 1.0
C      1  0.4898730000000  0.4372520000000  0.4978960000000 1.0
C      1  0.4658950000000  0.4375770000000  0.4311320000000 1.0
C      1  0.5179600000000  0.4299080000000  0.5860250000000 1.0
C      1  0.5302240000000  0.4926220000000  0.4546870000000 1.0
C      1  0.5047760000000  0.5193790000000  0.5968540000000 1.0
C      1  0.5409150000000  0.4722150000000  0.4954180000000 1.0
C      1  0.4898640000000  0.5861210000000  0.4819860000000 1.0
C      1  0.4698980000000  0.5364780000000  0.4852380000000 1.0
C      1  0.4615390000000  0.4896130000000  0.5213150000000 1.0
C      1  0.4431570000000  0.4429770000000  0.5059680000000 1.0
C      1  0.4878600000000  0.5317130000000  0.5122110000000 1.0
C      1  0.5906170000000  0.5427310000000  0.4935000000000 1.0
C      1  0.4917950000000  0.4303020000000  0.5713140000000 1.0
C      1  0.6242400000000  0.5430920000000  0.4985610000000 1.0
C      1  0.4432590000000  0.5175080000000  0.5282900000000 1.0
C      1  0.5814410000000  0.4983290000000  0.4469770000000 1.0
C      1  0.4280710000000  0.4688490000000  0.5163620000000 1.0
C      1  0.6181150000000  0.5176060000000  0.4806060000000 1.0
C      1  0.4083710000000  0.4909510000000  0.4433400000000 1.0
C      1  0.3936100000000  0.4561260000000  0.4795750000000 1.0
C      1  0.4415340000000  0.4814770000000  0.5450790000000 1.0
C      1  0.4305680000000  0.4552870000000  0.4220370000000 1.0
C      1  0.5584380000000  0.5119540000000  0.5309920000000 1.0
C      1  0.4843070000000  0.4685110000000  0.5111210000000 1.0
C      1  0.4995980000000  0.4765350000000  0.4603730000000 1.0
C      1  0.5867640000000  0.4228340000000  0.5351930000000 1.0
C      1  0.4664870000000  0.4732220000000  0.4673980000000 1.0
C      1  0.5398840000000  0.4895750000000  0.5813150000000 1.0
C      1  0.5120010000000  0.3985820000000  0.5258870000000 1.0
C      1  0.6090330000000  0.4957770000000  0.4421210000000 1.0
C      1  0.5284250000000  0.4264820000000  0.4033990000000 1.0
C      1  0.5883550000000  0.4610790000000  0.4967920000000 1.0
C      1  0.4646670000000  0.4250230000000  0.5164840000000 1.0
C      1  0.4414090000000  0.5958360000000  0.4940570000000 1.0
C      1  0.4283380000000  0.4453800000000  0.5712380000000 1.0
C      1  0.5321190000000  0.5712500000000  0.4814400000000 1.0
C      1  0.4879920000000  0.4633410000000  0.5742600000000 1.0
C      1  0.4508620000000  0.5709120000000  0.5073440000000 1.0
C      1  0.4414780000000  0.5668920000000  0.5778960000000 1.0
C      1  0.4536160000000  0.4057800000000  0.5339820000000 1.0
C      1  0.4502630000000  0.5585170000000  0.4578140000000 1.0
C      1  0.4072970000000  0.4305030000000  0.4937040000000 1.0
C      1  0.5610180000000  0.5214020000000  0.4465120000000 1.0
C      1  0.5252570000000  0.4102990000000  0.4233320000000 1.0
C      1  0.3905540000000  0.5278090000000  0.5046900000000 1.0
C      1  0.4754740000000  0.3884520000000  0.4847650000000 1.0
C      1  0.5777910000000  0.5526540000000  0.5545910000000 1.0
C      1  0.4432060000000  0.5346830000000  0.4045080000000 1.0
C      1  0.5154350000000  0.4559470000000  0.4082660000000 1.0
C      1  0.4860810000000  0.4495890000000  0.4073320000000 1.0
C      1  0.5499310000000  0.4738010000000  0.5334930000000 1.0
C      1  0.5851240000000  0.5245090000000  0.5423120000000 1.0
C      1  0.4275310000000  0.5578350000000  0.5185510000000 1.0
C      1  0.4351550000000  0.4329000000000  0.4426230000000 1.0
C      1  0.4203540000000  0.5345460000000  0.5396260000000 1.0
C      1  0.4598900000000  0.5115720000000  0.4468990000000 1.0
C      1  0.3924450000000  0.4730730000000  0.4564140000000 1.0
C      1  0.5420510000000  0.5820560000000  0.5555060000000 1.0
C      1  0.5027030000000  0.4791160000000  0.5479680000000 1.0
C      1  0.4009070000000  0.5041980000000  0.5136300000000 1.0
C      1  0.5255650000000  0.3853980000000  0.4983510000000 1.0
C      1  0.5321190000000  0.5238950000000  0.5480070000000 1.0
C      1  0.4575910000000  0.5467730000000  0.5560020000000 1.0
C      1  0.5003240000000  0.4095980000000  0.4790380000000 1.0
C      1  0.5662410000000  0.4106020000000  0.4860430000000 1.0
C      1  0.4187810000000  0.5027260000000  0.5899020000000 1.0
C      1  0.4605660000000  0.4926330000000  0.4902100000000 1.0
C      1  0.5704150000000  0.5605490000000  0.4812100000000 1.0
C      1  0.4915070000000  0.4770960000000  0.6017970000000 1.0
C      1  0.4351730000000  0.5398850000000  0.4819390000000 1.0
C      1  0.5133630000000  0.5482520000000  0.4711120000000 1.0
C      1  0.4792660000000  0.5844280000000  0.4284300000000 1.0
C      1  0.4438700000000  0.5920280000000  0.5465050000000 1.0
C      1  0.4416830000000  0.5904990000000  0.4661620000000 1.0
C      1  0.5673330000000  0.4835330000000  0.5990290000000 1.0
C      1  0.4349090000000  0.4659830000000  0.4603180000000 1.0
C      1  0.5067720000000  0.5147440000000  0.4511660000000 1.0
C      1  0.5583770000000  0.4370420000000  0.5451380000000 1.0
C      1  0.4835200000000  0.5172240000000  0.5630490000000 1.0
C      1  0.5761120000000  0.4721110000000  0.4670420000000 1.0
C      1  0.4552930000000  0.4616900000000  0.5767880000000 1.0
C      1  0.5157720000000  0.5513240000000  0.5409500000000 1.0
C      1  0.4502610000000  0.3966470000000  0.4800330000000 1.0
C      1  0.5288960000000  0.5554480000000  0.5721510000000 1.0
C      1  0.4827640000000  0.5581610000000  0.4678350000000 1.0
C      1  0.4954970000000  0.3785820000000  0.5037730000000 1.0
C      1  0.5018170000000  0.5023680000000  0.5226560000000 1.0
C      1  0.4852200000000  0.5617790000000  0.5429880000000 1.0
C      1  0.4637930000000  0.4389200000000  0.5539300000000 1.0
C      1  0.5638810000000  0.5846560000000  0.5010710000000 1.0
C      1  0.4070510000000  0.5481810000000  0.4969630000000 1.0
C      1  0.5381060000000  0.4395600000000  0.5692750000000 1.0
C      1  0.5830580000000  0.4285410000000  0.4884590000000 1.0
C      1  0.5391940000000  0.4555710000000  0.4657110000000 1.0
C      1  0.5367010000000  0.4809170000000  0.6124420000000 1.0
C      1  0.4094760000000  0.4322800000000  0.5246780000000 1.0
C      1  0.4193310000000  0.4773060000000  0.5690000000000 1.0
C      1  0.4659280000000  0.4868010000000  0.3864090000000 1.0
C      1  0.5718980000000  0.5132970000000  0.5836130000000 1.0
C      1  0.4718030000000  0.5249010000000  0.5364150000000 1.0
C      1  0.5139880000000  0.4315770000000  0.5211840000000 1.0
C      1  0.4612710000000  0.4927930000000  0.5711220000000 1.0
C      1  0.5992940000000  0.4493570000000  0.5267770000000 1.0
C      1  0.4576630000000  0.5655760000000  0.4097300000000 1.0
C      1  0.5534130000000  0.4631050000000  0.3995660000000 1.0
C      1  0.5672430000000  0.5479040000000  0.4295030000000 1.0
C      1  0.4235570000000  0.5667390000000  0.5502380000000 1.0
C      1  0.5279580000000  0.5294240000000  0.4950420000000 1.0
C      1  0.4083780000000  0.5144830000000  0.5597420000000 1.0
C      1  0.5259230000000  0.5846260000000  0.4357470000000 1.0
C      1  0.5955150000000  0.5057400000000  0.5649240000000 1.0
C      1  0.4860210000000  0.4937470000000  0.4343660000000 1.0
C      1  0.5003040000000  0.4899710000000  0.4916030000000 1.0
C      1  0.5629990000000  0.5266100000000  0.4071370000000 1.0
C      1  0.5133120000000  0.4666960000000  0.6163450000000 1.0
C      1  0.5783640000000  0.5890110000000  0.5238100000000 1.0
C      1  0.5017160000000  0.6022710000000  0.4474590000000 1.0
C      1  0.5336410000000  0.4696880000000  0.5584720000000 1.0
C      1  0.4329140000000  0.4269550000000  0.5459280000000 1.0
C      1  0.5493230000000  0.4252330000000  0.4531060000000 1.0
C      1  0.5278270000000  0.4740000000000  0.3832630000000 1.0
C      1  0.5688790000000  0.5775180000000  0.5478030000000 1.0
C      1  0.4392390000000  0.5137220000000  0.4986070000000 1.0
C      1  0.5398340000000  0.4470370000000  0.5183520000000 1.0
C      1  0.4701950000000  0.5944990000000  0.4573890000000 1.0
C      1  0.5734760000000  0.4475880000000  0.4481300000000 1.0
C      1  0.5156450000000  0.5281660000000  0.4063450000000 1.0
C      1  0.5252390000000  0.5950960000000  0.5372820000000 1.0
C      1  0.4674730000000  0.4706650000000  0.4228680000000 1.0
C      1  0.4918670000000  0.5100660000000  0.4052860000000 1.0
C      1  0.5861480000000  0.4779620000000  0.5719560000000 1.0
C      1  0.5341730000000  0.4060030000000  0.4765660000000 1.0
C      1  0.5286590000000  0.4845760000000  0.4216840000000 1.0
C      1  0.5554530000000  0.4970850000000  0.4773380000000 1.0
C      1  0.4844280000000  0.4230280000000  0.4521460000000 1.0
C      1  0.5176810000000  0.5584800000000  0.5094530000000 1.0
END
