TITL C-2848498-1409-384 0.00166991243268935 125000 -423.829184308994 0 0 81 (C1) n - 1
REM
REM in /home/bkarasulu/work/CARBON/AIRSS/Generating-Clusters/AIREBO/with-SteepDescent/Only-C1/SD-CG-opt/Try1-1.4A-POS3A/HFTN-CG
REM
REM
REM
REM
REM
REM ./C.cell (11c1c37f851c82e70ff6c80c92926a4b)
REM
REM compiler GCC version 9.2.1 20190827 (Red Hat 9.2.1-1)
REM options -cpp -mtune=generic -march=x86-64 -g -O0 -fpre-include=/usr/include/finclude/math-vector-fortran.h
REM seed -646511353 288200523 -564829255 611280365 1498573026 602966225 1469851481 -2057208513 584647523 -1582245354 -569047631 526185329 -1950468962 238020188 713667897 -1559464101 -2052029519 -91126160 1614564052 723625324 2024106295 -520770993 -1229211785 1616082859 -5850755 -1384599649 354039770 -668350364 -284493125 -1482688838 -150863704 -831005826 878568773
REM
CELL 1.54180   50.00000   50.00000   50.00000   90.00000   90.00000   90.00000
LATT -1
SFAC C  
C      1  0.5899210000000  0.4920380000000  0.5432850000000 1.0
C      1  0.4331030000000  0.5048770000000  0.5050750000000 1.0
C      1  0.4363700000000  0.4652300000000  0.5034810000000 1.0
C      1  0.5682160000000  0.4351250000000  0.4998520000000 1.0
C      1  0.5170030000000  0.4761930000000  0.4196700000000 1.0
C      1  0.4985740000000  0.4262340000000  0.5152960000000 1.0
C      1  0.4767880000000  0.4904390000000  0.4912350000000 1.0
C      1  0.4927390000000  0.4991980000000  0.4207250000000 1.0
C      1  0.4933600000000  0.5167790000000  0.4919580000000 1.0
C      1  0.5663260000000  0.5446610000000  0.5487900000000 1.0
C      1  0.4444520000000  0.4846350000000  0.5293790000000 1.0
C      1  0.5311180000000  0.4229510000000  0.5082380000000 1.0
C      1  0.4165030000000  0.5296710000000  0.5151740000000 1.0
C      1  0.4674940000000  0.4407660000000  0.4951440000000 1.0
C      1  0.4746690000000  0.5553120000000  0.4874540000000 1.0
C      1  0.5408800000000  0.4743330000000  0.4851010000000 1.0
C      1  0.5523180000000  0.4879980000000  0.5555520000000 1.0
C      1  0.5438560000000  0.5130190000000  0.4735200000000 1.0
C      1  0.5048620000000  0.4765910000000  0.4512810000000 1.0
C      1  0.4786930000000  0.4813450000000  0.5639310000000 1.0
C      1  0.4901720000000  0.5299610000000  0.4606790000000 1.0
C      1  0.4835840000000  0.4499090000000  0.5667870000000 1.0
C      1  0.4427300000000  0.4368240000000  0.4762420000000 1.0
C      1  0.4818370000000  0.5162660000000  0.5446930000000 1.0
C      1  0.4274080000000  0.5503800000000  0.5238170000000 1.0
C      1  0.4223660000000  0.4907340000000  0.4764850000000 1.0
C      1  0.5233250000000  0.4462500000000  0.5392030000000 1.0
C      1  0.5922800000000  0.5057010000000  0.4436520000000 1.0
C      1  0.4994980000000  0.5852220000000  0.4780240000000 1.0
C      1  0.5052170000000  0.4651970000000  0.5249250000000 1.0
C      1  0.4893140000000  0.5680160000000  0.5441470000000 1.0
C      1  0.5225800000000  0.4917980000000  0.5662980000000 1.0
C      1  0.4658740000000  0.4271820000000  0.5246530000000 1.0
C      1  0.4721080000000  0.4672120000000  0.4505310000000 1.0
C      1  0.5375000000000  0.4873720000000  0.4520870000000 1.0
C      1  0.4504590000000  0.5105330000000  0.4361470000000 1.0
C      1  0.4937520000000  0.4296890000000  0.4801560000000 1.0
C      1  0.5685940000000  0.5041200000000  0.4524150000000 1.0
C      1  0.4527820000000  0.4754960000000  0.4755200000000 1.0
C      1  0.5670920000000  0.4677490000000  0.5353710000000 1.0
C      1  0.5336220000000  0.4286490000000  0.4805710000000 1.0
C      1  0.4927490000000  0.5685100000000  0.5131940000000 1.0
C      1  0.4477280000000  0.4505700000000  0.5284980000000 1.0
C      1  0.4966770000000  0.4341310000000  0.5483900000000 1.0
C      1  0.4553540000000  0.5823710000000  0.5140480000000 1.0
C      1  0.5429730000000  0.4999200000000  0.5021980000000 1.0
C      1  0.4764470000000  0.5938860000000  0.4972430000000 1.0
C      1  0.4533720000000  0.5015490000000  0.5527990000000 1.0
C      1  0.4479870000000  0.5329910000000  0.5571590000000 1.0
C      1  0.4904220000000  0.4396550000000  0.4483840000000 1.0
C      1  0.4554570000000  0.5676060000000  0.4653970000000 1.0
C      1  0.4604550000000  0.5372290000000  0.4548280000000 1.0
C      1  0.4250900000000  0.4582800000000  0.4658270000000 1.0
C      1  0.5016710000000  0.5236270000000  0.4322760000000 1.0
C      1  0.5391850000000  0.5013630000000  0.4211400000000 1.0
C      1  0.5442990000000  0.5637870000000  0.4923980000000 1.0
C      1  0.4418930000000  0.5130200000000  0.4670890000000 1.0
C      1  0.5010170000000  0.4908340000000  0.5400930000000 1.0
C      1  0.5519550000000  0.4418590000000  0.5273880000000 1.0
C      1  0.5652520000000  0.4530540000000  0.4800380000000 1.0
C      1  0.5164990000000  0.5098380000000  0.5158910000000 1.0
C      1  0.4552810000000  0.5280020000000  0.4934310000000 1.0
C      1  0.5597440000000  0.4616510000000  0.4525270000000 1.0
C      1  0.5088220000000  0.4444470000000  0.4274120000000 1.0
C      1  0.4685240000000  0.4902280000000  0.4295400000000 1.0
C      1  0.5037410000000  0.5854640000000  0.5670430000000 1.0
C      1  0.4853820000000  0.5071840000000  0.5834830000000 1.0
C      1  0.5146230000000  0.4563730000000  0.4753900000000 1.0
C      1  0.5141720000000  0.5534220000000  0.5621790000000 1.0
C      1  0.5065090000000  0.5519960000000  0.4759820000000 1.0
C      1  0.5278320000000  0.5266020000000  0.4213810000000 1.0
C      1  0.5334810000000  0.5137840000000  0.5432560000000 1.0
C      1  0.4768370000000  0.5306150000000  0.5182960000000 1.0
C      1  0.4939160000000  0.5316000000000  0.5694870000000 1.0
C      1  0.5662860000000  0.4978280000000  0.5195370000000 1.0
C      1  0.4914890000000  0.4645630000000  0.4989210000000 1.0
C      1  0.4594600000000  0.5552080000000  0.5340960000000 1.0
C      1  0.5800450000000  0.5226640000000  0.5383430000000 1.0
C      1  0.5223920000000  0.5792750000000  0.5004870000000 1.0
C      1  0.5394370000000  0.5414220000000  0.5518840000000 1.0
C      1  0.5362070000000  0.5419400000000  0.4765050000000 1.0
END
