TITL C-2848497-6229-545 -0.000307472396592028 125000 -218.495165863067 0 0 40 (C1) n - 1
REM
REM in /home/bkarasulu/work/CARBON/AIRSS/Generating-Clusters/AIREBO/with-SteepDescent/Only-C1/SD-CG-opt/Try1-1.4A-POS3A/HFTN-CG
REM
REM
REM
REM
REM
REM ./C.cell (11c1c37f851c82e70ff6c80c92926a4b)
REM
REM compiler GCC version 9.2.1 20190827 (Red Hat 9.2.1-1)
REM options -cpp -mtune=generic -march=x86-64 -g -O0 -fpre-include=/usr/include/finclude/math-vector-fortran.h
REM seed 811827450 1976346778 1467980878 1388120248 -220279282 -895701460 -191923521 957159671 1804044119 748024020 1132259015 1418898407 -809616344 -1811221328 646496099 -134636065 2118461543 183066835 870732270 -1811035157 -1555049431 -1911150456 330723514 -277056496 -829809011 -757048662 446794152 1324976270 1073423230 -1958501155 1966875615 1911409254 1395828391
REM
CELL 1.54180   50.00000   50.00000   50.00000   90.00000   90.00000   90.00000
LATT -1
SFAC C  
C      1  0.5090470000000  0.5297860000000  0.5453440000000 1.0
C      1  0.4536930000000  0.4544120000000  0.4908320000000 1.0
C      1  0.5013890000000  0.4616200000000  0.4991480000000 1.0
C      1  0.5553230000000  0.4729780000000  0.4422740000000 1.0
C      1  0.4956480000000  0.5033880000000  0.5312720000000 1.0
C      1  0.4603170000000  0.5375480000000  0.5280470000000 1.0
C      1  0.4954890000000  0.5140230000000  0.4410900000000 1.0
C      1  0.5426080000000  0.5494630000000  0.5140950000000 1.0
C      1  0.5245320000000  0.5428390000000  0.4900260000000 1.0
C      1  0.5420630000000  0.4917490000000  0.4569290000000 1.0
C      1  0.4873220000000  0.5454810000000  0.5264680000000 1.0
C      1  0.5383490000000  0.4376230000000  0.5399160000000 1.0
C      1  0.4682290000000  0.4874980000000  0.5389250000000 1.0
C      1  0.5360420000000  0.5432850000000  0.5376480000000 1.0
C      1  0.5441870000000  0.5406400000000  0.4315120000000 1.0
C      1  0.5390320000000  0.4931500000000  0.4843330000000 1.0
C      1  0.4845300000000  0.5390740000000  0.4432850000000 1.0
C      1  0.5161660000000  0.4262780000000  0.5346090000000 1.0
C      1  0.4797310000000  0.4924230000000  0.4553210000000 1.0
C      1  0.5261730000000  0.5143560000000  0.4439250000000 1.0
C      1  0.4951730000000  0.4867630000000  0.4820670000000 1.0
C      1  0.4869950000000  0.5100910000000  0.5025320000000 1.0
C      1  0.5488200000000  0.4840170000000  0.5112330000000 1.0
C      1  0.4552480000000  0.5171180000000  0.5013410000000 1.0
C      1  0.4885650000000  0.4673850000000  0.5471280000000 1.0
C      1  0.5160940000000  0.4829610000000  0.5182370000000 1.0
C      1  0.4476460000000  0.4918990000000  0.5204960000000 1.0
C      1  0.4600720000000  0.5483220000000  0.4887240000000 1.0
C      1  0.5330690000000  0.5428010000000  0.4610500000000 1.0
C      1  0.4929060000000  0.4447430000000  0.5257800000000 1.0
C      1  0.5159700000000  0.5130700000000  0.4892370000000 1.0
C      1  0.5126660000000  0.4786470000000  0.5576920000000 1.0
C      1  0.4362470000000  0.4701480000000  0.5068000000000 1.0
C      1  0.4806630000000  0.5531930000000  0.4667590000000 1.0
C      1  0.4625730000000  0.4655320000000  0.4664610000000 1.0
C      1  0.4512610000000  0.5034500000000  0.4704610000000 1.0
C      1  0.4954940000000  0.5529810000000  0.4967170000000 1.0
C      1  0.4696620000000  0.4362830000000  0.5054020000000 1.0
C      1  0.5381760000000  0.4685220000000  0.5396830000000 1.0
C      1  0.5128310000000  0.5044620000000  0.5671990000000 1.0
END
