TITL C-2847951-7423-60 2.40407261183034e-05 125000 -644.246539190934 0 0 117 (C1) n - 1
REM
REM in /home/bkarasulu/work/CARBON/AIRSS/Generating-Clusters/AIREBO/with-SteepDescent/Only-C1/SD-CG-opt/Try1-1.4A-POS3A/HFTN-CG
REM
REM
REM
REM
REM
REM ./C.cell (11c1c37f851c82e70ff6c80c92926a4b)
REM
REM compiler GCC version 9.2.1 20190827 (Red Hat 9.2.1-1)
REM options -cpp -mtune=generic -march=x86-64 -g -O0 -fpre-include=/usr/include/finclude/math-vector-fortran.h
REM seed -335338236 -2110907620 -222906901 -431623854 -2090122790 -1360508010 -1120192385 2060088448 -625636738 -1619793687 -372122149 -1133314686 -1824424918 1241350232 -1063964135 535390810 -1893776481 -92058521 1730943231 -817863196 1819044663 -154223536 -925696562 1405247320 -159583696 -117889493 1833110862 1038152769 991676693 -146138822 1736156784 -1380502397 1182999397
REM
CELL 1.54180   50.00000   50.00000   50.00000   90.00000   90.00000   90.00000
LATT -1
SFAC C  
C      1  0.5499710000000  0.5695620000000  0.5168220000000 1.0
C      1  0.4163650000000  0.5382060000000  0.4926870000000 1.0
C      1  0.4090720000000  0.5460420000000  0.5456230000000 1.0
C      1  0.5210880000000  0.5302240000000  0.5285730000000 1.0
C      1  0.5269570000000  0.4460670000000  0.4588230000000 1.0
C      1  0.5014070000000  0.5066050000000  0.5175020000000 1.0
C      1  0.5311760000000  0.5208200000000  0.4731580000000 1.0
C      1  0.5723320000000  0.5471550000000  0.4875390000000 1.0
C      1  0.5394350000000  0.5441860000000  0.4182200000000 1.0
C      1  0.5286040000000  0.5060680000000  0.5932320000000 1.0
C      1  0.4563720000000  0.5083780000000  0.5703580000000 1.0
C      1  0.5317000000000  0.5696230000000  0.4300430000000 1.0
C      1  0.4809470000000  0.4004810000000  0.4555580000000 1.0
C      1  0.5012330000000  0.5853310000000  0.4637690000000 1.0
C      1  0.5443260000000  0.5721990000000  0.4558640000000 1.0
C      1  0.4704800000000  0.5454070000000  0.4835490000000 1.0
C      1  0.4091620000000  0.4991610000000  0.5208840000000 1.0
C      1  0.5096420000000  0.5229650000000  0.6047180000000 1.0
C      1  0.5540150000000  0.5440210000000  0.4632800000000 1.0
C      1  0.4509470000000  0.5740650000000  0.4626570000000 1.0
C      1  0.5106630000000  0.4368770000000  0.5547730000000 1.0
C      1  0.4313100000000  0.4199400000000  0.4939050000000 1.0
C      1  0.4747290000000  0.4099650000000  0.5155150000000 1.0
C      1  0.4454530000000  0.5351730000000  0.4662100000000 1.0
C      1  0.5488430000000  0.4302890000000  0.5426820000000 1.0
C      1  0.4711890000000  0.5062320000000  0.4172170000000 1.0
C      1  0.4275420000000  0.4986430000000  0.4417420000000 1.0
C      1  0.5154100000000  0.4790140000000  0.4782390000000 1.0
C      1  0.5526870000000  0.4751560000000  0.5732120000000 1.0
C      1  0.4967740000000  0.4617700000000  0.4599200000000 1.0
C      1  0.5261060000000  0.4545690000000  0.5760690000000 1.0
C      1  0.4627140000000  0.4795090000000  0.4701920000000 1.0
C      1  0.4641920000000  0.4656450000000  0.5276960000000 1.0
C      1  0.5495480000000  0.5055300000000  0.4953440000000 1.0
C      1  0.4202650000000  0.4724780000000  0.5387960000000 1.0
C      1  0.4412500000000  0.4392580000000  0.4456810000000 1.0
C      1  0.4476350000000  0.5509490000000  0.4377190000000 1.0
C      1  0.4444320000000  0.5506750000000  0.5049090000000 1.0
C      1  0.5534960000000  0.5159880000000  0.5808090000000 1.0
C      1  0.5281740000000  0.4080350000000  0.5563280000000 1.0
C      1  0.5040460000000  0.5765990000000  0.4321210000000 1.0
C      1  0.5348550000000  0.4823330000000  0.5381930000000 1.0
C      1  0.5833360000000  0.4763580000000  0.5164440000000 1.0
C      1  0.4443660000000  0.5178660000000  0.4305710000000 1.0
C      1  0.5143510000000  0.5294230000000  0.4087470000000 1.0
C      1  0.4547930000000  0.5253570000000  0.5220770000000 1.0
C      1  0.5288060000000  0.5617770000000  0.5615190000000 1.0
C      1  0.4541750000000  0.4368990000000  0.5124980000000 1.0
C      1  0.4799840000000  0.4302980000000  0.5591440000000 1.0
C      1  0.5098030000000  0.5292960000000  0.4405750000000 1.0
C      1  0.4787350000000  0.5155430000000  0.4760570000000 1.0
C      1  0.4733430000000  0.4067300000000  0.5465440000000 1.0
C      1  0.4834260000000  0.5125230000000  0.4472520000000 1.0
C      1  0.4356210000000  0.5005560000000  0.5505530000000 1.0
C      1  0.5646250000000  0.5254430000000  0.5326610000000 1.0
C      1  0.5060350000000  0.4913550000000  0.5538650000000 1.0
C      1  0.5286360000000  0.4173060000000  0.4902830000000 1.0
C      1  0.4815670000000  0.5297020000000  0.5316520000000 1.0
C      1  0.5811480000000  0.4973420000000  0.4939450000000 1.0
C      1  0.5297120000000  0.5870320000000  0.4751940000000 1.0
C      1  0.4381770000000  0.4492280000000  0.4780530000000 1.0
C      1  0.5612580000000  0.5328340000000  0.4353080000000 1.0
C      1  0.5719560000000  0.4873190000000  0.4657740000000 1.0
C      1  0.4892650000000  0.4087800000000  0.4784720000000 1.0
C      1  0.4084860000000  0.5182200000000  0.5456390000000 1.0
C      1  0.5253600000000  0.5007620000000  0.4463140000000 1.0
C      1  0.4312330000000  0.4790740000000  0.4609840000000 1.0
C      1  0.4939540000000  0.4759140000000  0.5276510000000 1.0
C      1  0.4798570000000  0.5804010000000  0.5074850000000 1.0
C      1  0.4338610000000  0.4537440000000  0.5607700000000 1.0
C      1  0.5040820000000  0.5068160000000  0.4882150000000 1.0
C      1  0.5317460000000  0.4496930000000  0.4991810000000 1.0
C      1  0.5000330000000  0.5548710000000  0.5181760000000 1.0
C      1  0.5163610000000  0.5465930000000  0.4895200000000 1.0
C      1  0.4731240000000  0.5846890000000  0.4772940000000 1.0
C      1  0.4890240000000  0.5447930000000  0.6137160000000 1.0
C      1  0.4917310000000  0.4350220000000  0.5000510000000 1.0
C      1  0.5089770000000  0.5936450000000  0.5191100000000 1.0
C      1  0.5838870000000  0.5256510000000  0.5064180000000 1.0
C      1  0.5864470000000  0.4507770000000  0.5076470000000 1.0
C      1  0.5531000000000  0.4292390000000  0.4726510000000 1.0
C      1  0.5539640000000  0.4558590000000  0.5476910000000 1.0
C      1  0.5530070000000  0.4860550000000  0.4388770000000 1.0
C      1  0.5149900000000  0.4829320000000  0.5813760000000 1.0
C      1  0.4524760000000  0.5027750000000  0.4892340000000 1.0
C      1  0.5752770000000  0.4944940000000  0.5717480000000 1.0
C      1  0.5471850000000  0.4685970000000  0.4742950000000 1.0
C      1  0.4290940000000  0.5603590000000  0.5336770000000 1.0
C      1  0.4868690000000  0.5146680000000  0.5575460000000 1.0
C      1  0.4721850000000  0.4489600000000  0.4788460000000 1.0
C      1  0.5133430000000  0.5736020000000  0.5432400000000 1.0
C      1  0.4311180000000  0.4616650000000  0.5091690000000 1.0
C      1  0.4803880000000  0.5240630000000  0.5881340000000 1.0
C      1  0.5753160000000  0.5081080000000  0.4384530000000 1.0
C      1  0.4529810000000  0.5792780000000  0.5219930000000 1.0
C      1  0.5548350000000  0.5399270000000  0.5603720000000 1.0
C      1  0.4841380000000  0.4813180000000  0.4365140000000 1.0
C      1  0.5457760000000  0.5374570000000  0.5064430000000 1.0
C      1  0.5241510000000  0.4568470000000  0.4070060000000 1.0
C      1  0.5085940000000  0.4495510000000  0.5232550000000 1.0
C      1  0.4209330000000  0.5102530000000  0.4979590000000 1.0
C      1  0.5050720000000  0.3981100000000  0.5057610000000 1.0
C      1  0.4490380000000  0.4933000000000  0.5207590000000 1.0
C      1  0.5627440000000  0.5670240000000  0.5413690000000 1.0
C      1  0.5665900000000  0.4929030000000  0.5396550000000 1.0
C      1  0.4771160000000  0.5612120000000  0.4356760000000 1.0
C      1  0.4219990000000  0.5585030000000  0.4688230000000 1.0
C      1  0.5755600000000  0.4362950000000  0.4863010000000 1.0
C      1  0.4607640000000  0.4502370000000  0.5553140000000 1.0
C      1  0.5271530000000  0.4684440000000  0.4348530000000 1.0
C      1  0.5274470000000  0.4139710000000  0.5236560000000 1.0
C      1  0.4747870000000  0.3927170000000  0.4312960000000 1.0
C      1  0.5317180000000  0.4825670000000  0.5078680000000 1.0
C      1  0.5327160000000  0.5879880000000  0.5031390000000 1.0
C      1  0.4609050000000  0.4601280000000  0.4423060000000 1.0
C      1  0.4964080000000  0.5516960000000  0.4624510000000 1.0
C      1  0.4924400000000  0.5180720000000  0.3968000000000 1.0
END
