TITL C-2847947-6848-126 0.00170492063261694 125000 -599.606571034014 0 0 113 (C1) n - 1
REM
REM in /home/bkarasulu/work/CARBON/AIRSS/Generating-Clusters/AIREBO/with-SteepDescent/Only-C1/SD-CG-opt/Try1-1.4A-POS3A/HFTN-CG
REM
REM
REM
REM
REM
REM ./C.cell (11c1c37f851c82e70ff6c80c92926a4b)
REM
REM compiler GCC version 9.2.1 20190827 (Red Hat 9.2.1-1)
REM options -cpp -mtune=generic -march=x86-64 -g -O0 -fpre-include=/usr/include/finclude/math-vector-fortran.h
REM seed -369859603 1060964314 -2134329075 1996940226 -422409538 334219393 10688665 -577325745 526559448 -1323064955 236568732 -1928806209 1127279307 957340366 -1371298583 1568339976 -858189569 -1916238022 -1689132370 -1801397627 1938531424 -341549869 -1386000969 169512024 426137241 512931651 -1182567703 -11011817 -754320957 -1439058061 1837522886 389417873 208626233
REM
CELL 1.54180   50.00000   50.00000   50.00000   90.00000   90.00000   90.00000
LATT -1
SFAC C  
C      1  0.5560570000000  0.5350550000000  0.4134320000000 1.0
C      1  0.5072190000000  0.5758540000000  0.4590770000000 1.0
C      1  0.4036370000000  0.4703030000000  0.4610760000000 1.0
C      1  0.5590270000000  0.5632030000000  0.5259440000000 1.0
C      1  0.5066020000000  0.4548800000000  0.4300780000000 1.0
C      1  0.4122820000000  0.5242630000000  0.5142960000000 1.0
C      1  0.4482760000000  0.4811850000000  0.5809170000000 1.0
C      1  0.4704900000000  0.4547020000000  0.4864210000000 1.0
C      1  0.5413940000000  0.6372960000000  0.5509180000000 1.0
C      1  0.5294150000000  0.6146300000000  0.5454840000000 1.0
C      1  0.5571910000000  0.5062610000000  0.4457850000000 1.0
C      1  0.4980860000000  0.4905180000000  0.5979400000000 1.0
C      1  0.5970620000000  0.5093710000000  0.4878860000000 1.0
C      1  0.4870220000000  0.4884160000000  0.5426310000000 1.0
C      1  0.4509710000000  0.4791210000000  0.4984000000000 1.0
C      1  0.5930300000000  0.5305510000000  0.5055490000000 1.0
C      1  0.4332520000000  0.4238490000000  0.5518220000000 1.0
C      1  0.4061870000000  0.5100460000000  0.4589840000000 1.0
C      1  0.5662570000000  0.5088030000000  0.4069460000000 1.0
C      1  0.4244770000000  0.5054710000000  0.4393220000000 1.0
C      1  0.5029000000000  0.5422180000000  0.4244510000000 1.0
C      1  0.5322290000000  0.5553790000000  0.4133280000000 1.0
C      1  0.4922170000000  0.4794240000000  0.4889670000000 1.0
C      1  0.4616970000000  0.4175360000000  0.5139720000000 1.0
C      1  0.5528350000000  0.4687160000000  0.5413150000000 1.0
C      1  0.4907130000000  0.4262350000000  0.4669630000000 1.0
C      1  0.5279220000000  0.5114180000000  0.4287610000000 1.0
C      1  0.5641020000000  0.4096940000000  0.5068180000000 1.0
C      1  0.4878960000000  0.4292540000000  0.5007620000000 1.0
C      1  0.5797240000000  0.4548270000000  0.4887170000000 1.0
C      1  0.5254480000000  0.4406760000000  0.5366960000000 1.0
C      1  0.5106830000000  0.4109540000000  0.5159210000000 1.0
C      1  0.5666160000000  0.4866610000000  0.5086870000000 1.0
C      1  0.5555720000000  0.4836260000000  0.4221340000000 1.0
C      1  0.5911350000000  0.4780840000000  0.4784680000000 1.0
C      1  0.3997000000000  0.4912670000000  0.4849970000000 1.0
C      1  0.4638130000000  0.4541610000000  0.5703650000000 1.0
C      1  0.5496660000000  0.4432700000000  0.5574980000000 1.0
C      1  0.4821110000000  0.6077080000000  0.4962630000000 1.0
C      1  0.4877790000000  0.5207650000000  0.5530920000000 1.0
C      1  0.4330050000000  0.5304890000000  0.5584250000000 1.0
C      1  0.4999020000000  0.4593330000000  0.5130170000000 1.0
C      1  0.4411430000000  0.4000450000000  0.5136760000000 1.0
C      1  0.5486120000000  0.5251910000000  0.5309680000000 1.0
C      1  0.5317270000000  0.5726920000000  0.4379010000000 1.0
C      1  0.4273300000000  0.4668380000000  0.4489110000000 1.0
C      1  0.4686560000000  0.4662640000000  0.5245100000000 1.0
C      1  0.4869750000000  0.4902780000000  0.4125410000000 1.0
C      1  0.4659680000000  0.5197980000000  0.5075030000000 1.0
C      1  0.5446740000000  0.5357160000000  0.4454660000000 1.0
C      1  0.5226460000000  0.5033810000000  0.4984710000000 1.0
C      1  0.5911760000000  0.5030880000000  0.5463350000000 1.0
C      1  0.5402560000000  0.5491510000000  0.5506560000000 1.0
C      1  0.4020130000000  0.4772780000000  0.5344210000000 1.0
C      1  0.4641980000000  0.5275830000000  0.4573970000000 1.0
C      1  0.4673140000000  0.4445540000000  0.4562960000000 1.0
C      1  0.4802810000000  0.4822710000000  0.5753860000000 1.0
C      1  0.4771400000000  0.5787470000000  0.4467340000000 1.0
C      1  0.4338900000000  0.5008830000000  0.5696080000000 1.0
C      1  0.4942690000000  0.5250970000000  0.4526950000000 1.0
C      1  0.5300710000000  0.5527150000000  0.4662600000000 1.0
C      1  0.5191550000000  0.5906450000000  0.5414380000000 1.0
C      1  0.5361250000000  0.4150520000000  0.5028320000000 1.0
C      1  0.5023370000000  0.4960130000000  0.4423500000000 1.0
C      1  0.4788470000000  0.4714560000000  0.4406710000000 1.0
C      1  0.5264690000000  0.5442270000000  0.5135140000000 1.0
C      1  0.5313650000000  0.4852020000000  0.5712640000000 1.0
C      1  0.5012710000000  0.5579330000000  0.4952180000000 1.0
C      1  0.4531840000000  0.5477870000000  0.5170550000000 1.0
C      1  0.5127920000000  0.4325700000000  0.4508480000000 1.0
C      1  0.5662500000000  0.5476380000000  0.5030510000000 1.0
C      1  0.5344520000000  0.4357540000000  0.4838200000000 1.0
C      1  0.5541870000000  0.5161250000000  0.4986670000000 1.0
C      1  0.5156200000000  0.4837570000000  0.4695580000000 1.0
C      1  0.4760230000000  0.5986070000000  0.5201200000000 1.0
C      1  0.4790530000000  0.5668260000000  0.5198330000000 1.0
C      1  0.4486990000000  0.5686990000000  0.4938800000000 1.0
C      1  0.5427480000000  0.4968360000000  0.5910250000000 1.0
C      1  0.4571090000000  0.5147660000000  0.5403020000000 1.0
C      1  0.4774910000000  0.5590950000000  0.4208620000000 1.0
C      1  0.5143300000000  0.5223000000000  0.4010140000000 1.0
C      1  0.5693960000000  0.5029730000000  0.4712270000000 1.0
C      1  0.4626790000000  0.4374360000000  0.5415300000000 1.0
C      1  0.5295640000000  0.4371450000000  0.5790630000000 1.0
C      1  0.5313160000000  0.4592490000000  0.4609540000000 1.0
C      1  0.5137200000000  0.4701890000000  0.5488730000000 1.0
C      1  0.4238480000000  0.4036900000000  0.5351160000000 1.0
C      1  0.5278310000000  0.5526230000000  0.5811290000000 1.0
C      1  0.5489580000000  0.4612700000000  0.4966590000000 1.0
C      1  0.5123980000000  0.4999100000000  0.6168750000000 1.0
C      1  0.4969600000000  0.5035320000000  0.3918090000000 1.0
C      1  0.4387890000000  0.4421530000000  0.4471410000000 1.0
C      1  0.5036440000000  0.4443790000000  0.5694250000000 1.0
C      1  0.5110960000000  0.5296660000000  0.4799850000000 1.0
C      1  0.5315140000000  0.5584780000000  0.6054900000000 1.0
C      1  0.4279790000000  0.4966190000000  0.5382840000000 1.0
C      1  0.4949170000000  0.4265990000000  0.5417820000000 1.0
C      1  0.4516600000000  0.4906150000000  0.4489680000000 1.0
C      1  0.4278560000000  0.5400420000000  0.5305210000000 1.0
C      1  0.4247280000000  0.4937130000000  0.5060080000000 1.0
C      1  0.4915240000000  0.5021650000000  0.5121260000000 1.0
C      1  0.5836830000000  0.4274350000000  0.4966110000000 1.0
C      1  0.5070280000000  0.5426380000000  0.5573010000000 1.0
C      1  0.4212650000000  0.5109520000000  0.4126510000000 1.0
C      1  0.5811010000000  0.5255630000000  0.5328030000000 1.0
C      1  0.4579140000000  0.5042540000000  0.4791910000000 1.0
C      1  0.5371590000000  0.4644310000000  0.4281690000000 1.0
C      1  0.4566390000000  0.5515000000000  0.4441070000000 1.0
C      1  0.5784920000000  0.4807610000000  0.5353690000000 1.0
C      1  0.3881220000000  0.4794940000000  0.5132570000000 1.0
C      1  0.5284930000000  0.4767950000000  0.5189330000000 1.0
C      1  0.4810190000000  0.5817950000000  0.4792280000000 1.0
C      1  0.5072680000000  0.5636060000000  0.5338290000000 1.0
END
