TITL C-2847950-6905-622 0.00252089701132714 125000 -763.240208846892 0 0 137 (C1) n - 1
REM
REM in /home/bkarasulu/work/CARBON/AIRSS/Generating-Clusters/AIREBO/with-SteepDescent/Only-C1/SD-CG-opt/Try1-1.4A-POS3A/HFTN-CG
REM
REM
REM
REM
REM
REM ./C.cell (11c1c37f851c82e70ff6c80c92926a4b)
REM
REM compiler GCC version 9.2.1 20190827 (Red Hat 9.2.1-1)
REM options -cpp -mtune=generic -march=x86-64 -g -O0 -fpre-include=/usr/include/finclude/math-vector-fortran.h
REM seed -857230224 79430407 -1792109403 226500283 -431057489 -951518475 1241818283 863533367 1267410112 -375143907 -438960811 1162432160 -2067556861 1631187610 -544301692 -234721352 975349635 -1600422162 -2018314312 -976138290 212262870 864095619 1007870620 -736757717 -216371287 -1021351916 935701818 1240418379 -345889585 -1821918753 -727252269 -1402734345 1005263657
REM
CELL 1.54180   50.00000   50.00000   50.00000   90.00000   90.00000   90.00000
LATT -1
SFAC C  
C      1  0.4793320000000  0.5158650000000  0.5783660000000 1.0
C      1  0.5759660000000  0.5309180000000  0.5521780000000 1.0
C      1  0.5398620000000  0.5734150000000  0.5366790000000 1.0
C      1  0.4508910000000  0.4523420000000  0.5777200000000 1.0
C      1  0.5126400000000  0.4002210000000  0.5067100000000 1.0
C      1  0.5479910000000  0.4226800000000  0.4764240000000 1.0
C      1  0.4989990000000  0.4933420000000  0.5911250000000 1.0
C      1  0.4381140000000  0.4838890000000  0.4210710000000 1.0
C      1  0.5297270000000  0.4928140000000  0.4472120000000 1.0
C      1  0.5493750000000  0.5819280000000  0.5074970000000 1.0
C      1  0.5777190000000  0.4843350000000  0.5448560000000 1.0
C      1  0.5802920000000  0.5684440000000  0.4746380000000 1.0
C      1  0.5075440000000  0.4673010000000  0.4434690000000 1.0
C      1  0.4513750000000  0.4555300000000  0.4915300000000 1.0
C      1  0.5297510000000  0.5666350000000  0.4512110000000 1.0
C      1  0.4066190000000  0.4787220000000  0.5546440000000 1.0
C      1  0.4974390000000  0.5219680000000  0.4992380000000 1.0
C      1  0.5761070000000  0.5262760000000  0.4591880000000 1.0
C      1  0.4582420000000  0.4886070000000  0.4911190000000 1.0
C      1  0.5225330000000  0.5169070000000  0.5887520000000 1.0
C      1  0.4838180000000  0.5342150000000  0.4048900000000 1.0
C      1  0.4331440000000  0.4651850000000  0.5420250000000 1.0
C      1  0.4511870000000  0.4241320000000  0.5585510000000 1.0
C      1  0.4498960000000  0.4147800000000  0.5256580000000 1.0
C      1  0.4694650000000  0.5393740000000  0.5059630000000 1.0
C      1  0.4868590000000  0.4404440000000  0.5659140000000 1.0
C      1  0.4508720000000  0.5098120000000  0.4283870000000 1.0
C      1  0.4605550000000  0.5354400000000  0.4211690000000 1.0
C      1  0.5362500000000  0.4743350000000  0.4123650000000 1.0
C      1  0.4646150000000  0.4175890000000  0.4273040000000 1.0
C      1  0.4876310000000  0.4403280000000  0.4377680000000 1.0
C      1  0.4556030000000  0.4871220000000  0.5339470000000 1.0
C      1  0.5064050000000  0.5445840000000  0.5475760000000 1.0
C      1  0.5995030000000  0.4752850000000  0.4806520000000 1.0
C      1  0.4037750000000  0.5174310000000  0.4612180000000 1.0
C      1  0.5075510000000  0.4253020000000  0.5829280000000 1.0
C      1  0.4646880000000  0.4581830000000  0.5471920000000 1.0
C      1  0.4589820000000  0.4612000000000  0.4193300000000 1.0
C      1  0.4741640000000  0.4117350000000  0.5020370000000 1.0
C      1  0.4991290000000  0.5024820000000  0.4234500000000 1.0
C      1  0.4362720000000  0.4745950000000  0.5954710000000 1.0
C      1  0.5073160000000  0.4145640000000  0.4479790000000 1.0
C      1  0.5367230000000  0.4556900000000  0.4347380000000 1.0
C      1  0.5125870000000  0.5196570000000  0.5281050000000 1.0
C      1  0.4449080000000  0.4239610000000  0.4931490000000 1.0
C      1  0.5420230000000  0.4607280000000  0.5766870000000 1.0
C      1  0.4105790000000  0.4900190000000  0.4654250000000 1.0
C      1  0.5228220000000  0.5340900000000  0.4582460000000 1.0
C      1  0.4797620000000  0.4219290000000  0.5402470000000 1.0
C      1  0.5500430000000  0.4622210000000  0.4808350000000 1.0
C      1  0.5244850000000  0.4440740000000  0.5297430000000 1.0
C      1  0.5055110000000  0.4524900000000  0.5061070000000 1.0
C      1  0.5077630000000  0.5778660000000  0.5407290000000 1.0
C      1  0.4512400000000  0.5122050000000  0.5145800000000 1.0
C      1  0.5392620000000  0.5526870000000  0.5008030000000 1.0
C      1  0.5274030000000  0.5208030000000  0.4280450000000 1.0
C      1  0.4413350000000  0.4145310000000  0.4419480000000 1.0
C      1  0.4901210000000  0.4828040000000  0.5022100000000 1.0
C      1  0.4191680000000  0.4742690000000  0.4436770000000 1.0
C      1  0.4122690000000  0.5248530000000  0.5490130000000 1.0
C      1  0.5846700000000  0.5401960000000  0.4890050000000 1.0
C      1  0.5634940000000  0.5709410000000  0.4519190000000 1.0
C      1  0.4699280000000  0.5925950000000  0.4794610000000 1.0
C      1  0.5210920000000  0.4750280000000  0.4903840000000 1.0
C      1  0.5489130000000  0.5541400000000  0.4260220000000 1.0
C      1  0.4803590000000  0.4695660000000  0.5815120000000 1.0
C      1  0.5060440000000  0.4784600000000  0.4026310000000 1.0
C      1  0.4859480000000  0.4564830000000  0.4078890000000 1.0
C      1  0.5460630000000  0.5471040000000  0.5525390000000 1.0
C      1  0.5906900000000  0.5113000000000  0.5303110000000 1.0
C      1  0.4411480000000  0.5566350000000  0.5135440000000 1.0
C      1  0.4600330000000  0.5446150000000  0.4742520000000 1.0
C      1  0.5026260000000  0.6030760000000  0.5176680000000 1.0
C      1  0.4506830000000  0.5203960000000  0.5925580000000 1.0
C      1  0.5300530000000  0.5853450000000  0.4797020000000 1.0
C      1  0.5766030000000  0.5876670000000  0.4941850000000 1.0
C      1  0.5093050000000  0.5509640000000  0.5036050000000 1.0
C      1  0.4272360000000  0.5632310000000  0.4874060000000 1.0
C      1  0.5613820000000  0.5051870000000  0.4896470000000 1.0
C      1  0.5374000000000  0.5362890000000  0.3994680000000 1.0
C      1  0.5291910000000  0.4797570000000  0.5991750000000 1.0
C      1  0.5219590000000  0.5436710000000  0.5763930000000 1.0
C      1  0.5708090000000  0.4602070000000  0.5627890000000 1.0
C      1  0.5877850000000  0.4984230000000  0.4719140000000 1.0
C      1  0.5497520000000  0.4159940000000  0.5596790000000 1.0
C      1  0.5057250000000  0.5119740000000  0.4728010000000 1.0
C      1  0.4760060000000  0.5427510000000  0.5965610000000 1.0
C      1  0.4400610000000  0.5218110000000  0.4648270000000 1.0
C      1  0.4159650000000  0.5412240000000  0.4753130000000 1.0
C      1  0.4242940000000  0.4846160000000  0.4893630000000 1.0
C      1  0.4984750000000  0.4783850000000  0.5541420000000 1.0
C      1  0.4116670000000  0.5032890000000  0.5669300000000 1.0
C      1  0.4202360000000  0.4592220000000  0.5046910000000 1.0
C      1  0.4753480000000  0.5958950000000  0.5063440000000 1.0
C      1  0.4970510000000  0.5084860000000  0.3894470000000 1.0
C      1  0.4303220000000  0.5017840000000  0.5886880000000 1.0
C      1  0.5518950000000  0.4275060000000  0.5275680000000 1.0
C      1  0.5224760000000  0.5261360000000  0.3783760000000 1.0
C      1  0.5541660000000  0.4952560000000  0.4132780000000 1.0
C      1  0.5496340000000  0.4449330000000  0.4562650000000 1.0
C      1  0.5422850000000  0.5187860000000  0.5347620000000 1.0
C      1  0.4974390000000  0.5679190000000  0.4406630000000 1.0
C      1  0.5601670000000  0.5289240000000  0.5099540000000 1.0
C      1  0.5263270000000  0.4678090000000  0.5489660000000 1.0
C      1  0.4614160000000  0.5730420000000  0.5585730000000 1.0
C      1  0.4965500000000  0.5605460000000  0.5868520000000 1.0
C      1  0.5467170000000  0.5003630000000  0.5814060000000 1.0
C      1  0.5483390000000  0.4931610000000  0.5519770000000 1.0
C      1  0.4035480000000  0.4592430000000  0.5287570000000 1.0
C      1  0.5484980000000  0.5393910000000  0.4734310000000 1.0
C      1  0.5052670000000  0.4180770000000  0.5264240000000 1.0
C      1  0.4852950000000  0.5669200000000  0.4697960000000 1.0
C      1  0.5740390000000  0.4342000000000  0.5514980000000 1.0
C      1  0.6058550000000  0.5282390000000  0.5092780000000 1.0
C      1  0.5625460000000  0.4296700000000  0.5000760000000 1.0
C      1  0.4471180000000  0.5742630000000  0.4634580000000 1.0
C      1  0.4274700000000  0.5304080000000  0.5281330000000 1.0
C      1  0.4504850000000  0.4623290000000  0.4522370000000 1.0
C      1  0.4579970000000  0.5508200000000  0.5425050000000 1.0
C      1  0.4637690000000  0.5596450000000  0.4376460000000 1.0
C      1  0.4854460000000  0.5671110000000  0.5174420000000 1.0
C      1  0.5612050000000  0.5229540000000  0.4317250000000 1.0
C      1  0.4789820000000  0.5266540000000  0.5485840000000 1.0
C      1  0.4369370000000  0.4327250000000  0.4620780000000 1.0
C      1  0.5361720000000  0.4992810000000  0.4771850000000 1.0
C      1  0.4593290000000  0.4947220000000  0.4576820000000 1.0
C      1  0.4879770000000  0.5790580000000  0.5672930000000 1.0
C      1  0.5047920000000  0.5451070000000  0.4206620000000 1.0
C      1  0.4903070000000  0.4951470000000  0.4527420000000 1.0
C      1  0.4865830000000  0.4980150000000  0.5315110000000 1.0
C      1  0.4943480000000  0.4308240000000  0.4888490000000 1.0
C      1  0.5337990000000  0.4301060000000  0.5782350000000 1.0
C      1  0.5769830000000  0.4862300000000  0.5118110000000 1.0
C      1  0.5196830000000  0.4125690000000  0.4772960000000 1.0
C      1  0.5211010000000  0.6078090000000  0.4966100000000 1.0
C      1  0.5780690000000  0.4574620000000  0.4971670000000 1.0
C      1  0.4744730000000  0.4448000000000  0.4688020000000 1.0
END
