TITL C-2847954-6904-477 -0.00133939592653329 125000 -468.648287884426 0 0 85 (C1) n - 1
REM
REM in /home/bkarasulu/work/CARBON/AIRSS/Generating-Clusters/AIREBO/with-SteepDescent/Only-C1/SD-CG-opt/Try1-1.4A-POS3A/HFTN-CG
REM
REM
REM
REM
REM
REM ./C.cell (11c1c37f851c82e70ff6c80c92926a4b)
REM
REM compiler GCC version 9.2.1 20190827 (Red Hat 9.2.1-1)
REM options -cpp -mtune=generic -march=x86-64 -g -O0 -fpre-include=/usr/include/finclude/math-vector-fortran.h
REM seed 1604298655 -1979027815 1836181054 2069118714 -211692335 -1728881546 -146229012 1945659928 1899854789 1247671159 217080306 -113697769 1824789479 417662465 1597620591 407756801 1459709403 -1259374340 1646704024 1464475300 -1361798907 1745292323 -1204155323 -1637661390 516659851 864892972 -326641989 1211747152 -2117202976 1587094216 359782806 -1151016830 -875028157
REM
CELL 1.54180   50.00000   50.00000   50.00000   90.00000   90.00000   90.00000
LATT -1
SFAC C  
C      1  0.4970530000000  0.4152980000000  0.4776860000000 1.0
C      1  0.5009110000000  0.5490950000000  0.4976610000000 1.0
C      1  0.4993580000000  0.5843450000000  0.4782680000000 1.0
C      1  0.5525360000000  0.5000550000000  0.5098770000000 1.0
C      1  0.5376890000000  0.5148600000000  0.5344720000000 1.0
C      1  0.5304900000000  0.4795900000000  0.4990610000000 1.0
C      1  0.4950420000000  0.5123400000000  0.5316180000000 1.0
C      1  0.4789240000000  0.5418060000000  0.4443010000000 1.0
C      1  0.5542520000000  0.4597670000000  0.5478970000000 1.0
C      1  0.4885240000000  0.4965030000000  0.4662050000000 1.0
C      1  0.5372530000000  0.5568590000000  0.4838220000000 1.0
C      1  0.5288570000000  0.4991580000000  0.4415700000000 1.0
C      1  0.5734280000000  0.4599920000000  0.5277290000000 1.0
C      1  0.4279710000000  0.4952890000000  0.5449080000000 1.0
C      1  0.4459220000000  0.5344260000000  0.4480410000000 1.0
C      1  0.4281260000000  0.5104910000000  0.4649600000000 1.0
C      1  0.4687080000000  0.4698970000000  0.4587330000000 1.0
C      1  0.4430720000000  0.4623640000000  0.5095770000000 1.0
C      1  0.5482800000000  0.5225400000000  0.4356640000000 1.0
C      1  0.4925580000000  0.4555730000000  0.4404500000000 1.0
C      1  0.4593280000000  0.4642300000000  0.5595990000000 1.0
C      1  0.4645830000000  0.5628120000000  0.5620410000000 1.0
C      1  0.5002530000000  0.5171160000000  0.4983550000000 1.0
C      1  0.5213610000000  0.4296600000000  0.4748910000000 1.0
C      1  0.4831970000000  0.4020760000000  0.5199860000000 1.0
C      1  0.5442750000000  0.4905600000000  0.5574690000000 1.0
C      1  0.5302030000000  0.5396580000000  0.5122980000000 1.0
C      1  0.4507690000000  0.6007830000000  0.4814370000000 1.0
C      1  0.5456410000000  0.5813870000000  0.5373450000000 1.0
C      1  0.5163540000000  0.5112780000000  0.4700410000000 1.0
C      1  0.5393770000000  0.4708500000000  0.4443480000000 1.0
C      1  0.5090930000000  0.5497700000000  0.4378940000000 1.0
C      1  0.4897810000000  0.5470400000000  0.5706380000000 1.0
C      1  0.5073370000000  0.4736160000000  0.4801350000000 1.0
C      1  0.4790510000000  0.5592340000000  0.4736380000000 1.0
C      1  0.5080790000000  0.4583950000000  0.5384800000000 1.0
C      1  0.5572200000000  0.4593330000000  0.4976730000000 1.0
C      1  0.4682230000000  0.4743040000000  0.4924570000000 1.0
C      1  0.5858960000000  0.4715200000000  0.4539740000000 1.0
C      1  0.4700960000000  0.4811210000000  0.5857680000000 1.0
C      1  0.4783190000000  0.4829630000000  0.5298030000000 1.0
C      1  0.5789790000000  0.4805550000000  0.4818220000000 1.0
C      1  0.5404110000000  0.4317250000000  0.4955230000000 1.0
C      1  0.4354160000000  0.5265550000000  0.5430660000000 1.0
C      1  0.4625270000000  0.5141110000000  0.4675830000000 1.0
C      1  0.4678990000000  0.5067200000000  0.4994330000000 1.0
C      1  0.5044970000000  0.4978390000000  0.4224540000000 1.0
C      1  0.4747790000000  0.4149380000000  0.4958200000000 1.0
C      1  0.5609880000000  0.5334410000000  0.4618630000000 1.0
C      1  0.4349660000000  0.5590890000000  0.5034950000000 1.0
C      1  0.4301240000000  0.4809410000000  0.4825820000000 1.0
C      1  0.4981480000000  0.4700300000000  0.4172670000000 1.0
C      1  0.5115450000000  0.4029390000000  0.5231430000000 1.0
C      1  0.5710470000000  0.5131260000000  0.4873180000000 1.0
C      1  0.5332340000000  0.4419180000000  0.5411950000000 1.0
C      1  0.4613000000000  0.4918890000000  0.4338760000000 1.0
C      1  0.5185900000000  0.4881980000000  0.5272380000000 1.0
C      1  0.5301600000000  0.5152650000000  0.5735690000000 1.0
C      1  0.4890790000000  0.4565580000000  0.5742910000000 1.0
C      1  0.5327610000000  0.4217550000000  0.5212820000000 1.0
C      1  0.5002850000000  0.5215410000000  0.5626350000000 1.0
C      1  0.5813520000000  0.4859840000000  0.5147210000000 1.0
C      1  0.4964470000000  0.5764430000000  0.5613840000000 1.0
C      1  0.4361410000000  0.5611810000000  0.4538080000000 1.0
C      1  0.4663900000000  0.3904260000000  0.5374110000000 1.0
C      1  0.4960080000000  0.4952900000000  0.5790890000000 1.0
C      1  0.5664990000000  0.5451030000000  0.4933290000000 1.0
C      1  0.4536110000000  0.4336570000000  0.4946400000000 1.0
C      1  0.4342820000000  0.5113360000000  0.4972410000000 1.0
C      1  0.4935090000000  0.4634240000000  0.5087810000000 1.0
C      1  0.5537010000000  0.5632310000000  0.5192430000000 1.0
C      1  0.4808080000000  0.5113460000000  0.4296750000000 1.0
C      1  0.5246320000000  0.5400680000000  0.4623820000000 1.0
C      1  0.5240580000000  0.5840450000000  0.4825970000000 1.0
C      1  0.4634160000000  0.5239380000000  0.5286300000000 1.0
C      1  0.4500750000000  0.5727040000000  0.4799030000000 1.0
C      1  0.4430140000000  0.4515480000000  0.4713510000000 1.0
C      1  0.5217750000000  0.5785320000000  0.5504220000000 1.0
C      1  0.4412700000000  0.4717140000000  0.5395930000000 1.0
C      1  0.5647230000000  0.4652090000000  0.4379270000000 1.0
C      1  0.5162270000000  0.4747600000000  0.5647940000000 1.0
C      1  0.4279760000000  0.5348840000000  0.5137910000000 1.0
C      1  0.5329830000000  0.5425240000000  0.4228790000000 1.0
C      1  0.4392760000000  0.5512680000000  0.5619780000000 1.0
C      1  0.5177000000000  0.4542990000000  0.4582070000000 1.0
END
