TITL C-2848497-6229-410 0.00117056738960659 125000 -334.327850702579 0 0 62 (C1) n - 1
REM
REM in /home/bkarasulu/work/CARBON/AIRSS/Generating-Clusters/AIREBO/with-SteepDescent/Only-C1/SD-CG-opt/Try1-1.4A-POS3A/HFTN-CG
REM
REM
REM
REM
REM
REM ./C.cell (11c1c37f851c82e70ff6c80c92926a4b)
REM
REM compiler GCC version 9.2.1 20190827 (Red Hat 9.2.1-1)
REM options -cpp -mtune=generic -march=x86-64 -g -O0 -fpre-include=/usr/include/finclude/math-vector-fortran.h
REM seed -739665438 2056265493 -319033027 968419988 -1919823670 516023702 861047570 -596935788 805584196 1458812095 -1170045319 -1590096718 624791268 -1553388875 -2118257871 -1261722447 383812736 -737262962 1948522420 -220247863 544730334 -1537250144 108287750 880950544 -1946020668 1119905394 1128499417 1604784493 693228520 -2071047897 1456051000 -359758566 278363850
REM
CELL 1.54180   50.00000   50.00000   50.00000   90.00000   90.00000   90.00000
LATT -1
SFAC C  
C      1  0.5591730000000  0.4349470000000  0.4776470000000 1.0
C      1  0.5324090000000  0.5092360000000  0.5217570000000 1.0
C      1  0.5167460000000  0.5606160000000  0.4773780000000 1.0
C      1  0.4525800000000  0.4973450000000  0.4526240000000 1.0
C      1  0.4250190000000  0.5088480000000  0.5178470000000 1.0
C      1  0.5640170000000  0.5048460000000  0.4756100000000 1.0
C      1  0.5472860000000  0.5577330000000  0.4801380000000 1.0
C      1  0.4792070000000  0.5297470000000  0.5472340000000 1.0
C      1  0.5350610000000  0.4624950000000  0.5012620000000 1.0
C      1  0.5512880000000  0.5262370000000  0.4369340000000 1.0
C      1  0.4963320000000  0.5380490000000  0.4345660000000 1.0
C      1  0.4815580000000  0.4536240000000  0.5315320000000 1.0
C      1  0.4721810000000  0.4976080000000  0.5013540000000 1.0
C      1  0.4456630000000  0.5548070000000  0.5204590000000 1.0
C      1  0.5218500000000  0.4526040000000  0.4463740000000 1.0
C      1  0.4492380000000  0.5311280000000  0.4502930000000 1.0
C      1  0.5552380000000  0.4416200000000  0.5056690000000 1.0
C      1  0.5021450000000  0.4713420000000  0.4540990000000 1.0
C      1  0.4991020000000  0.5736840000000  0.5365470000000 1.0
C      1  0.4151050000000  0.4546320000000  0.4440260000000 1.0
C      1  0.5323960000000  0.5097920000000  0.4355180000000 1.0
C      1  0.5046500000000  0.4931680000000  0.5104320000000 1.0
C      1  0.4904640000000  0.4982390000000  0.5409280000000 1.0
C      1  0.5529460000000  0.5574630000000  0.5076490000000 1.0
C      1  0.5455330000000  0.4829750000000  0.4770040000000 1.0
C      1  0.4443070000000  0.4852270000000  0.5107360000000 1.0
C      1  0.5307470000000  0.5416830000000  0.5238560000000 1.0
C      1  0.5617190000000  0.5368840000000  0.4644590000000 1.0
C      1  0.5904460000000  0.5226930000000  0.4759520000000 1.0
C      1  0.4682030000000  0.5124080000000  0.5709130000000 1.0
C      1  0.5328920000000  0.5360380000000  0.5553520000000 1.0
C      1  0.5459070000000  0.4543030000000  0.4614950000000 1.0
C      1  0.4755420000000  0.5462140000000  0.5196420000000 1.0
C      1  0.4802350000000  0.5286880000000  0.4952830000000 1.0
C      1  0.5029890000000  0.5325240000000  0.4779350000000 1.0
C      1  0.5546220000000  0.4958290000000  0.5417120000000 1.0
C      1  0.5703900000000  0.4452710000000  0.5287890000000 1.0
C      1  0.5043750000000  0.5111290000000  0.4526390000000 1.0
C      1  0.5182130000000  0.4652080000000  0.5738310000000 1.0
C      1  0.5759470000000  0.4703430000000  0.5380540000000 1.0
C      1  0.5144420000000  0.4906680000000  0.4778730000000 1.0
C      1  0.4523900000000  0.4921190000000  0.5617360000000 1.0
C      1  0.4905900000000  0.4352890000000  0.4972110000000 1.0
C      1  0.4333040000000  0.4764420000000  0.4589780000000 1.0
C      1  0.4186570000000  0.4453020000000  0.4740220000000 1.0
C      1  0.5884000000000  0.4979110000000  0.5456040000000 1.0
C      1  0.4269730000000  0.5351000000000  0.5244590000000 1.0
C      1  0.5353210000000  0.5090940000000  0.5615860000000 1.0
C      1  0.4335800000000  0.4669650000000  0.4903160000000 1.0
C      1  0.5060750000000  0.5575240000000  0.5089920000000 1.0
C      1  0.4768370000000  0.4300920000000  0.5417670000000 1.0
C      1  0.5113820000000  0.4914980000000  0.5668790000000 1.0
C      1  0.4560090000000  0.5165370000000  0.4785500000000 1.0
C      1  0.4635310000000  0.4781290000000  0.5351620000000 1.0
C      1  0.4016620000000  0.4497190000000  0.4220110000000 1.0
C      1  0.4896290000000  0.5044390000000  0.5860080000000 1.0
C      1  0.4799000000000  0.4891780000000  0.4433330000000 1.0
C      1  0.4957030000000  0.5636220000000  0.4538940000000 1.0
C      1  0.4885340000000  0.5597250000000  0.5549270000000 1.0
C      1  0.4679320000000  0.5496090000000  0.4421960000000 1.0
C      1  0.5060200000000  0.4592130000000  0.5116610000000 1.0
C      1  0.4794070000000  0.4145940000000  0.4873060000000 1.0
END
