TITL C-2848501-3133-210 -0.00286835637467608 125000 -1015.4779771749 0 0 189 (C1) n - 1
REM
REM in /home/bkarasulu/work/CARBON/AIRSS/Generating-Clusters/AIREBO/with-SteepDescent/Only-C1/SD-CG-opt/Try1-1.4A-POS3A/HFTN-CG
REM
REM
REM
REM
REM
REM ./C.cell (11c1c37f851c82e70ff6c80c92926a4b)
REM
REM compiler GCC version 9.2.1 20190827 (Red Hat 9.2.1-1)
REM options -cpp -mtune=generic -march=x86-64 -g -O0 -fpre-include=/usr/include/finclude/math-vector-fortran.h
REM seed 65431204 886046641 -1359791398 1221938497 833178354 359850922 303998600 -1114582990 -98174694 1936836005 1612894966 -637257289 345341904 -603681466 -166876205 382491683 -1075204620 -492320882 924303136 1591150450 99744049 504994024 1892287317 775902557 1364301173 -1716977189 554006276 1800158332 153174289 555352894 -558782323 -1710589918 1231870236
REM
CELL 1.54180   50.00000   50.00000   50.00000   90.00000   90.00000   90.00000
LATT -1
SFAC C  
C      1  0.5737080000000  0.5417650000000  0.5403210000000 1.0
C      1  0.5042440000000  0.5217930000000  0.6085440000000 1.0
C      1  0.6082430000000  0.4650280000000  0.5898020000000 1.0
C      1  0.4767290000000  0.5582030000000  0.5867510000000 1.0
C      1  0.4467330000000  0.5772300000000  0.4221900000000 1.0
C      1  0.4649300000000  0.4955430000000  0.5346450000000 1.0
C      1  0.4136910000000  0.5290660000000  0.5212860000000 1.0
C      1  0.5933300000000  0.4740930000000  0.5282690000000 1.0
C      1  0.5906400000000  0.5485550000000  0.4517150000000 1.0
C      1  0.5934710000000  0.5698140000000  0.4965130000000 1.0
C      1  0.4281170000000  0.4825050000000  0.5012050000000 1.0
C      1  0.4374010000000  0.4929670000000  0.5727350000000 1.0
C      1  0.4276660000000  0.5589830000000  0.4442360000000 1.0
C      1  0.4405110000000  0.5187550000000  0.5368930000000 1.0
C      1  0.4897090000000  0.4535850000000  0.4051590000000 1.0
C      1  0.5316380000000  0.5060440000000  0.5694660000000 1.0
C      1  0.5657310000000  0.4507300000000  0.5603880000000 1.0
C      1  0.4444720000000  0.4159110000000  0.4730900000000 1.0
C      1  0.4420060000000  0.4124200000000  0.5204350000000 1.0
C      1  0.4718870000000  0.5907920000000  0.4370870000000 1.0
C      1  0.4397000000000  0.4310780000000  0.4482040000000 1.0
C      1  0.4533370000000  0.4475120000000  0.4820040000000 1.0
C      1  0.5196820000000  0.5928650000000  0.4622350000000 1.0
C      1  0.6088480000000  0.5117250000000  0.5503160000000 1.0
C      1  0.4834790000000  0.4181130000000  0.4469610000000 1.0
C      1  0.6218030000000  0.4947470000000  0.4651370000000 1.0
C      1  0.4604050000000  0.5526520000000  0.4406000000000 1.0
C      1  0.5645160000000  0.5282500000000  0.4234850000000 1.0
C      1  0.4530610000000  0.5138430000000  0.6029930000000 1.0
C      1  0.4748410000000  0.4735480000000  0.4859990000000 1.0
C      1  0.4750140000000  0.5381760000000  0.3774450000000 1.0
C      1  0.4135040000000  0.4264080000000  0.5278670000000 1.0
C      1  0.5492970000000  0.4783360000000  0.4652880000000 1.0
C      1  0.4810280000000  0.3891050000000  0.4885440000000 1.0
C      1  0.4840710000000  0.4768560000000  0.5152860000000 1.0
C      1  0.4814730000000  0.4709160000000  0.4399850000000 1.0
C      1  0.3867400000000  0.5620190000000  0.4999370000000 1.0
C      1  0.5306020000000  0.5244380000000  0.4473860000000 1.0
C      1  0.5811110000000  0.4742040000000  0.5796330000000 1.0
C      1  0.4603150000000  0.5670120000000  0.5515790000000 1.0
C      1  0.5945380000000  0.4931490000000  0.4449510000000 1.0
C      1  0.5391750000000  0.5196510000000  0.4918150000000 1.0
C      1  0.5393810000000  0.4826800000000  0.4213730000000 1.0
C      1  0.5238050000000  0.3997620000000  0.4687120000000 1.0
C      1  0.5649460000000  0.3964000000000  0.5033390000000 1.0
C      1  0.5025390000000  0.5499590000000  0.4330530000000 1.0
C      1  0.5248300000000  0.4237780000000  0.4184390000000 1.0
C      1  0.5622910000000  0.5193920000000  0.5632400000000 1.0
C      1  0.5632330000000  0.5619140000000  0.4667830000000 1.0
C      1  0.5306820000000  0.5574560000000  0.5829470000000 1.0
C      1  0.4691250000000  0.5612400000000  0.3977070000000 1.0
C      1  0.5795520000000  0.4821670000000  0.4732640000000 1.0
C      1  0.5512760000000  0.5891840000000  0.4503670000000 1.0
C      1  0.4622950000000  0.4986090000000  0.4395080000000 1.0
C      1  0.5300180000000  0.4896090000000  0.5991870000000 1.0
C      1  0.5074710000000  0.4587680000000  0.5982820000000 1.0
C      1  0.4527790000000  0.4559400000000  0.6019830000000 1.0
C      1  0.5006380000000  0.5066530000000  0.4080970000000 1.0
C      1  0.4162350000000  0.4963020000000  0.4520280000000 1.0
C      1  0.4701650000000  0.4864140000000  0.5661260000000 1.0
C      1  0.4963970000000  0.4567800000000  0.5347940000000 1.0
C      1  0.5741940000000  0.5502680000000  0.5713530000000 1.0
C      1  0.5877720000000  0.4283740000000  0.5065750000000 1.0
C      1  0.5171380000000  0.5614250000000  0.5543420000000 1.0
C      1  0.5745350000000  0.5417400000000  0.4917280000000 1.0
C      1  0.5814310000000  0.4928240000000  0.5540330000000 1.0
C      1  0.5266410000000  0.5672330000000  0.5221820000000 1.0
C      1  0.5207950000000  0.4968740000000  0.4647580000000 1.0
C      1  0.4193410000000  0.5567090000000  0.5027310000000 1.0
C      1  0.5230700000000  0.5527630000000  0.4056270000000 1.0
C      1  0.4905020000000  0.5719280000000  0.4798020000000 1.0
C      1  0.4901580000000  0.5223820000000  0.4934900000000 1.0
C      1  0.4750060000000  0.5456390000000  0.4647830000000 1.0
C      1  0.5442210000000  0.4758300000000  0.5644550000000 1.0
C      1  0.4575730000000  0.5528590000000  0.4918850000000 1.0
C      1  0.5316100000000  0.4520530000000  0.5817390000000 1.0
C      1  0.5419070000000  0.4373060000000  0.4405940000000 1.0
C      1  0.5479040000000  0.4255100000000  0.5077230000000 1.0
C      1  0.4896530000000  0.5177510000000  0.5418720000000 1.0
C      1  0.5027260000000  0.5954200000000  0.4322000000000 1.0
C      1  0.4880810000000  0.5168120000000  0.3814200000000 1.0
C      1  0.4421780000000  0.5087160000000  0.4619970000000 1.0
C      1  0.5722540000000  0.4144230000000  0.4784010000000 1.0
C      1  0.5305340000000  0.5777680000000  0.4269460000000 1.0
C      1  0.5261310000000  0.4028670000000  0.5207660000000 1.0
C      1  0.4053500000000  0.4471160000000  0.5536810000000 1.0
C      1  0.5062910000000  0.4778460000000  0.4177170000000 1.0
C      1  0.4848270000000  0.5824760000000  0.5242220000000 1.0
C      1  0.5567330000000  0.4695440000000  0.5129070000000 1.0
C      1  0.3991590000000  0.4959120000000  0.5373870000000 1.0
C      1  0.4937490000000  0.6109060000000  0.5078420000000 1.0
C      1  0.4485980000000  0.6013270000000  0.4809510000000 1.0
C      1  0.5673790000000  0.4421900000000  0.5300670000000 1.0
C      1  0.4621410000000  0.6093470000000  0.5061630000000 1.0
C      1  0.4460560000000  0.4835110000000  0.4140900000000 1.0
C      1  0.5174300000000  0.3985780000000  0.5523810000000 1.0
C      1  0.5276650000000  0.4260560000000  0.5635120000000 1.0
C      1  0.5991320000000  0.5268000000000  0.4432530000000 1.0
C      1  0.5493850000000  0.5165140000000  0.6067490000000 1.0
C      1  0.4851740000000  0.5225810000000  0.4318830000000 1.0
C      1  0.4217560000000  0.4745890000000  0.4350950000000 1.0
C      1  0.4248180000000  0.5237540000000  0.5655890000000 1.0
C      1  0.5857050000000  0.4649940000000  0.4282090000000 1.0
C      1  0.5640590000000  0.4885700000000  0.5999380000000 1.0
C      1  0.4476520000000  0.4354510000000  0.4095960000000 1.0
C      1  0.4733790000000  0.4195130000000  0.5556040000000 1.0
C      1  0.5493640000000  0.4515200000000  0.4850320000000 1.0
C      1  0.4929260000000  0.5163410000000  0.4640960000000 1.0
C      1  0.3987960000000  0.4539870000000  0.5210330000000 1.0
C      1  0.5664980000000  0.5846680000000  0.4918490000000 1.0
C      1  0.4133020000000  0.4789070000000  0.5555980000000 1.0
C      1  0.5156130000000  0.5872900000000  0.4968460000000 1.0
C      1  0.5272650000000  0.5350920000000  0.6007870000000 1.0
C      1  0.3949700000000  0.5241160000000  0.5493120000000 1.0
C      1  0.4689240000000  0.5911410000000  0.4648050000000 1.0
C      1  0.5527430000000  0.5466980000000  0.5174940000000 1.0
C      1  0.5996090000000  0.5298410000000  0.5305940000000 1.0
C      1  0.4960950000000  0.4893380000000  0.6015630000000 1.0
C      1  0.4662540000000  0.4433190000000  0.4369610000000 1.0
C      1  0.4390090000000  0.4486240000000  0.5519550000000 1.0
C      1  0.4365610000000  0.5149790000000  0.4136430000000 1.0
C      1  0.4324680000000  0.5705050000000  0.5309160000000 1.0
C      1  0.5556740000000  0.4274670000000  0.5813480000000 1.0
C      1  0.5223490000000  0.4488460000000  0.4659170000000 1.0
C      1  0.3943050000000  0.4604170000000  0.4952210000000 1.0
C      1  0.5343600000000  0.5453400000000  0.4737280000000 1.0
C      1  0.4405780000000  0.4147390000000  0.5543360000000 1.0
C      1  0.3785290000000  0.4806440000000  0.4847820000000 1.0
C      1  0.5584900000000  0.4589750000000  0.4288870000000 1.0
C      1  0.6209470000000  0.5103980000000  0.4850430000000 1.0
C      1  0.4212410000000  0.4586090000000  0.4801260000000 1.0
C      1  0.5070220000000  0.5981830000000  0.5431950000000 1.0
C      1  0.5466040000000  0.5996940000000  0.5033120000000 1.0
C      1  0.5229810000000  0.4676320000000  0.5165850000000 1.0
C      1  0.4531080000000  0.3976060000000  0.4929990000000 1.0
C      1  0.5408100000000  0.5164970000000  0.5251690000000 1.0
C      1  0.5613220000000  0.4995870000000  0.4415000000000 1.0
C      1  0.4966710000000  0.5499530000000  0.5023670000000 1.0
C      1  0.4979470000000  0.3865490000000  0.5108660000000 1.0
C      1  0.4896140000000  0.4065930000000  0.5360610000000 1.0
C      1  0.4133900000000  0.5251660000000  0.4245560000000 1.0
C      1  0.3945850000000  0.5078300000000  0.4724980000000 1.0
C      1  0.4822670000000  0.4451720000000  0.5897360000000 1.0
C      1  0.5186470000000  0.4335810000000  0.5335070000000 1.0
C      1  0.4781010000000  0.5271580000000  0.5912770000000 1.0
C      1  0.5631730000000  0.5183750000000  0.4697810000000 1.0
C      1  0.4973780000000  0.5065610000000  0.5722720000000 1.0
C      1  0.4980460000000  0.4286700000000  0.4180980000000 1.0
C      1  0.4723490000000  0.4534000000000  0.5582680000000 1.0
C      1  0.5828340000000  0.4887330000000  0.5025210000000 1.0
C      1  0.5959170000000  0.5179590000000  0.5028880000000 1.0
C      1  0.5571500000000  0.5670260000000  0.5833690000000 1.0
C      1  0.4520110000000  0.4965690000000  0.4883540000000 1.0
C      1  0.5291250000000  0.6064800000000  0.5292070000000 1.0
C      1  0.4479380000000  0.4431570000000  0.5135960000000 1.0
C      1  0.4950760000000  0.5716620000000  0.4095460000000 1.0
C      1  0.5094550000000  0.5156760000000  0.5182680000000 1.0
C      1  0.5517360000000  0.5067440000000  0.4033310000000 1.0
C      1  0.4217020000000  0.4517400000000  0.4505700000000 1.0
C      1  0.5523250000000  0.4915440000000  0.5364860000000 1.0
C      1  0.4318790000000  0.5374410000000  0.4776430000000 1.0
C      1  0.4887050000000  0.5775110000000  0.5632810000000 1.0
C      1  0.4588490000000  0.5342240000000  0.4137860000000 1.0
C      1  0.4538370000000  0.4278680000000  0.5827620000000 1.0
C      1  0.4989880000000  0.4707930000000  0.4653110000000 1.0
C      1  0.4256840000000  0.5848440000000  0.4847120000000 1.0
C      1  0.4066880000000  0.5346090000000  0.4553370000000 1.0
C      1  0.5917970000000  0.3962530000000  0.5169960000000 1.0
C      1  0.4597830000000  0.5414180000000  0.5300630000000 1.0
C      1  0.4295040000000  0.5563400000000  0.5608450000000 1.0
C      1  0.5205170000000  0.4244250000000  0.4875940000000 1.0
C      1  0.5127840000000  0.5604420000000  0.4582960000000 1.0
C      1  0.4957600000000  0.3947520000000  0.4643210000000 1.0
C      1  0.5490360000000  0.5512100000000  0.4373570000000 1.0
C      1  0.4817350000000  0.4290240000000  0.4791540000000 1.0
C      1  0.5199500000000  0.4927150000000  0.4985030000000 1.0
C      1  0.4563890000000  0.5760950000000  0.5107850000000 1.0
C      1  0.4415380000000  0.4718270000000  0.5277950000000 1.0
C      1  0.4612400000000  0.5209670000000  0.5029400000000 1.0
C      1  0.6193690000000  0.5768390000000  0.4980000000000 1.0
C      1  0.4616790000000  0.4600770000000  0.4011840000000 1.0
C      1  0.6056250000000  0.4503610000000  0.5222910000000 1.0
C      1  0.4921970000000  0.5507140000000  0.5338670000000 1.0
C      1  0.5502070000000  0.4146830000000  0.4607480000000 1.0
C      1  0.4963040000000  0.4263410000000  0.5089070000000 1.0
C      1  0.4524780000000  0.4838110000000  0.6018880000000 1.0
C      1  0.5259220000000  0.5228220000000  0.4154510000000 1.0
C      1  0.4049770000000  0.5029140000000  0.5044960000000 1.0
C      1  0.4295770000000  0.5269390000000  0.5977830000000 1.0
END
