TITL C-2848503-6230-4 0.00158757849665927 125000 -270.037596365387 0 0 50 (C1) n - 1
REM
REM in /home/bkarasulu/work/CARBON/AIRSS/Generating-Clusters/AIREBO/with-SteepDescent/Only-C1/SD-CG-opt/Try1-1.4A-POS3A/HFTN-CG
REM
REM
REM
REM
REM
REM ./C.cell (11c1c37f851c82e70ff6c80c92926a4b)
REM
REM compiler GCC version 9.2.1 20190827 (Red Hat 9.2.1-1)
REM options -cpp -mtune=generic -march=x86-64 -g -O0 -fpre-include=/usr/include/finclude/math-vector-fortran.h
REM seed 525377396 563285382 -1950579091 1879161893 185020941 804753851 -12549495 -772033408 -1827020247 286811320 1618842783 -1131563214 846934357 1538959462 -1974260542 1028835724 -254389031 -632554565 -365154212 2056734948 -1032730155 -212505912 1917305343 51317313 319141536 -1198003586 -2020690608 360080106 -2015607441 1066850872 2054303067 -388934142 338325590
REM
CELL 1.54180   50.00000   50.00000   50.00000   90.00000   90.00000   90.00000
LATT -1
SFAC C  
C      1  0.4322930000000  0.5508890000000  0.5407310000000 1.0
C      1  0.4377050000000  0.5128730000000  0.4811760000000 1.0
C      1  0.5102570000000  0.5294960000000  0.5796930000000 1.0
C      1  0.4939970000000  0.4342820000000  0.5204140000000 1.0
C      1  0.5034680000000  0.5036960000000  0.4381170000000 1.0
C      1  0.5488320000000  0.5433310000000  0.4938520000000 1.0
C      1  0.4486730000000  0.5300840000000  0.5338740000000 1.0
C      1  0.4585540000000  0.4829590000000  0.5173060000000 1.0
C      1  0.4875060000000  0.4459740000000  0.4702810000000 1.0
C      1  0.4592020000000  0.4543210000000  0.4668850000000 1.0
C      1  0.5240220000000  0.4983960000000  0.4763870000000 1.0
C      1  0.5183970000000  0.5518400000000  0.4693720000000 1.0
C      1  0.4533420000000  0.5224340000000  0.4573870000000 1.0
C      1  0.5397410000000  0.5258910000000  0.4688680000000 1.0
C      1  0.4665130000000  0.5473530000000  0.4598790000000 1.0
C      1  0.5232880000000  0.5485440000000  0.5148560000000 1.0
C      1  0.4873070000000  0.4994720000000  0.5176270000000 1.0
C      1  0.5003800000000  0.5476020000000  0.5358480000000 1.0
C      1  0.5537100000000  0.4487200000000  0.4811220000000 1.0
C      1  0.5475670000000  0.4883950000000  0.4539880000000 1.0
C      1  0.5174170000000  0.5152430000000  0.5185310000000 1.0
C      1  0.5161400000000  0.5283980000000  0.4445210000000 1.0
C      1  0.4535600000000  0.4857570000000  0.4778420000000 1.0
C      1  0.5000630000000  0.4766500000000  0.5672030000000 1.0
C      1  0.5307220000000  0.5721300000000  0.4915120000000 1.0
C      1  0.4731550000000  0.4999050000000  0.4461330000000 1.0
C      1  0.5201360000000  0.4808450000000  0.4407550000000 1.0
C      1  0.4973760000000  0.4557700000000  0.5405010000000 1.0
C      1  0.5071090000000  0.4706930000000  0.4829740000000 1.0
C      1  0.4843950000000  0.4950480000000  0.4778590000000 1.0
C      1  0.5117680000000  0.4538880000000  0.4473370000000 1.0
C      1  0.4875710000000  0.5227450000000  0.4930350000000 1.0
C      1  0.4551060000000  0.5025440000000  0.5519750000000 1.0
C      1  0.5305430000000  0.4724920000000  0.5540440000000 1.0
C      1  0.4724190000000  0.4777000000000  0.5474290000000 1.0
C      1  0.5713020000000  0.5304330000000  0.5107290000000 1.0
C      1  0.5285080000000  0.4667320000000  0.5242600000000 1.0
C      1  0.4786970000000  0.5312680000000  0.5240110000000 1.0
C      1  0.5268140000000  0.4443830000000  0.4741800000000 1.0
C      1  0.5031640000000  0.5496670000000  0.5624440000000 1.0
C      1  0.4571370000000  0.4732570000000  0.4401070000000 1.0
C      1  0.5387550000000  0.4914020000000  0.5062280000000 1.0
C      1  0.5629330000000  0.5073690000000  0.5235990000000 1.0
C      1  0.5162850000000  0.5051320000000  0.5702220000000 1.0
C      1  0.4464310000000  0.4597550000000  0.4979920000000 1.0
C      1  0.5364460000000  0.5042300000000  0.5440010000000 1.0
C      1  0.4891150000000  0.5453830000000  0.4745580000000 1.0
C      1  0.4423590000000  0.5091220000000  0.5107170000000 1.0
C      1  0.4923760000000  0.4284420000000  0.4962950000000 1.0
C      1  0.5574460000000  0.4770640000000  0.4813450000000 1.0
END
