TITL C-2847956-8218-191 -0.00260639235807608 125000 -513.593809013844 0 0 99 (C1) n - 1
REM
REM in /home/bkarasulu/work/CARBON/AIRSS/Generating-Clusters/AIREBO/with-SteepDescent/Only-C1/SD-CG-opt/Try1-1.4A-POS3A/HFTN-CG
REM
REM
REM
REM
REM
REM ./C.cell (11c1c37f851c82e70ff6c80c92926a4b)
REM
REM compiler GCC version 9.2.1 20190827 (Red Hat 9.2.1-1)
REM options -cpp -mtune=generic -march=x86-64 -g -O0 -fpre-include=/usr/include/finclude/math-vector-fortran.h
REM seed 1764581604 1504333262 1590703963 -2112213768 -1302113956 1349326063 -1415914860 -868579521 -857103729 -1081490475 839142965 -1820811907 -1123573857 705162241 578087273 -423251921 -578837159 -1389614481 548271135 -432828267 -868613488 55499694 -1240390990 1307634401 -1955931131 -54793841 54312393 2038532181 206898357 -1500983747 -1095654394 -768215257 -314241462
REM
CELL 1.54180   50.00000   50.00000   50.00000   90.00000   90.00000   90.00000
LATT -1
SFAC C  
C      1  0.4585540000000  0.4951610000000  0.5748380000000 1.0
C      1  0.4444500000000  0.4926160000000  0.4810590000000 1.0
C      1  0.5186870000000  0.5421270000000  0.5679880000000 1.0
C      1  0.5248740000000  0.4311780000000  0.5682090000000 1.0
C      1  0.4545500000000  0.4749290000000  0.5244360000000 1.0
C      1  0.5654390000000  0.4500190000000  0.4642680000000 1.0
C      1  0.4846680000000  0.4635350000000  0.5353610000000 1.0
C      1  0.4771710000000  0.4186890000000  0.5077750000000 1.0
C      1  0.4565850000000  0.5104410000000  0.5074260000000 1.0
C      1  0.4749920000000  0.5210240000000  0.5794480000000 1.0
C      1  0.5943570000000  0.4761310000000  0.5103730000000 1.0
C      1  0.5137440000000  0.4600170000000  0.5817030000000 1.0
C      1  0.4621130000000  0.5809400000000  0.5383920000000 1.0
C      1  0.4728220000000  0.5397600000000  0.4864300000000 1.0
C      1  0.5198380000000  0.5749230000000  0.5295260000000 1.0
C      1  0.4919780000000  0.4359670000000  0.5760240000000 1.0
C      1  0.5687880000000  0.5471250000000  0.4497840000000 1.0
C      1  0.5193900000000  0.4535760000000  0.4445460000000 1.0
C      1  0.5443050000000  0.4762430000000  0.4989410000000 1.0
C      1  0.4704420000000  0.5477430000000  0.5712860000000 1.0
C      1  0.4480300000000  0.4282730000000  0.4627800000000 1.0
C      1  0.4739430000000  0.4676320000000  0.4200160000000 1.0
C      1  0.4691280000000  0.5605570000000  0.5120030000000 1.0
C      1  0.4851790000000  0.5081660000000  0.4891560000000 1.0
C      1  0.5642080000000  0.4883940000000  0.5202070000000 1.0
C      1  0.5102820000000  0.5654070000000  0.4134150000000 1.0
C      1  0.4614150000000  0.4568900000000  0.4753800000000 1.0
C      1  0.5535120000000  0.5144190000000  0.5010260000000 1.0
C      1  0.5589840000000  0.4734860000000  0.5469310000000 1.0
C      1  0.5603380000000  0.4937380000000  0.5686750000000 1.0
C      1  0.5280670000000  0.5057860000000  0.4581430000000 1.0
C      1  0.5413890000000  0.5267280000000  0.4268410000000 1.0
C      1  0.5359240000000  0.5636440000000  0.5044930000000 1.0
C      1  0.4884380000000  0.5250520000000  0.4364870000000 1.0
C      1  0.5379190000000  0.5790180000000  0.4783090000000 1.0
C      1  0.4123690000000  0.4971040000000  0.4420460000000 1.0
C      1  0.5298220000000  0.5112970000000  0.4029680000000 1.0
C      1  0.4784720000000  0.4276710000000  0.4787780000000 1.0
C      1  0.4167330000000  0.5446910000000  0.5009000000000 1.0
C      1  0.5207480000000  0.4182150000000  0.5399570000000 1.0
C      1  0.4660960000000  0.5132180000000  0.5399540000000 1.0
C      1  0.4826160000000  0.5763900000000  0.4738820000000 1.0
C      1  0.5391320000000  0.5586890000000  0.4556340000000 1.0
C      1  0.5747230000000  0.4767450000000  0.4836160000000 1.0
C      1  0.5149090000000  0.5463870000000  0.4351790000000 1.0
C      1  0.5391670000000  0.4528670000000  0.5472970000000 1.0
C      1  0.4884800000000  0.5939330000000  0.4935270000000 1.0
C      1  0.4694380000000  0.5162310000000  0.4109640000000 1.0
C      1  0.5064650000000  0.4300560000000  0.4645100000000 1.0
C      1  0.5383110000000  0.5485820000000  0.5409380000000 1.0
C      1  0.4631620000000  0.5395680000000  0.4540150000000 1.0
C      1  0.5278780000000  0.4089830000000  0.5136750000000 1.0
C      1  0.5589540000000  0.5032660000000  0.4441050000000 1.0
C      1  0.4766180000000  0.4765980000000  0.4985450000000 1.0
C      1  0.5029000000000  0.4717310000000  0.4258680000000 1.0
C      1  0.5770750000000  0.5011020000000  0.5877090000000 1.0
C      1  0.5484130000000  0.5298250000000  0.4710200000000 1.0
C      1  0.4535500000000  0.5659180000000  0.4718910000000 1.0
C      1  0.4751170000000  0.5016920000000  0.4573120000000 1.0
C      1  0.4343520000000  0.4396190000000  0.5156720000000 1.0
C      1  0.4523250000000  0.5501470000000  0.5466390000000 1.0
C      1  0.5112210000000  0.5009470000000  0.4289970000000 1.0
C      1  0.4923160000000  0.5824540000000  0.5228940000000 1.0
C      1  0.5090220000000  0.5281130000000  0.4753500000000 1.0
C      1  0.5336650000000  0.5020710000000  0.5581230000000 1.0
C      1  0.5191660000000  0.4742990000000  0.4686440000000 1.0
C      1  0.5036810000000  0.4563650000000  0.4941640000000 1.0
C      1  0.5606080000000  0.4769430000000  0.4276080000000 1.0
C      1  0.5787930000000  0.5046200000000  0.4717260000000 1.0
C      1  0.4353700000000  0.5371590000000  0.4734760000000 1.0
C      1  0.5110350000000  0.4877090000000  0.5732690000000 1.0
C      1  0.4330300000000  0.4629210000000  0.4931010000000 1.0
C      1  0.4200500000000  0.5125740000000  0.4917980000000 1.0
C      1  0.4245340000000  0.4876980000000  0.5147820000000 1.0
C      1  0.4522180000000  0.4696250000000  0.5578300000000 1.0
C      1  0.5249070000000  0.5199130000000  0.5353690000000 1.0
C      1  0.4573190000000  0.4930630000000  0.4204270000000 1.0
C      1  0.4423780000000  0.4977330000000  0.4489090000000 1.0
C      1  0.5003330000000  0.5575530000000  0.4637960000000 1.0
C      1  0.4713800000000  0.4707430000000  0.4503450000000 1.0
C      1  0.5244280000000  0.4295680000000  0.4913270000000 1.0
C      1  0.5083610000000  0.4838380000000  0.5226550000000 1.0
C      1  0.5215810000000  0.4544600000000  0.5230220000000 1.0
C      1  0.5511430000000  0.4548810000000  0.4407190000000 1.0
C      1  0.5636180000000  0.5489440000000  0.5171540000000 1.0
C      1  0.4963060000000  0.4331870000000  0.5258100000000 1.0
C      1  0.5481580000000  0.4475540000000  0.4880570000000 1.0
C      1  0.4676620000000  0.4410770000000  0.5576070000000 1.0
C      1  0.4452920000000  0.5387870000000  0.5151900000000 1.0
C      1  0.5806510000000  0.5303870000000  0.4939870000000 1.0
C      1  0.4858180000000  0.4905850000000  0.5559310000000 1.0
C      1  0.4352790000000  0.5214730000000  0.5496360000000 1.0
C      1  0.4156980000000  0.5047710000000  0.5400370000000 1.0
C      1  0.5036800000000  0.5179820000000  0.5789450000000 1.0
C      1  0.4566370000000  0.4288210000000  0.5278550000000 1.0
C      1  0.5257190000000  0.5321310000000  0.5036320000000 1.0
C      1  0.4960220000000  0.5610750000000  0.5729650000000 1.0
C      1  0.5157580000000  0.4941650000000  0.4943120000000 1.0
C      1  0.4948350000000  0.5139530000000  0.5222720000000 1.0
END
