TITL C-2847953-8112-55 0.000345049169475364 125000 -936.553337829849 0 0 178 (C1) n - 1
REM
REM in /home/bkarasulu/work/CARBON/AIRSS/Generating-Clusters/AIREBO/with-SteepDescent/Only-C1/SD-CG-opt/Try1-1.4A-POS3A/HFTN-CG
REM
REM
REM
REM
REM
REM ./C.cell (11c1c37f851c82e70ff6c80c92926a4b)
REM
REM compiler GCC version 9.2.1 20190827 (Red Hat 9.2.1-1)
REM options -cpp -mtune=generic -march=x86-64 -g -O0 -fpre-include=/usr/include/finclude/math-vector-fortran.h
REM seed -926302571 529018369 284277475 54412697 1703803324 892093086 635176798 -1062471050 1721871041 76794158 305237553 -1849691147 -95056066 1859566250 -1592064973 2073318503 1628669905 1106283774 -1650732448 263854013 1279424329 -571361334 1556448599 -1273368279 91244860 -1658561554 1925205536 -2065330885 -540493750 1460556834 1195902635 -955775018 -2008017323
REM
CELL 1.54180   50.00000   50.00000   50.00000   90.00000   90.00000   90.00000
LATT -1
SFAC C  
C      1  0.4668410000000  0.5522150000000  0.4867300000000 1.0
C      1  0.5110190000000  0.4061210000000  0.4462150000000 1.0
C      1  0.5296200000000  0.3942910000000  0.4714290000000 1.0
C      1  0.5455500000000  0.5491820000000  0.5315380000000 1.0
C      1  0.5294450000000  0.5458020000000  0.5606430000000 1.0
C      1  0.4857130000000  0.4362800000000  0.5802030000000 1.0
C      1  0.5403440000000  0.5436670000000  0.4158690000000 1.0
C      1  0.4806900000000  0.4946360000000  0.4372040000000 1.0
C      1  0.4985860000000  0.4425160000000  0.4544140000000 1.0
C      1  0.4624420000000  0.3968470000000  0.4894240000000 1.0
C      1  0.5607540000000  0.3945040000000  0.4636460000000 1.0
C      1  0.4716020000000  0.4839770000000  0.6159330000000 1.0
C      1  0.5122410000000  0.5023690000000  0.4329270000000 1.0
C      1  0.5273460000000  0.5724020000000  0.4225350000000 1.0
C      1  0.5706940000000  0.5160490000000  0.4684660000000 1.0
C      1  0.4746220000000  0.5388430000000  0.4158260000000 1.0
C      1  0.5965240000000  0.5517950000000  0.5074690000000 1.0
C      1  0.4502920000000  0.3959610000000  0.5201130000000 1.0
C      1  0.5136770000000  0.5165290000000  0.5677740000000 1.0
C      1  0.5819900000000  0.5688300000000  0.4897410000000 1.0
C      1  0.4323880000000  0.4394620000000  0.4408430000000 1.0
C      1  0.5714210000000  0.4217750000000  0.4597790000000 1.0
C      1  0.5037270000000  0.4904300000000  0.5871740000000 1.0
C      1  0.4823080000000  0.5157690000000  0.5591580000000 1.0
C      1  0.4701670000000  0.4946610000000  0.5836790000000 1.0
C      1  0.5358270000000  0.5814710000000  0.4511050000000 1.0
C      1  0.4369010000000  0.5926900000000  0.5914400000000 1.0
C      1  0.4799890000000  0.4627380000000  0.4832510000000 1.0
C      1  0.5910210000000  0.4740120000000  0.4811920000000 1.0
C      1  0.4405660000000  0.4219470000000  0.5245230000000 1.0
C      1  0.4108450000000  0.5818250000000  0.5064580000000 1.0
C      1  0.4785990000000  0.5641490000000  0.5597890000000 1.0
C      1  0.4439830000000  0.4756590000000  0.4691570000000 1.0
C      1  0.4300210000000  0.4069750000000  0.4878920000000 1.0
C      1  0.6087580000000  0.5241150000000  0.4938830000000 1.0
C      1  0.3836810000000  0.4807750000000  0.5380140000000 1.0
C      1  0.4132950000000  0.4619320000000  0.4265250000000 1.0
C      1  0.5590810000000  0.5456800000000  0.4804510000000 1.0
C      1  0.3557870000000  0.4827690000000  0.5366690000000 1.0
C      1  0.5197070000000  0.5223100000000  0.3990750000000 1.0
C      1  0.5754510000000  0.4269130000000  0.5250100000000 1.0
C      1  0.5418900000000  0.5261420000000  0.6106440000000 1.0
C      1  0.4755110000000  0.5409020000000  0.5762700000000 1.0
C      1  0.5506580000000  0.4721180000000  0.5964650000000 1.0
C      1  0.5312380000000  0.4930370000000  0.4067550000000 1.0
C      1  0.4017900000000  0.5089740000000  0.4461710000000 1.0
C      1  0.4535670000000  0.5685040000000  0.5370420000000 1.0
C      1  0.4970730000000  0.4855800000000  0.5141580000000 1.0
C      1  0.4927730000000  0.4198620000000  0.4210190000000 1.0
C      1  0.5396120000000  0.5071550000000  0.5170650000000 1.0
C      1  0.4663450000000  0.5241910000000  0.5062910000000 1.0
C      1  0.5103180000000  0.5650190000000  0.4608590000000 1.0
C      1  0.5672160000000  0.4457910000000  0.5006920000000 1.0
C      1  0.5630070000000  0.4962240000000  0.5840370000000 1.0
C      1  0.4260870000000  0.4476820000000  0.5637550000000 1.0
C      1  0.6080690000000  0.5033990000000  0.4747750000000 1.0
C      1  0.4718740000000  0.4612440000000  0.5899190000000 1.0
C      1  0.5092970000000  0.5592300000000  0.4917270000000 1.0
C      1  0.5119010000000  0.5708190000000  0.5614130000000 1.0
C      1  0.5092640000000  0.4702070000000  0.4060630000000 1.0
C      1  0.5271480000000  0.4464690000000  0.4724340000000 1.0
C      1  0.4185900000000  0.4351930000000  0.5030820000000 1.0
C      1  0.4514080000000  0.4155190000000  0.4522630000000 1.0
C      1  0.5483340000000  0.5504310000000  0.4485090000000 1.0
C      1  0.5426560000000  0.6029450000000  0.4709280000000 1.0
C      1  0.4326980000000  0.4439650000000  0.4741630000000 1.0
C      1  0.5824740000000  0.4415280000000  0.4758530000000 1.0
C      1  0.5928330000000  0.5093620000000  0.4453300000000 1.0
C      1  0.4632840000000  0.4416860000000  0.5314610000000 1.0
C      1  0.4388040000000  0.5131140000000  0.4278330000000 1.0
C      1  0.5384390000000  0.5620280000000  0.5019780000000 1.0
C      1  0.5726370000000  0.5931460000000  0.5009590000000 1.0
C      1  0.5228780000000  0.4813570000000  0.6090130000000 1.0
C      1  0.5322300000000  0.4106390000000  0.5398780000000 1.0
C      1  0.4410640000000  0.4648770000000  0.5385190000000 1.0
C      1  0.4048030000000  0.5277250000000  0.5029020000000 1.0
C      1  0.4722660000000  0.4369880000000  0.4379290000000 1.0
C      1  0.4650540000000  0.4346390000000  0.4768490000000 1.0
C      1  0.4984800000000  0.5886700000000  0.5357730000000 1.0
C      1  0.4143460000000  0.5692150000000  0.4827250000000 1.0
C      1  0.5178330000000  0.4476250000000  0.5429880000000 1.0
C      1  0.4226170000000  0.4740180000000  0.5114500000000 1.0
C      1  0.5402220000000  0.4533720000000  0.5200210000000 1.0
C      1  0.4665600000000  0.4692030000000  0.4461920000000 1.0
C      1  0.4242440000000  0.5049330000000  0.5052820000000 1.0
C      1  0.4671490000000  0.5062990000000  0.4102200000000 1.0
C      1  0.4941390000000  0.5448660000000  0.4401350000000 1.0
C      1  0.5217100000000  0.4492210000000  0.6113490000000 1.0
C      1  0.4883710000000  0.5123570000000  0.4633590000000 1.0
C      1  0.5780970000000  0.5607610000000  0.4368410000000 1.0
C      1  0.6042670000000  0.5044420000000  0.5629070000000 1.0
C      1  0.5492580000000  0.4145500000000  0.5175440000000 1.0
C      1  0.5590840000000  0.4792490000000  0.5208840000000 1.0
C      1  0.4444290000000  0.5829420000000  0.5664470000000 1.0
C      1  0.5701320000000  0.5188750000000  0.5400690000000 1.0
C      1  0.4368200000000  0.4994200000000  0.5790520000000 1.0
C      1  0.5803430000000  0.4999440000000  0.4151290000000 1.0
C      1  0.5406520000000  0.4532270000000  0.4348340000000 1.0
C      1  0.4610530000000  0.5274020000000  0.4668530000000 1.0
C      1  0.5176800000000  0.5329040000000  0.5205540000000 1.0
C      1  0.4396340000000  0.5407480000000  0.4477370000000 1.0
C      1  0.5788920000000  0.4567960000000  0.5370320000000 1.0
C      1  0.5170190000000  0.6360170000000  0.5266010000000 1.0
C      1  0.5223380000000  0.5285360000000  0.4498880000000 1.0
C      1  0.5849080000000  0.4778910000000  0.4480370000000 1.0
C      1  0.4433210000000  0.5162610000000  0.5301060000000 1.0
C      1  0.5424000000000  0.5093600000000  0.5512930000000 1.0
C      1  0.4468140000000  0.4623600000000  0.4206730000000 1.0
C      1  0.4729370000000  0.4124810000000  0.5884530000000 1.0
C      1  0.4241800000000  0.4869960000000  0.4437670000000 1.0
C      1  0.3975020000000  0.4565380000000  0.5185510000000 1.0
C      1  0.6003500000000  0.4969340000000  0.3955520000000 1.0
C      1  0.5017030000000  0.4818040000000  0.4702780000000 1.0
C      1  0.4871760000000  0.4589820000000  0.3939210000000 1.0
C      1  0.4914490000000  0.5641810000000  0.5158660000000 1.0
C      1  0.5154020000000  0.4603850000000  0.5011510000000 1.0
C      1  0.4096820000000  0.5325950000000  0.4556960000000 1.0
C      1  0.4600200000000  0.4892430000000  0.5286670000000 1.0
C      1  0.5957970000000  0.5318240000000  0.5582390000000 1.0
C      1  0.4028670000000  0.5379040000000  0.5299410000000 1.0
C      1  0.5449300000000  0.4726980000000  0.4600650000000 1.0
C      1  0.4030080000000  0.5437060000000  0.4802850000000 1.0
C      1  0.5103670000000  0.5301360000000  0.4803360000000 1.0
C      1  0.4929120000000  0.5151180000000  0.3898320000000 1.0
C      1  0.4195280000000  0.4857590000000  0.5545450000000 1.0
C      1  0.5366870000000  0.4198880000000  0.4914140000000 1.0
C      1  0.4541270000000  0.4700880000000  0.5011530000000 1.0
C      1  0.5847110000000  0.4848650000000  0.5682620000000 1.0
C      1  0.5393660000000  0.4336560000000  0.5639390000000 1.0
C      1  0.5284180000000  0.4897820000000  0.4900590000000 1.0
C      1  0.4622510000000  0.5749180000000  0.5082130000000 1.0
C      1  0.5032500000000  0.5829090000000  0.4168120000000 1.0
C      1  0.5399060000000  0.4242680000000  0.4472600000000 1.0
C      1  0.5078770000000  0.4739670000000  0.5596670000000 1.0
C      1  0.4872990000000  0.4869740000000  0.5424140000000 1.0
C      1  0.4883520000000  0.4393520000000  0.5499010000000 1.0
C      1  0.5448670000000  0.5038120000000  0.4560000000000 1.0
C      1  0.3981010000000  0.4554140000000  0.5552820000000 1.0
C      1  0.4196690000000  0.5673570000000  0.5324620000000 1.0
C      1  0.5162460000000  0.4360490000000  0.5875580000000 1.0
C      1  0.4710920000000  0.5642750000000  0.4550850000000 1.0
C      1  0.4288440000000  0.5240450000000  0.5569990000000 1.0
C      1  0.5663160000000  0.5256190000000  0.5069540000000 1.0
C      1  0.4422720000000  0.4661820000000  0.5807480000000 1.0
C      1  0.5312480000000  0.5074410000000  0.6238780000000 1.0
C      1  0.5665030000000  0.4708980000000  0.4265940000000 1.0
C      1  0.5501490000000  0.5266820000000  0.5796910000000 1.0
C      1  0.5582860000000  0.6054950000000  0.5208370000000 1.0
C      1  0.4822910000000  0.4080350000000  0.4645390000000 1.0
C      1  0.5110750000000  0.4691570000000  0.4401190000000 1.0
C      1  0.5138060000000  0.3878330000000  0.4976840000000 1.0
C      1  0.5967670000000  0.5139890000000  0.5195950000000 1.0
C      1  0.6000510000000  0.4689590000000  0.5135800000000 1.0
C      1  0.5794460000000  0.5511420000000  0.5347600000000 1.0
C      1  0.4709930000000  0.5993350000000  0.5527330000000 1.0
C      1  0.4881340000000  0.4414020000000  0.5084470000000 1.0
C      1  0.5624070000000  0.4902660000000  0.4890410000000 1.0
C      1  0.4621030000000  0.5621630000000  0.4040670000000 1.0
C      1  0.4892550000000  0.4299940000000  0.3952940000000 1.0
C      1  0.5606670000000  0.4609630000000  0.5654380000000 1.0
C      1  0.4769600000000  0.5776040000000  0.4249560000000 1.0
C      1  0.3987320000000  0.5099490000000  0.5468910000000 1.0
C      1  0.5102390000000  0.3968630000000  0.5285820000000 1.0
C      1  0.4478540000000  0.5057600000000  0.4844990000000 1.0
C      1  0.4390060000000  0.5703550000000  0.4645490000000 1.0
C      1  0.4896660000000  0.4099190000000  0.5046960000000 1.0
C      1  0.4760830000000  0.6113910000000  0.4801780000000 1.0
C      1  0.5279810000000  0.5940680000000  0.4973980000000 1.0
C      1  0.4585940000000  0.5910020000000  0.4817650000000 1.0
C      1  0.5287640000000  0.5969100000000  0.5603490000000 1.0
C      1  0.4630740000000  0.4746220000000  0.3980750000000 1.0
C      1  0.5002520000000  0.6119500000000  0.4929880000000 1.0
C      1  0.4268850000000  0.5542050000000  0.5612570000000 1.0
C      1  0.5379670000000  0.4798370000000  0.5547950000000 1.0
C      1  0.5251910000000  0.6082950000000  0.5281570000000 1.0
C      1  0.4856990000000  0.5356750000000  0.5317900000000 1.0
C      1  0.4977220000000  0.5120840000000  0.5023190000000 1.0
C      1  0.5552670000000  0.5150280000000  0.4049930000000 1.0
END
