TITL C-2848506-1665-172 -0.000987241966776442 125000 -1062.48506038021 0 0 194 (C1) n - 1
REM
REM in /home/bkarasulu/work/CARBON/AIRSS/Generating-Clusters/AIREBO/with-SteepDescent/Only-C1/SD-CG-opt/Try1-1.4A-POS3A/HFTN-CG
REM
REM
REM
REM
REM
REM ./C.cell (11c1c37f851c82e70ff6c80c92926a4b)
REM
REM compiler GCC version 9.2.1 20190827 (Red Hat 9.2.1-1)
REM options -cpp -mtune=generic -march=x86-64 -g -O0 -fpre-include=/usr/include/finclude/math-vector-fortran.h
REM seed 869335778 1831110697 -1203772221 902124990 2020087541 -925597351 220985128 -1870096649 181278561 1692283903 116750075 -1432997300 -1089094544 1223822268 1489321699 -1080153346 -1244972717 -688882473 320068043 2049674444 -1283446929 -1619705032 1943679291 -15488119 -1842908503 1067386119 -1741061811 523324371 -1596997004 396234780 997592969 -1491731870 -1021905934
REM
CELL 1.54180   50.00000   50.00000   50.00000   90.00000   90.00000   90.00000
LATT -1
SFAC C  
C      1  0.5809480000000  0.5131010000000  0.4148920000000 1.0
C      1  0.4175520000000  0.5556170000000  0.4533880000000 1.0
C      1  0.5403380000000  0.5917810000000  0.4566430000000 1.0
C      1  0.4486510000000  0.4709520000000  0.4631950000000 1.0
C      1  0.4371460000000  0.4609460000000  0.4928250000000 1.0
C      1  0.4728710000000  0.5986540000000  0.5294290000000 1.0
C      1  0.4355320000000  0.5191220000000  0.5707090000000 1.0
C      1  0.4927090000000  0.4186800000000  0.5380000000000 1.0
C      1  0.4059310000000  0.4887260000000  0.5438610000000 1.0
C      1  0.6025950000000  0.5056090000000  0.4661000000000 1.0
C      1  0.4754450000000  0.4242530000000  0.4850090000000 1.0
C      1  0.4029060000000  0.4782110000000  0.5055000000000 1.0
C      1  0.5936130000000  0.4545830000000  0.4798720000000 1.0
C      1  0.6018400000000  0.5652670000000  0.5227020000000 1.0
C      1  0.4299420000000  0.5834290000000  0.4622100000000 1.0
C      1  0.5021790000000  0.5314460000000  0.5719730000000 1.0
C      1  0.4841420000000  0.4065710000000  0.5654370000000 1.0
C      1  0.5876220000000  0.4692520000000  0.5371930000000 1.0
C      1  0.4496470000000  0.5119550000000  0.4344220000000 1.0
C      1  0.4129250000000  0.5023860000000  0.5729640000000 1.0
C      1  0.4056230000000  0.4955360000000  0.4251210000000 1.0
C      1  0.4411500000000  0.4902760000000  0.5091070000000 1.0
C      1  0.6104850000000  0.5404780000000  0.5021120000000 1.0
C      1  0.4523850000000  0.4140990000000  0.4414150000000 1.0
C      1  0.4173240000000  0.4416120000000  0.4735160000000 1.0
C      1  0.4539080000000  0.4129000000000  0.5221120000000 1.0
C      1  0.4878420000000  0.5169630000000  0.4241850000000 1.0
C      1  0.5646360000000  0.4596500000000  0.4885640000000 1.0
C      1  0.4259320000000  0.5463090000000  0.4232890000000 1.0
C      1  0.5113240000000  0.4494550000000  0.4691280000000 1.0
C      1  0.5922840000000  0.5300480000000  0.5576010000000 1.0
C      1  0.4762390000000  0.5411120000000  0.5553450000000 1.0
C      1  0.5977570000000  0.4979370000000  0.4375720000000 1.0
C      1  0.5875180000000  0.4976160000000  0.5183840000000 1.0
C      1  0.4651840000000  0.5091520000000  0.4942020000000 1.0
C      1  0.4184300000000  0.4514170000000  0.5195680000000 1.0
C      1  0.5256570000000  0.4033480000000  0.4985910000000 1.0
C      1  0.5631460000000  0.5769570000000  0.4538570000000 1.0
C      1  0.3820420000000  0.5224540000000  0.4915710000000 1.0
C      1  0.4511520000000  0.5023900000000  0.4018170000000 1.0
C      1  0.5568860000000  0.5106410000000  0.3919130000000 1.0
C      1  0.5476950000000  0.4713580000000  0.4655070000000 1.0
C      1  0.4798850000000  0.4785240000000  0.4618680000000 1.0
C      1  0.5744200000000  0.5223680000000  0.5788140000000 1.0
C      1  0.5625890000000  0.5345630000000  0.4751160000000 1.0
C      1  0.4513830000000  0.5104110000000  0.6064780000000 1.0
C      1  0.4605860000000  0.4425370000000  0.5065090000000 1.0
C      1  0.4679510000000  0.4608390000000  0.4144300000000 1.0
C      1  0.4859790000000  0.5561630000000  0.4741830000000 1.0
C      1  0.4926990000000  0.4894200000000  0.4981920000000 1.0
C      1  0.4430620000000  0.4413690000000  0.4018580000000 1.0
C      1  0.5042100000000  0.5328820000000  0.4848770000000 1.0
C      1  0.4495220000000  0.5917450000000  0.4962510000000 1.0
C      1  0.5708010000000  0.4185080000000  0.5314400000000 1.0
C      1  0.5026820000000  0.5947700000000  0.5431080000000 1.0
C      1  0.5970350000000  0.5777920000000  0.4972400000000 1.0
C      1  0.5179570000000  0.4821970000000  0.4302000000000 1.0
C      1  0.4914150000000  0.4277740000000  0.5859310000000 1.0
C      1  0.5726800000000  0.4801640000000  0.4123470000000 1.0
C      1  0.5377900000000  0.5610160000000  0.4195510000000 1.0
C      1  0.3948240000000  0.5215390000000  0.4615550000000 1.0
C      1  0.4785310000000  0.4345110000000  0.4331800000000 1.0
C      1  0.5294200000000  0.4545030000000  0.4342670000000 1.0
C      1  0.4123070000000  0.5370320000000  0.4968750000000 1.0
C      1  0.5478510000000  0.4428870000000  0.5695790000000 1.0
C      1  0.4499400000000  0.5701630000000  0.4271720000000 1.0
C      1  0.5124200000000  0.5121400000000  0.6156390000000 1.0
C      1  0.4441130000000  0.5432640000000  0.5003110000000 1.0
C      1  0.5365890000000  0.4179800000000  0.4211440000000 1.0
C      1  0.5170340000000  0.4824030000000  0.4752900000000 1.0
C      1  0.5104630000000  0.5956180000000  0.5098240000000 1.0
C      1  0.5609790000000  0.4615170000000  0.4375640000000 1.0
C      1  0.4199030000000  0.5635240000000  0.5468660000000 1.0
C      1  0.5151100000000  0.4467830000000  0.5780580000000 1.0
C      1  0.5359930000000  0.4946250000000  0.5079070000000 1.0
C      1  0.4475590000000  0.5015820000000  0.4659170000000 1.0
C      1  0.5592450000000  0.4023540000000  0.5051490000000 1.0
C      1  0.4963100000000  0.4898020000000  0.5998270000000 1.0
C      1  0.5029060000000  0.4986030000000  0.5296410000000 1.0
C      1  0.4371370000000  0.5692560000000  0.5756170000000 1.0
C      1  0.4806180000000  0.6009090000000  0.4963600000000 1.0
C      1  0.5300240000000  0.5007790000000  0.5794400000000 1.0
C      1  0.5916730000000  0.5600230000000  0.5473540000000 1.0
C      1  0.4245610000000  0.4192810000000  0.5111010000000 1.0
C      1  0.5875010000000  0.5280320000000  0.5238670000000 1.0
C      1  0.4885180000000  0.5619090000000  0.4047850000000 1.0
C      1  0.6117820000000  0.4668640000000  0.5132500000000 1.0
C      1  0.5029200000000  0.4643640000000  0.5516190000000 1.0
C      1  0.5253610000000  0.5440890000000  0.5071840000000 1.0
C      1  0.4394160000000  0.4934920000000  0.5402540000000 1.0
C      1  0.5526010000000  0.4335250000000  0.4030610000000 1.0
C      1  0.5070120000000  0.5017460000000  0.3926050000000 1.0
C      1  0.5502060000000  0.4960110000000  0.5362210000000 1.0
C      1  0.4857290000000  0.6049990000000  0.4627430000000 1.0
C      1  0.4792620000000  0.5648450000000  0.5309460000000 1.0
C      1  0.5464380000000  0.4143920000000  0.4754690000000 1.0
C      1  0.4291600000000  0.4857090000000  0.4125680000000 1.0
C      1  0.5333040000000  0.5337100000000  0.4578640000000 1.0
C      1  0.4705890000000  0.5674730000000  0.5759340000000 1.0
C      1  0.6015680000000  0.5383040000000  0.4695100000000 1.0
C      1  0.5693830000000  0.4953200000000  0.5836260000000 1.0
C      1  0.5911740000000  0.4365630000000  0.5284540000000 1.0
C      1  0.5543050000000  0.5845460000000  0.5490450000000 1.0
C      1  0.4586500000000  0.5269570000000  0.5224310000000 1.0
C      1  0.5561000000000  0.6015910000000  0.5284260000000 1.0
C      1  0.4570980000000  0.4602850000000  0.6000180000000 1.0
C      1  0.4325380000000  0.3990750000000  0.4645900000000 1.0
C      1  0.4779350000000  0.5404800000000  0.5952590000000 1.0
C      1  0.4907530000000  0.4715450000000  0.3931680000000 1.0
C      1  0.4640800000000  0.3968560000000  0.4683670000000 1.0
C      1  0.5421540000000  0.5196130000000  0.6021970000000 1.0
C      1  0.3970280000000  0.4763790000000  0.4453630000000 1.0
C      1  0.5523170000000  0.5462480000000  0.5889980000000 1.0
C      1  0.6081800000000  0.4364780000000  0.5035420000000 1.0
C      1  0.5077920000000  0.5706330000000  0.4287920000000 1.0
C      1  0.4630340000000  0.5800800000000  0.4672670000000 1.0
C      1  0.4439340000000  0.4482560000000  0.5418330000000 1.0
C      1  0.5315860000000  0.4269020000000  0.4540080000000 1.0
C      1  0.5738190000000  0.5660200000000  0.4815890000000 1.0
C      1  0.5512790000000  0.4607460000000  0.3983920000000 1.0
C      1  0.4505700000000  0.5687470000000  0.5155250000000 1.0
C      1  0.4733040000000  0.4892440000000  0.4323480000000 1.0
C      1  0.4301400000000  0.4282780000000  0.4239660000000 1.0
C      1  0.4139840000000  0.4497270000000  0.4448220000000 1.0
C      1  0.5132510000000  0.5903270000000  0.4762970000000 1.0
C      1  0.4858700000000  0.5347660000000  0.4002910000000 1.0
C      1  0.5899380000000  0.4489340000000  0.4503800000000 1.0
C      1  0.5071640000000  0.4309710000000  0.4238090000000 1.0
C      1  0.4537220000000  0.4718930000000  0.5619940000000 1.0
C      1  0.5002870000000  0.3833620000000  0.5077070000000 1.0
C      1  0.5094290000000  0.5540560000000  0.5313760000000 1.0
C      1  0.5488000000000  0.5656690000000  0.4995320000000 1.0
C      1  0.4593440000000  0.4354390000000  0.5768840000000 1.0
C      1  0.5515820000000  0.4216800000000  0.5512720000000 1.0
C      1  0.4775340000000  0.4470430000000  0.5358610000000 1.0
C      1  0.5469490000000  0.4803670000000  0.6007250000000 1.0
C      1  0.5664860000000  0.4702940000000  0.5619710000000 1.0
C      1  0.4732890000000  0.3944180000000  0.5012020000000 1.0
C      1  0.5576570000000  0.5374530000000  0.4209740000000 1.0
C      1  0.5171330000000  0.5126340000000  0.4366080000000 1.0
C      1  0.5528520000000  0.4353360000000  0.4999180000000 1.0
C      1  0.4081190000000  0.5365840000000  0.5296500000000 1.0
C      1  0.5633060000000  0.4806640000000  0.5080940000000 1.0
C      1  0.4975570000000  0.5075680000000  0.4631660000000 1.0
C      1  0.5310180000000  0.5121340000000  0.4840590000000 1.0
C      1  0.5241520000000  0.4731590000000  0.3993300000000 1.0
C      1  0.4813270000000  0.4448840000000  0.4621920000000 1.0
C      1  0.4640210000000  0.5094730000000  0.5578060000000 1.0
C      1  0.5475860000000  0.5285820000000  0.5428290000000 1.0
C      1  0.4451590000000  0.5382370000000  0.4504670000000 1.0
C      1  0.5093960000000  0.5419610000000  0.6028990000000 1.0
C      1  0.4364090000000  0.5340180000000  0.5432360000000 1.0
C      1  0.3972670000000  0.4900170000000  0.4741090000000 1.0
C      1  0.5191010000000  0.4683850000000  0.5999670000000 1.0
C      1  0.4403090000000  0.4654440000000  0.4336990000000 1.0
C      1  0.4296090000000  0.4513470000000  0.5725210000000 1.0
C      1  0.4066450000000  0.5662180000000  0.4820280000000 1.0
C      1  0.3943320000000  0.5078730000000  0.5197730000000 1.0
C      1  0.4561000000000  0.4119020000000  0.5525270000000 1.0
C      1  0.5199380000000  0.5159770000000  0.5526780000000 1.0
C      1  0.4648160000000  0.4863860000000  0.6048360000000 1.0
C      1  0.4476660000000  0.5831420000000  0.5461900000000 1.0
C      1  0.5994010000000  0.4687960000000  0.4300360000000 1.0
C      1  0.4987350000000  0.4559610000000  0.4988400000000 1.0
C      1  0.5792730000000  0.5116150000000  0.4884950000000 1.0
C      1  0.4740550000000  0.5086770000000  0.3877850000000 1.0
C      1  0.4826260000000  0.4843280000000  0.5691820000000 1.0
C      1  0.4055180000000  0.5219970000000  0.4355340000000 1.0
C      1  0.4903100000000  0.5266060000000  0.5280000000000 1.0
C      1  0.5245620000000  0.4165270000000  0.5384590000000 1.0
C      1  0.5152030000000  0.3861000000000  0.5330030000000 1.0
C      1  0.5318510000000  0.5192140000000  0.4082940000000 1.0
C      1  0.5411610000000  0.5929290000000  0.5074350000000 1.0
C      1  0.4772060000000  0.5833790000000  0.4365280000000 1.0
C      1  0.5336710000000  0.4778360000000  0.5571660000000 1.0
C      1  0.5018060000000  0.4232520000000  0.5063870000000 1.0
C      1  0.4043010000000  0.4656690000000  0.5688280000000 1.0
C      1  0.5116580000000  0.5095810000000  0.6458080000000 1.0
C      1  0.4458450000000  0.5401530000000  0.5909140000000 1.0
C      1  0.5602170000000  0.5534740000000  0.5582390000000 1.0
C      1  0.4608890000000  0.5383560000000  0.4752670000000 1.0
C      1  0.4969870000000  0.5837190000000  0.5749660000000 1.0
C      1  0.5581440000000  0.5381500000000  0.5145850000000 1.0
C      1  0.4195110000000  0.4156060000000  0.4831530000000 1.0
C      1  0.5147340000000  0.5611900000000  0.4587570000000 1.0
C      1  0.5179330000000  0.4692060000000  0.5214820000000 1.0
C      1  0.4180100000000  0.5970280000000  0.4909680000000 1.0
C      1  0.4227550000000  0.5068820000000  0.4860690000000 1.0
C      1  0.5236820000000  0.5636300000000  0.5816550000000 1.0
C      1  0.5257040000000  0.5718210000000  0.5509450000000 1.0
C      1  0.6374120000000  0.5326620000000  0.5056750000000 1.0
C      1  0.5773670000000  0.5468230000000  0.4470560000000 1.0
C      1  0.6105230000000  0.4819540000000  0.4851960000000 1.0
C      1  0.5340350000000  0.4418770000000  0.5216950000000 1.0
END
