TITL C-2848509-3138-358 0.00086058222026839 125000 -175.735519103621 0 0 31 (C1) n - 1
REM
REM in /home/bkarasulu/work/CARBON/AIRSS/Generating-Clusters/AIREBO/with-SteepDescent/Only-C1/SD-CG-opt/Try1-1.4A-POS3A/HFTN-CG
REM
REM
REM
REM
REM
REM ./C.cell (11c1c37f851c82e70ff6c80c92926a4b)
REM
REM compiler GCC version 9.2.1 20190827 (Red Hat 9.2.1-1)
REM options -cpp -mtune=generic -march=x86-64 -g -O0 -fpre-include=/usr/include/finclude/math-vector-fortran.h
REM seed 486566657 14215988 -1149621180 725328093 602408507 247119333 -861254904 1598997358 215978748 340995779 1980195993 1001737490 -1129833298 190685142 198837564 815892948 -418412731 867980375 -583796736 2067693002 1932278490 -1879224462 96609467 -712416921 1957572758 -1780948992 -1465503619 1407522518 -1361514950 -82837003 1637488566 -1458455129 -741033055
REM
CELL 1.54180   50.00000   50.00000   50.00000   90.00000   90.00000   90.00000
LATT -1
SFAC C  
C      1  0.5058310000000  0.4942950000000  0.5476480000000 1.0
C      1  0.5498880000000  0.5138660000000  0.4990860000000 1.0
C      1  0.4555440000000  0.5100900000000  0.5557670000000 1.0
C      1  0.5190040000000  0.4558830000000  0.4778920000000 1.0
C      1  0.4449380000000  0.4870430000000  0.4850390000000 1.0
C      1  0.5391130000000  0.4986450000000  0.4569430000000 1.0
C      1  0.4576310000000  0.4751290000000  0.5463640000000 1.0
C      1  0.5056590000000  0.4565630000000  0.5092360000000 1.0
C      1  0.5323360000000  0.5079890000000  0.5400290000000 1.0
C      1  0.4642540000000  0.4709150000000  0.4735830000000 1.0
C      1  0.5453090000000  0.4859000000000  0.5014290000000 1.0
C      1  0.4682330000000  0.4473930000000  0.5420990000000 1.0
C      1  0.5410260000000  0.5223090000000  0.4732850000000 1.0
C      1  0.5035260000000  0.5573350000000  0.4491950000000 1.0
C      1  0.5236440000000  0.5465870000000  0.4743090000000 1.0
C      1  0.4214520000000  0.4772490000000  0.5037620000000 1.0
C      1  0.5369940000000  0.4961250000000  0.4034430000000 1.0
C      1  0.4901030000000  0.5420020000000  0.4733120000000 1.0
C      1  0.4498300000000  0.5259090000000  0.5343290000000 1.0
C      1  0.5383960000000  0.4759230000000  0.4753430000000 1.0
C      1  0.5332810000000  0.5658660000000  0.4966440000000 1.0
C      1  0.5234350000000  0.4782570000000  0.5238150000000 1.0
C      1  0.4882940000000  0.4405940000000  0.5287620000000 1.0
C      1  0.4406400000000  0.4885180000000  0.5242360000000 1.0
C      1  0.4817010000000  0.4937610000000  0.5579430000000 1.0
C      1  0.4708090000000  0.5324360000000  0.4876110000000 1.0
C      1  0.4560060000000  0.5120320000000  0.5049400000000 1.0
C      1  0.5416190000000  0.5551010000000  0.5207060000000 1.0
C      1  0.5435020000000  0.5271140000000  0.5231660000000 1.0
C      1  0.4886500000000  0.4618970000000  0.4805630000000 1.0
C      1  0.5393500000000  0.4972760000000  0.4295200000000 1.0
END
