TITL C-2847949-8115-27 0.000518339320935922 125000 -437.548384100513 0 0 79 (C1) n - 1
REM
REM in /home/bkarasulu/work/CARBON/AIRSS/Generating-Clusters/AIREBO/with-SteepDescent/Only-C1/SD-CG-opt/Try1-1.4A-POS3A/HFTN-CG
REM
REM
REM
REM
REM
REM ./C.cell (11c1c37f851c82e70ff6c80c92926a4b)
REM
REM compiler GCC version 9.2.1 20190827 (Red Hat 9.2.1-1)
REM options -cpp -mtune=generic -march=x86-64 -g -O0 -fpre-include=/usr/include/finclude/math-vector-fortran.h
REM seed 893525493 2136303024 -624080201 -810016086 -440656415 -1797529241 1047579551 -1909941069 236492085 246462358 -156239091 700434045 -622839714 1305744701 -793188930 256339523 -841815609 203479328 -822634386 -1102273059 -704998576 1622388495 -1768592303 1300062344 708880233 -1613554334 1641267316 807605580 325498437 -1005867995 104569528 256723407 -971105669
REM
CELL 1.54180   50.00000   50.00000   50.00000   90.00000   90.00000   90.00000
LATT -1
SFAC C  
C      1  0.5522870000000  0.5079710000000  0.4492010000000 1.0
C      1  0.5474890000000  0.4798980000000  0.4306130000000 1.0
C      1  0.5482980000000  0.4365550000000  0.4939840000000 1.0
C      1  0.5449070000000  0.4677770000000  0.5482920000000 1.0
C      1  0.5147200000000  0.4802440000000  0.5503510000000 1.0
C      1  0.5131000000000  0.5864180000000  0.5115910000000 1.0
C      1  0.5146640000000  0.5355540000000  0.4289910000000 1.0
C      1  0.4678520000000  0.4514710000000  0.5417430000000 1.0
C      1  0.4994190000000  0.4586200000000  0.4463780000000 1.0
C      1  0.4708490000000  0.4421270000000  0.4453310000000 1.0
C      1  0.5025040000000  0.4681560000000  0.4789160000000 1.0
C      1  0.5319330000000  0.4213210000000  0.4768360000000 1.0
C      1  0.4508820000000  0.5746200000000  0.4926460000000 1.0
C      1  0.5349770000000  0.5370920000000  0.5665540000000 1.0
C      1  0.5388810000000  0.4976730000000  0.5634570000000 1.0
C      1  0.4439280000000  0.5075860000000  0.4357530000000 1.0
C      1  0.5123480000000  0.5542680000000  0.4500460000000 1.0
C      1  0.4871130000000  0.5567970000000  0.4623170000000 1.0
C      1  0.4967630000000  0.4709730000000  0.5741510000000 1.0
C      1  0.5342090000000  0.5610410000000  0.5213210000000 1.0
C      1  0.4680870000000  0.5041240000000  0.5559180000000 1.0
C      1  0.5158940000000  0.5525980000000  0.5487360000000 1.0
C      1  0.4294630000000  0.5118580000000  0.4904360000000 1.0
C      1  0.4266470000000  0.5293820000000  0.5357010000000 1.0
C      1  0.4548600000000  0.5339590000000  0.5463590000000 1.0
C      1  0.5715890000000  0.5303870000000  0.4948000000000 1.0
C      1  0.5253950000000  0.5176970000000  0.5871260000000 1.0
C      1  0.4285140000000  0.5600460000000  0.4982540000000 1.0
C      1  0.4674490000000  0.5649450000000  0.5501900000000 1.0
C      1  0.4932200000000  0.4472560000000  0.5567830000000 1.0
C      1  0.4969230000000  0.5329530000000  0.5072650000000 1.0
C      1  0.5589800000000  0.5430190000000  0.5230670000000 1.0
C      1  0.5161110000000  0.4366280000000  0.5460130000000 1.0
C      1  0.5120110000000  0.5411640000000  0.4023880000000 1.0
C      1  0.4808430000000  0.5848680000000  0.5043390000000 1.0
C      1  0.4917840000000  0.4914630000000  0.4419370000000 1.0
C      1  0.4537470000000  0.4241050000000  0.5272710000000 1.0
C      1  0.5337930000000  0.5549530000000  0.4683890000000 1.0
C      1  0.4865470000000  0.5403770000000  0.5571680000000 1.0
C      1  0.4286570000000  0.4608080000000  0.4856910000000 1.0
C      1  0.5252990000000  0.3958220000000  0.4823850000000 1.0
C      1  0.5224500000000  0.4350980000000  0.4549160000000 1.0
C      1  0.4809570000000  0.5335080000000  0.4788080000000 1.0
C      1  0.5704670000000  0.4701350000000  0.5289980000000 1.0
C      1  0.5335220000000  0.5730350000000  0.4895140000000 1.0
C      1  0.4544180000000  0.4162090000000  0.4509670000000 1.0
C      1  0.5306740000000  0.4592340000000  0.4326910000000 1.0
C      1  0.5452730000000  0.5273460000000  0.4758130000000 1.0
C      1  0.4980990000000  0.4845590000000  0.5257940000000 1.0
C      1  0.4628830000000  0.4879940000000  0.4284640000000 1.0
C      1  0.4994400000000  0.5125200000000  0.5961560000000 1.0
C      1  0.5247850000000  0.4843760000000  0.4631560000000 1.0
C      1  0.4570270000000  0.4616410000000  0.4250240000000 1.0
C      1  0.4400680000000  0.5133450000000  0.4650120000000 1.0
C      1  0.5441430000000  0.4734030000000  0.5088550000000 1.0
C      1  0.4747140000000  0.5791510000000  0.4723560000000 1.0
C      1  0.4833500000000  0.4950510000000  0.5810160000000 1.0
C      1  0.4524650000000  0.4773460000000  0.5491120000000 1.0
C      1  0.5977490000000  0.5414030000000  0.4850790000000 1.0
C      1  0.4730760000000  0.5054550000000  0.4629410000000 1.0
C      1  0.5199130000000  0.5075970000000  0.4388010000000 1.0
C      1  0.5662010000000  0.4969540000000  0.4981220000000 1.0
C      1  0.4674590000000  0.4781320000000  0.5120490000000 1.0
C      1  0.4353580000000  0.4855620000000  0.5035120000000 1.0
C      1  0.4687320000000  0.5071420000000  0.4963390000000 1.0
C      1  0.5652020000000  0.4538460000000  0.4810570000000 1.0
C      1  0.5456480000000  0.5120510000000  0.5186910000000 1.0
C      1  0.5560240000000  0.4825350000000  0.4716220000000 1.0
C      1  0.4296620000000  0.4813440000000  0.5341520000000 1.0
C      1  0.5218990000000  0.5165080000000  0.4972440000000 1.0
C      1  0.5410200000000  0.4434770000000  0.5246940000000 1.0
C      1  0.4943930000000  0.5602980000000  0.5235440000000 1.0
C      1  0.5169460000000  0.4847280000000  0.5020780000000 1.0
C      1  0.5564150000000  0.5219130000000  0.5484500000000 1.0
C      1  0.4678420000000  0.4462810000000  0.5081390000000 1.0
C      1  0.4788250000000  0.4459210000000  0.4781690000000 1.0
C      1  0.4449540000000  0.4447230000000  0.4754240000000 1.0
C      1  0.4232930000000  0.5335710000000  0.5074150000000 1.0
C      1  0.4817180000000  0.5120340000000  0.5271390000000 1.0
END
