TITL C-2848494-1720-146 -760151.627565667 125000 -972.965756205774 0 0 185 (C1) n - 1
REM
REM in /home/bkarasulu/work/CARBON/AIRSS/Generating-Clusters/AIREBO/with-SteepDescent/Only-C1/SD-CG-opt/Try1-1.4A-POS3A/HFTN-CG
REM
REM
REM
REM
REM
REM ./C.cell (11c1c37f851c82e70ff6c80c92926a4b)
REM
REM compiler GCC version 9.2.1 20190827 (Red Hat 9.2.1-1)
REM options -cpp -mtune=generic -march=x86-64 -g -O0 -fpre-include=/usr/include/finclude/math-vector-fortran.h
REM seed 1222390397 1047125278 -1081805210 171227602 -671269062 -315626441 1322454588 -405596396 1119191798 -1421650336 654181587 221959764 -1839796270 -737676223 -47315734 846622709 1780309599 -249389235 341114715 -478225258 -1349415139 -351774864 1642835158 -1367903419 -1798794263 822404495 1002808168 1943016669 1978817459 1724348271 -1141546684 1545373527 -1138664946
REM
CELL 1.54180   50.00000   50.00000   50.00000   90.00000   90.00000   90.00000
LATT -1
SFAC C  
C      1  0.4777410000000  0.5261090000000  0.5589700000000 1.0
C      1  0.5049820000000  0.5016760000000  0.4375390000000 1.0
C      1  0.5374960000000  0.3960800000000  0.5442070000000 1.0
C      1  0.4393150000000  0.4770140000000  0.5078580000000 1.0
C      1  0.4215120000000  0.4259950000000  0.5362580000000 1.0
C      1  0.5770600000000  0.5643930000000  0.4624860000000 1.0
C      1  0.4886260000000  0.5022070000000  0.4088030000000 1.0
C      1  0.4900540000000  0.5716770000000  0.4202360000000 1.0
C      1  0.4404750000000  0.5434170000000  0.4611940000000 1.0
C      1  0.5228000000000  0.4598220000000  0.3957110000000 1.0
C      1  0.4819320000000  0.4739620000000  0.5567450000000 1.0
C      1  0.4688830000000  0.6161050000000  0.4788940000000 1.0
C      1  0.5013730000000  0.5503230000000  0.5554980000000 1.0
C      1  0.4578710000000  0.4590040000000  0.4857270000000 1.0
C      1  0.4530030000000  0.4531320000000  0.5382430000000 1.0
C      1  0.5779810000000  0.5299150000000  0.4237020000000 1.0
C      1  0.4348840000000  0.5167270000000  0.5081310000000 1.0
C      1  0.5558640000000  0.4590920000000  0.5727230000000 1.0
C      1  0.4551590000000  0.4966640000000  0.4076720000000 1.0
C      1  0.5366710000000  0.5232930000000  0.5095610000000 1.0
C      1  0.4977300000000  0.4838610000000  0.4627380000000 1.0
C      1  0.4716340000000  0.3852500000000  0.5021130000000 1.0
C      1  0.4127780000000  0.4605680000000  0.5542030000000 1.0
C      1  0.4094250000000  0.5500230000000  0.5296100000000 1.0
C      1  0.5658840000000  0.5827230000000  0.5079960000000 1.0
C      1  0.4438930000000  0.5294130000000  0.5586650000000 1.0
C      1  0.5859810000000  0.5102860000000  0.5666850000000 1.0
C      1  0.5855540000000  0.4308780000000  0.4683700000000 1.0
C      1  0.4213290000000  0.5207390000000  0.5390330000000 1.0
C      1  0.4966920000000  0.4748410000000  0.3908840000000 1.0
C      1  0.4855490000000  0.4338670000000  0.4358720000000 1.0
C      1  0.4615590000000  0.5540380000000  0.4846280000000 1.0
C      1  0.5255790000000  0.4122620000000  0.5073310000000 1.0
C      1  0.4961920000000  0.3998620000000  0.5158200000000 1.0
C      1  0.5033670000000  0.4943000000000  0.6438320000000 1.0
C      1  0.5733810000000  0.5414280000000  0.5694430000000 1.0
C      1  0.4489510000000  0.5431340000000  0.5208420000000 1.0
C      1  0.5495270000000  0.4939020000000  0.4678810000000 1.0
C      1  0.4122520000000  0.5000690000000  0.4664860000000 1.0
C      1  0.5137130000000  0.4744820000000  0.5595440000000 1.0
C      1  0.4609040000000  0.4859060000000  0.5328390000000 1.0
C      1  0.4505280000000  0.5909710000000  0.5283570000000 1.0
C      1  0.4333210000000  0.5634400000000  0.5004530000000 1.0
C      1  0.5408560000000  0.4706390000000  0.5121270000000 1.0
C      1  0.4532360000000  0.4721930000000  0.4547290000000 1.0
C      1  0.4750190000000  0.4840160000000  0.5865670000000 1.0
C      1  0.4212730000000  0.4936920000000  0.4043810000000 1.0
C      1  0.4073180000000  0.4493120000000  0.5225810000000 1.0
C      1  0.4617470000000  0.5871390000000  0.4623970000000 1.0
C      1  0.5216530000000  0.6070540000000  0.4761470000000 1.0
C      1  0.4734990000000  0.4045820000000  0.5513640000000 1.0
C      1  0.5523810000000  0.4507360000000  0.4921190000000 1.0
C      1  0.4703780000000  0.4589090000000  0.4313210000000 1.0
C      1  0.4461420000000  0.4751670000000  0.5905970000000 1.0
C      1  0.3918820000000  0.5019100000000  0.4908390000000 1.0
C      1  0.4307180000000  0.5856040000000  0.4542470000000 1.0
C      1  0.5260730000000  0.4086720000000  0.4482280000000 1.0
C      1  0.5850830000000  0.4760750000000  0.5686580000000 1.0
C      1  0.4579670000000  0.4137990000000  0.5024790000000 1.0
C      1  0.4845990000000  0.4423070000000  0.5446210000000 1.0
C      1  0.4953270000000  0.5889290000000  0.4678800000000 1.0
C      1  0.5577570000000  0.4646340000000  0.4669120000000 1.0
C      1  0.4285390000000  0.5236260000000  0.4196540000000 1.0
C      1  0.5498340000000  0.4058600000000  0.4843620000000 1.0
C      1  0.4784860000000  0.5627450000000  0.5775450000000 1.0
C      1  0.4039360000000  0.4673370000000  0.4623620000000 1.0
C      1  0.5362360000000  0.5210080000000  0.6136750000000 1.0
C      1  0.5962400000000  0.5051010000000  0.4948140000000 1.0
C      1  0.4270040000000  0.5024190000000  0.5880690000000 1.0
C      1  0.5607880000000  0.4117540000000  0.5277670000000 1.0
C      1  0.4111190000000  0.5582570000000  0.4597610000000 1.0
C      1  0.5680720000000  0.5433840000000  0.4817380000000 1.0
C      1  0.5597300000000  0.5250520000000  0.4027690000000 1.0
C      1  0.5973440000000  0.5561680000000  0.5366530000000 1.0
C      1  0.5910700000000  0.4620000000000  0.4606020000000 1.0
C      1  0.5339220000000  0.5073900000000  0.3952250000000 1.0
C      1  0.5730280000000  0.5549330000000  0.4358590000000 1.0
C      1  0.6056810000000  0.4909930000000  0.4653470000000 1.0
C      1  0.4295260000000  0.4482220000000  0.4498900000000 1.0
C      1  0.4862920000000  0.5332710000000  0.4841280000000 1.0
C      1  0.5541900000000  0.4714120000000  0.4017460000000 1.0
C      1  0.5204240000000  0.5965790000000  0.5476090000000 1.0
C      1  0.5707590000000  0.5707380000000  0.5523360000000 1.0
C      1  0.3899910000000  0.4952850000000  0.5227010000000 1.0
C      1  0.5392950000000  0.4748280000000  0.5955060000000 1.0
C      1  0.4723930000000  0.5967010000000  0.5134520000000 1.0
C      1  0.4767210000000  0.4895580000000  0.5029380000000 1.0
C      1  0.5569190000000  0.4706770000000  0.5409630000000 1.0
C      1  0.4692460000000  0.4681330000000  0.4048300000000 1.0
C      1  0.5970840000000  0.5267500000000  0.5184710000000 1.0
C      1  0.4147360000000  0.5260760000000  0.4490410000000 1.0
C      1  0.5002020000000  0.5860350000000  0.5729760000000 1.0
C      1  0.4638690000000  0.4301920000000  0.5686980000000 1.0
C      1  0.5246520000000  0.3891380000000  0.5970390000000 1.0
C      1  0.5434230000000  0.5764150000000  0.5327500000000 1.0
C      1  0.4046390000000  0.5537420000000  0.4903150000000 1.0
C      1  0.3925290000000  0.5080150000000  0.5518760000000 1.0
C      1  0.4317150000000  0.5346470000000  0.5894200000000 1.0
C      1  0.5354280000000  0.5029750000000  0.5772900000000 1.0
C      1  0.5605470000000  0.4461120000000  0.4321060000000 1.0
C      1  0.5181510000000  0.6156790000000  0.5231280000000 1.0
C      1  0.4685390000000  0.4978650000000  0.4709660000000 1.0
C      1  0.5096660000000  0.4608430000000  0.5075960000000 1.0
C      1  0.5978210000000  0.4756500000000  0.5232930000000 1.0
C      1  0.4758070000000  0.5606050000000  0.4479190000000 1.0
C      1  0.5393320000000  0.4311620000000  0.5719900000000 1.0
C      1  0.4226660000000  0.5885120000000  0.4832410000000 1.0
C      1  0.5110990000000  0.5447030000000  0.4263580000000 1.0
C      1  0.5401000000000  0.5926160000000  0.4302530000000 1.0
C      1  0.5077610000000  0.5222040000000  0.4647340000000 1.0
C      1  0.4428600000000  0.4194530000000  0.4567470000000 1.0
C      1  0.4392600000000  0.4510150000000  0.5693540000000 1.0
C      1  0.5388500000000  0.5359040000000  0.4439400000000 1.0
C      1  0.5011680000000  0.4067380000000  0.4605360000000 1.0
C      1  0.4209230000000  0.4864840000000  0.5337410000000 1.0
C      1  0.5024850000000  0.4536300000000  0.4556530000000 1.0
C      1  0.5343150000000  0.5462120000000  0.5629070000000 1.0
C      1  0.5933700000000  0.4636940000000  0.4917760000000 1.0
C      1  0.5308660000000  0.5758510000000  0.5707120000000 1.0
C      1  0.5088680000000  0.4946240000000  0.5103640000000 1.0
C      1  0.5982370000000  0.4421010000000  0.5162420000000 1.0
C      1  0.4519160000000  0.5578490000000  0.3914070000000 1.0
C      1  0.4172810000000  0.4745540000000  0.4322060000000 1.0
C      1  0.4373470000000  0.4992810000000  0.4839840000000 1.0
C      1  0.4121420000000  0.4483620000000  0.4893740000000 1.0
C      1  0.5361380000000  0.5355900000000  0.4778470000000 1.0
C      1  0.5225800000000  0.4976690000000  0.4804950000000 1.0
C      1  0.5325580000000  0.4610760000000  0.4443120000000 1.0
C      1  0.5078370000000  0.5611080000000  0.4559640000000 1.0
C      1  0.4535910000000  0.4208470000000  0.5312830000000 1.0
C      1  0.5720060000000  0.4267930000000  0.4994050000000 1.0
C      1  0.5472630000000  0.3858480000000  0.5103090000000 1.0
C      1  0.5456480000000  0.5649740000000  0.4276370000000 1.0
C      1  0.5534930000000  0.4258340000000  0.4587270000000 1.0
C      1  0.3930160000000  0.5316110000000  0.5062080000000 1.0
C      1  0.5076720000000  0.5133270000000  0.5683140000000 1.0
C      1  0.5045930000000  0.4019850000000  0.5475100000000 1.0
C      1  0.4696500000000  0.4123100000000  0.4510580000000 1.0
C      1  0.5726020000000  0.5499640000000  0.5141510000000 1.0
C      1  0.5233660000000  0.4476100000000  0.5524680000000 1.0
C      1  0.4898300000000  0.4503830000000  0.4859340000000 1.0
C      1  0.4952130000000  0.4233550000000  0.4088750000000 1.0
C      1  0.5727060000000  0.4411620000000  0.5365990000000 1.0
C      1  0.5672440000000  0.4800550000000  0.4314280000000 1.0
C      1  0.4027620000000  0.4877120000000  0.5711310000000 1.0
C      1  0.4873230000000  0.5722340000000  0.4964070000000 1.0
C      1  0.5112750000000  0.5025930000000  0.6158740000000 1.0
C      1  0.4396980000000  0.4330820000000  0.4853960000000 1.0
C      1  0.5694230000000  0.5919040000000  0.4667660000000 1.0
C      1  0.5870730000000  0.5056650000000  0.4418520000000 1.0
C      1  0.3887170000000  0.4696720000000  0.5026880000000 1.0
C      1  0.5260700000000  0.5504300000000  0.5241180000000 1.0
C      1  0.5706890000000  0.4842830000000  0.5031770000000 1.0
C      1  0.5517150000000  0.5032240000000  0.5325470000000 1.0
C      1  0.5580820000000  0.5349750000000  0.5410170000000 1.0
C      1  0.4478020000000  0.5594540000000  0.5720870000000 1.0
C      1  0.5203720000000  0.4982000000000  0.5406340000000 1.0
C      1  0.4529940000000  0.5398510000000  0.4103630000000 1.0
C      1  0.5204210000000  0.4313990000000  0.4032180000000 1.0
C      1  0.4968630000000  0.6146470000000  0.4981580000000 1.0
C      1  0.4804540000000  0.5410650000000  0.6008810000000 1.0
C      1  0.5447820000000  0.6031060000000  0.4563900000000 1.0
C      1  0.4932470000000  0.5247950000000  0.5116740000000 1.0
C      1  0.5194260000000  0.5635050000000  0.4870460000000 1.0
C      1  0.4694310000000  0.5279740000000  0.4551250000000 1.0
C      1  0.4411870000000  0.4898340000000  0.5602640000000 1.0
C      1  0.5318860000000  0.5902890000000  0.5039020000000 1.0
C      1  0.4404300000000  0.4977270000000  0.4375210000000 1.0
C      1  0.5288710000000  0.5383090000000  0.3999220000000 1.0
C      1  0.5379520000000  0.4234180000000  0.4227500000000 1.0
C      1  0.5069680000000  0.4791890000000  0.5915870000000 1.0
C      1  0.4685320000000  0.5188560000000  0.5292640000000 1.0
C      1  0.4888850000000  0.4184380000000  0.4882870000000 1.0
C      1  0.5856030000000  0.5024980000000  0.5353720000000 1.0
C      1  0.5742060000000  0.5136800000000  0.4726390000000 1.0
C      1  0.5491850000000  0.5306900000000  0.5888480000000 1.0
C      1  0.5292570000000  0.4850880000000  0.4204580000000 1.0
C      1  0.5101940000000  0.4357120000000  0.5265940000000 1.0
C      1  0.5477210000000  0.5069820000000  0.4385260000000 1.0
C      1  0.5660120000000  0.4944400000000  0.5885700000000 1.0
C      1  0.4882730000000  0.5140750000000  0.5955340000000 1.0
C      1  0.4955190000000  0.5542290000000  0.5238920000000 1.0
C      1  0.4807620000000  0.5296750000000  0.4231010000000 1.0
C      1  0.4374060000000  0.5653550000000  0.5416910000000 1.0
C      1  0.5267800000000  0.4029030000000  0.5735230000000 1.0
END
