TITL C-2848507-1641-418 0.00162785947257254 125000 -617.664081862662 0 0 121 (C1) n - 1
REM
REM in /home/bkarasulu/work/CARBON/AIRSS/Generating-Clusters/AIREBO/with-SteepDescent/Only-C1/SD-CG-opt/Try1-1.4A-POS3A/HFTN-CG
REM
REM
REM
REM
REM
REM ./C.cell (11c1c37f851c82e70ff6c80c92926a4b)
REM
REM compiler GCC version 9.2.1 20190827 (Red Hat 9.2.1-1)
REM options -cpp -mtune=generic -march=x86-64 -g -O0 -fpre-include=/usr/include/finclude/math-vector-fortran.h
REM seed 1261322610 -2013653341 1519230920 7822776 -2064967587 -340689308 -1916215196 788400484 -193566386 1693746548 1528992010 -1375356544 134729431 326133344 592392305 -942872960 -1982781179 830505 -883627574 1118423684 448560048 -774956480 690639591 2091257467 -1575662660 766628088 -853744142 994316115 1833780283 735597902 -1704754489 796256911 -244592109
REM
CELL 1.54180   50.00000   50.00000   50.00000   90.00000   90.00000   90.00000
LATT -1
SFAC C  
C      1  0.5229060000000  0.4490570000000  0.5775450000000 1.0
C      1  0.4786110000000  0.4855880000000  0.5758330000000 1.0
C      1  0.4155170000000  0.5076560000000  0.5510830000000 1.0
C      1  0.5984310000000  0.4816930000000  0.5264310000000 1.0
C      1  0.5596750000000  0.5572030000000  0.4912880000000 1.0
C      1  0.5431790000000  0.4209450000000  0.4595390000000 1.0
C      1  0.5935050000000  0.5332700000000  0.5196450000000 1.0
C      1  0.5501490000000  0.5626230000000  0.4648180000000 1.0
C      1  0.4912580000000  0.4788650000000  0.4798320000000 1.0
C      1  0.4268490000000  0.4994760000000  0.4386350000000 1.0
C      1  0.4775800000000  0.5024560000000  0.4416820000000 1.0
C      1  0.4711510000000  0.5634610000000  0.5331370000000 1.0
C      1  0.4292200000000  0.4792690000000  0.5538260000000 1.0
C      1  0.5268870000000  0.5065200000000  0.5860170000000 1.0
C      1  0.5611370000000  0.4443030000000  0.5387910000000 1.0
C      1  0.5420860000000  0.5029050000000  0.4084150000000 1.0
C      1  0.5060620000000  0.5757920000000  0.4430330000000 1.0
C      1  0.4416610000000  0.5232670000000  0.4773050000000 1.0
C      1  0.4924640000000  0.5227890000000  0.4826920000000 1.0
C      1  0.4516940000000  0.5706660000000  0.4596570000000 1.0
C      1  0.4864410000000  0.4378220000000  0.5142760000000 1.0
C      1  0.4747800000000  0.4556880000000  0.4626960000000 1.0
C      1  0.5216840000000  0.4499440000000  0.4068950000000 1.0
C      1  0.5911220000000  0.4970300000000  0.5494830000000 1.0
C      1  0.5182840000000  0.4816890000000  0.5240010000000 1.0
C      1  0.5172480000000  0.4306790000000  0.4421870000000 1.0
C      1  0.5076620000000  0.5020320000000  0.4088300000000 1.0
C      1  0.5475070000000  0.4684250000000  0.4078560000000 1.0
C      1  0.4079320000000  0.5140970000000  0.5123680000000 1.0
C      1  0.5569910000000  0.5151580000000  0.4364820000000 1.0
C      1  0.5234670000000  0.5420370000000  0.4988530000000 1.0
C      1  0.5103010000000  0.5009380000000  0.4508020000000 1.0
C      1  0.4464430000000  0.5764920000000  0.5130880000000 1.0
C      1  0.5943510000000  0.4967630000000  0.4987870000000 1.0
C      1  0.5180140000000  0.4559870000000  0.5459890000000 1.0
C      1  0.4602790000000  0.4252680000000  0.4672890000000 1.0
C      1  0.5507530000000  0.4825890000000  0.5340870000000 1.0
C      1  0.5380970000000  0.4295270000000  0.5239420000000 1.0
C      1  0.4408290000000  0.4761640000000  0.4580620000000 1.0
C      1  0.4828380000000  0.5343740000000  0.4521680000000 1.0
C      1  0.4602960000000  0.4677510000000  0.5461760000000 1.0
C      1  0.5801950000000  0.4575460000000  0.5217670000000 1.0
C      1  0.5256420000000  0.4823010000000  0.4299000000000 1.0
C      1  0.5542890000000  0.5121330000000  0.5761370000000 1.0
C      1  0.5521060000000  0.5467110000000  0.4390530000000 1.0
C      1  0.4566580000000  0.5671200000000  0.5636080000000 1.0
C      1  0.5327840000000  0.4573590000000  0.5051480000000 1.0
C      1  0.4276860000000  0.4607860000000  0.5252530000000 1.0
C      1  0.5229600000000  0.5272570000000  0.4682290000000 1.0
C      1  0.5478280000000  0.5712650000000  0.5163550000000 1.0
C      1  0.4588700000000  0.4228490000000  0.5011750000000 1.0
C      1  0.4586740000000  0.4664340000000  0.5124010000000 1.0
C      1  0.4927120000000  0.4433090000000  0.4234330000000 1.0
C      1  0.4979440000000  0.5270680000000  0.4232480000000 1.0
C      1  0.5168980000000  0.5344640000000  0.5594670000000 1.0
C      1  0.5889300000000  0.5251610000000  0.5458170000000 1.0
C      1  0.5893110000000  0.5106020000000  0.4724440000000 1.0
C      1  0.5019940000000  0.5927420000000  0.5068130000000 1.0
C      1  0.5483690000000  0.4834540000000  0.4626960000000 1.0
C      1  0.4240790000000  0.5368680000000  0.5408220000000 1.0
C      1  0.4446420000000  0.5828880000000  0.4849360000000 1.0
C      1  0.4908620000000  0.4686920000000  0.5086160000000 1.0
C      1  0.5358380000000  0.5583830000000  0.5600630000000 1.0
C      1  0.5018160000000  0.5279800000000  0.5874100000000 1.0
C      1  0.4855970000000  0.4831820000000  0.4028930000000 1.0
C      1  0.4096950000000  0.5307560000000  0.4861860000000 1.0
C      1  0.5708780000000  0.4656130000000  0.4903680000000 1.0
C      1  0.4453230000000  0.4329830000000  0.5291580000000 1.0
C      1  0.5533380000000  0.4562940000000  0.5641020000000 1.0
C      1  0.4921520000000  0.5144330000000  0.5162090000000 1.0
C      1  0.4487340000000  0.4594660000000  0.4842480000000 1.0
C      1  0.5602290000000  0.5359440000000  0.5551630000000 1.0
C      1  0.4034810000000  0.5071600000000  0.4621460000000 1.0
C      1  0.4298800000000  0.5590300000000  0.5629750000000 1.0
C      1  0.5154770000000  0.4850810000000  0.5633510000000 1.0
C      1  0.5197770000000  0.4272190000000  0.4953920000000 1.0
C      1  0.4300970000000  0.4935910000000  0.5166440000000 1.0
C      1  0.4256130000000  0.5498340000000  0.5094260000000 1.0
C      1  0.4567050000000  0.5414640000000  0.4982460000000 1.0
C      1  0.4573790000000  0.5007590000000  0.5357040000000 1.0
C      1  0.4644910000000  0.4371010000000  0.5568110000000 1.0
C      1  0.4901200000000  0.4172970000000  0.5563740000000 1.0
C      1  0.4995000000000  0.5825080000000  0.5323270000000 1.0
C      1  0.4894930000000  0.4125660000000  0.4912750000000 1.0
C      1  0.4158700000000  0.4550260000000  0.4808820000000 1.0
C      1  0.4803500000000  0.5746720000000  0.4535120000000 1.0
C      1  0.5568620000000  0.5216900000000  0.4695600000000 1.0
C      1  0.5821960000000  0.4801940000000  0.4626950000000 1.0
C      1  0.4814600000000  0.5549370000000  0.4811850000000 1.0
C      1  0.5098420000000  0.5693120000000  0.4892450000000 1.0
C      1  0.5639410000000  0.4927190000000  0.5097060000000 1.0
C      1  0.4684100000000  0.5217370000000  0.5863390000000 1.0
C      1  0.4711490000000  0.4231580000000  0.4397080000000 1.0
C      1  0.4441000000000  0.5442000000000  0.4521680000000 1.0
C      1  0.5495690000000  0.4465770000000  0.4776040000000 1.0
C      1  0.5648160000000  0.4865260000000  0.5629330000000 1.0
C      1  0.5322710000000  0.4577770000000  0.4504210000000 1.0
C      1  0.4893550000000  0.4533950000000  0.5734850000000 1.0
C      1  0.4402220000000  0.4710180000000  0.4252490000000 1.0
C      1  0.4262840000000  0.4935540000000  0.4834010000000 1.0
C      1  0.4896270000000  0.4999690000000  0.5470030000000 1.0
C      1  0.4492440000000  0.5199900000000  0.4348440000000 1.0
C      1  0.5230970000000  0.5083370000000  0.5034240000000 1.0
C      1  0.4504720000000  0.5010480000000  0.5690020000000 1.0
C      1  0.5002930000000  0.4339140000000  0.4683110000000 1.0
C      1  0.3966810000000  0.4774130000000  0.4789380000000 1.0
C      1  0.5653820000000  0.4823680000000  0.4332210000000 1.0
C      1  0.5189700000000  0.5465080000000  0.4404740000000 1.0
C      1  0.4938640000000  0.5385330000000  0.5380060000000 1.0
C      1  0.5212910000000  0.4888220000000  0.4784110000000 1.0
C      1  0.4797450000000  0.5461040000000  0.5680060000000 1.0
C      1  0.4553490000000  0.5335200000000  0.5297360000000 1.0
C      1  0.4674910000000  0.5013970000000  0.4740450000000 1.0
C      1  0.5260420000000  0.5126140000000  0.5370280000000 1.0
C      1  0.5669150000000  0.5256830000000  0.5018030000000 1.0
C      1  0.5451660000000  0.5382090000000  0.5247510000000 1.0
C      1  0.5053830000000  0.4828100000000  0.5957480000000 1.0
C      1  0.4735600000000  0.4701190000000  0.4318940000000 1.0
C      1  0.5279600000000  0.5757620000000  0.5393970000000 1.0
C      1  0.5064310000000  0.4292910000000  0.5354580000000 1.0
C      1  0.5259510000000  0.5771860000000  0.4650950000000 1.0
END
