TITL C-2847948-6138-283 0.00178033609298976 125000 -795.198187874872 0 0 149 (C1) n - 1
REM
REM in /home/bkarasulu/work/CARBON/AIRSS/Generating-Clusters/AIREBO/with-SteepDescent/Only-C1/SD-CG-opt/Try1-1.4A-POS3A/HFTN-CG
REM
REM
REM
REM
REM
REM ./C.cell (11c1c37f851c82e70ff6c80c92926a4b)
REM
REM compiler GCC version 9.2.1 20190827 (Red Hat 9.2.1-1)
REM options -cpp -mtune=generic -march=x86-64 -g -O0 -fpre-include=/usr/include/finclude/math-vector-fortran.h
REM seed -1131654562 877902938 997847388 1739683726 623520845 -1016442230 -1376588932 -46482580 -1894822704 -1941787872 -705756808 -1177826730 1179716776 1978690893 -547407791 1797197580 729669385 212355256 1953962654 1975103936 1825160041 -970451158 886793210 1098735403 444889233 -178594620 1995289717 -461157952 -862054975 -317061189 2050155459 1875283488 1358503820
REM
CELL 1.54180   50.00000   50.00000   50.00000   90.00000   90.00000   90.00000
LATT -1
SFAC C  
C      1  0.4851270000000  0.5921010000000  0.4791640000000 1.0
C      1  0.5103030000000  0.5501710000000  0.5635080000000 1.0
C      1  0.5431540000000  0.5285850000000  0.4058010000000 1.0
C      1  0.5642520000000  0.4201790000000  0.4669730000000 1.0
C      1  0.4750430000000  0.4913320000000  0.5260170000000 1.0
C      1  0.4825850000000  0.5047440000000  0.4816030000000 1.0
C      1  0.5730250000000  0.4859690000000  0.5707750000000 1.0
C      1  0.5842470000000  0.4660800000000  0.5240540000000 1.0
C      1  0.4924390000000  0.5078770000000  0.5083500000000 1.0
C      1  0.4896310000000  0.4154260000000  0.4940460000000 1.0
C      1  0.4927140000000  0.5659770000000  0.5083590000000 1.0
C      1  0.5313750000000  0.5815190000000  0.4659060000000 1.0
C      1  0.4742220000000  0.5342050000000  0.5467900000000 1.0
C      1  0.5608990000000  0.4730510000000  0.5451780000000 1.0
C      1  0.4787470000000  0.3967550000000  0.5203190000000 1.0
C      1  0.4564970000000  0.5869270000000  0.5460190000000 1.0
C      1  0.4481070000000  0.4999850000000  0.4247410000000 1.0
C      1  0.4542450000000  0.4482390000000  0.5380740000000 1.0
C      1  0.5057380000000  0.5237550000000  0.5845300000000 1.0
C      1  0.5412070000000  0.4562190000000  0.4459670000000 1.0
C      1  0.5178920000000  0.5449900000000  0.4216080000000 1.0
C      1  0.5124330000000  0.4636990000000  0.5077750000000 1.0
C      1  0.5603930000000  0.5392440000000  0.4526620000000 1.0
C      1  0.4846670000000  0.4070380000000  0.4501830000000 1.0
C      1  0.5638520000000  0.5155320000000  0.4768080000000 1.0
C      1  0.4197130000000  0.4783680000000  0.5558540000000 1.0
C      1  0.5806830000000  0.5622160000000  0.4631690000000 1.0
C      1  0.5962860000000  0.5298160000000  0.4378720000000 1.0
C      1  0.5369990000000  0.4804430000000  0.5239900000000 1.0
C      1  0.4416040000000  0.5328810000000  0.5870140000000 1.0
C      1  0.5226950000000  0.4468750000000  0.4850640000000 1.0
C      1  0.5066220000000  0.4588270000000  0.5379330000000 1.0
C      1  0.5043870000000  0.4374600000000  0.4333230000000 1.0
C      1  0.5638380000000  0.5723780000000  0.5062370000000 1.0
C      1  0.5505980000000  0.5255770000000  0.5310420000000 1.0
C      1  0.5214980000000  0.4886820000000  0.4348480000000 1.0
C      1  0.5956120000000  0.5311750000000  0.4950920000000 1.0
C      1  0.5135650000000  0.5274280000000  0.5163940000000 1.0
C      1  0.5361690000000  0.5010920000000  0.5698890000000 1.0
C      1  0.3990100000000  0.5190370000000  0.4794380000000 1.0
C      1  0.4288850000000  0.5661800000000  0.4630910000000 1.0
C      1  0.5417790000000  0.5133900000000  0.4425790000000 1.0
C      1  0.4685080000000  0.4396690000000  0.4913710000000 1.0
C      1  0.4716490000000  0.4365580000000  0.4424640000000 1.0
C      1  0.5382690000000  0.4419290000000  0.5552450000000 1.0
C      1  0.4896610000000  0.5859490000000  0.5568850000000 1.0
C      1  0.5036800000000  0.5566900000000  0.4798520000000 1.0
C      1  0.5435580000000  0.4267560000000  0.5246560000000 1.0
C      1  0.4406750000000  0.4291780000000  0.4959300000000 1.0
C      1  0.4303710000000  0.5117330000000  0.4685010000000 1.0
C      1  0.4572430000000  0.5634220000000  0.4462300000000 1.0
C      1  0.4499580000000  0.5516730000000  0.5634020000000 1.0
C      1  0.5422850000000  0.5608220000000  0.5590010000000 1.0
C      1  0.4785230000000  0.4639030000000  0.5104550000000 1.0
C      1  0.5965550000000  0.4768230000000  0.4958950000000 1.0
C      1  0.4434430000000  0.4815150000000  0.4598120000000 1.0
C      1  0.5079730000000  0.4667730000000  0.5967150000000 1.0
C      1  0.4917880000000  0.5638350000000  0.4260700000000 1.0
C      1  0.4877410000000  0.4793900000000  0.4645240000000 1.0
C      1  0.4159940000000  0.4604870000000  0.4968870000000 1.0
C      1  0.4712400000000  0.4097730000000  0.5438400000000 1.0
C      1  0.4323780000000  0.5645970000000  0.5373210000000 1.0
C      1  0.5095140000000  0.4027350000000  0.5186420000000 1.0
C      1  0.4739410000000  0.5274830000000  0.5960290000000 1.0
C      1  0.4772600000000  0.5631110000000  0.5367760000000 1.0
C      1  0.4168360000000  0.5079780000000  0.5058800000000 1.0
C      1  0.4638110000000  0.5792740000000  0.5779870000000 1.0
C      1  0.5161400000000  0.4674430000000  0.4603260000000 1.0
C      1  0.4543690000000  0.5356720000000  0.4656940000000 1.0
C      1  0.4863330000000  0.5314870000000  0.4653370000000 1.0
C      1  0.4326010000000  0.5773930000000  0.4883880000000 1.0
C      1  0.4036640000000  0.4862000000000  0.4831130000000 1.0
C      1  0.4974010000000  0.4223810000000  0.5710120000000 1.0
C      1  0.5488600000000  0.5361600000000  0.4997410000000 1.0
C      1  0.4668160000000  0.5512720000000  0.4155770000000 1.0
C      1  0.5759380000000  0.5127850000000  0.5664510000000 1.0
C      1  0.4866460000000  0.4395790000000  0.5437220000000 1.0
C      1  0.5345370000000  0.5630080000000  0.4927890000000 1.0
C      1  0.4725430000000  0.5212220000000  0.4143310000000 1.0
C      1  0.5878870000000  0.5159100000000  0.5414570000000 1.0
C      1  0.5236250000000  0.5070090000000  0.5402610000000 1.0
C      1  0.5714420000000  0.5331900000000  0.4210800000000 1.0
C      1  0.5152430000000  0.5168660000000  0.4620840000000 1.0
C      1  0.5848500000000  0.5617290000000  0.4903540000000 1.0
C      1  0.5150460000000  0.5889310000000  0.5198050000000 1.0
C      1  0.5350750000000  0.4357160000000  0.4229570000000 1.0
C      1  0.4525380000000  0.5442580000000  0.4985960000000 1.0
C      1  0.4938720000000  0.5082530000000  0.5567300000000 1.0
C      1  0.5260360000000  0.5158300000000  0.4886350000000 1.0
C      1  0.4169740000000  0.5787330000000  0.5111800000000 1.0
C      1  0.5088870000000  0.4392130000000  0.5960120000000 1.0
C      1  0.5020290000000  0.5162450000000  0.4305430000000 1.0
C      1  0.4845330000000  0.5560350000000  0.5828810000000 1.0
C      1  0.4536650000000  0.5025050000000  0.5847790000000 1.0
C      1  0.5852510000000  0.4902950000000  0.4689180000000 1.0
C      1  0.4625180000000  0.5767530000000  0.4970380000000 1.0
C      1  0.5787380000000  0.4660130000000  0.4121060000000 1.0
C      1  0.4178980000000  0.5233220000000  0.5426950000000 1.0
C      1  0.5690020000000  0.4409590000000  0.5407350000000 1.0
C      1  0.4870210000000  0.5730830000000  0.4549090000000 1.0
C      1  0.4630390000000  0.4593860000000  0.5689930000000 1.0
C      1  0.4417170000000  0.5289200000000  0.4348560000000 1.0
C      1  0.4235810000000  0.4778430000000  0.4324510000000 1.0
C      1  0.4150950000000  0.5416700000000  0.4624020000000 1.0
C      1  0.4017120000000  0.4589190000000  0.5475070000000 1.0
C      1  0.5807790000000  0.4306770000000  0.5014240000000 1.0
C      1  0.5355790000000  0.5600780000000  0.4456690000000 1.0
C      1  0.5197580000000  0.4155750000000  0.5462970000000 1.0
C      1  0.4883580000000  0.4631060000000  0.4177390000000 1.0
C      1  0.4449550000000  0.4689670000000  0.5127440000000 1.0
C      1  0.5769660000000  0.4349280000000  0.4483270000000 1.0
C      1  0.5724430000000  0.4696380000000  0.4453380000000 1.0
C      1  0.4548890000000  0.4667270000000  0.4226940000000 1.0
C      1  0.4379010000000  0.4756470000000  0.5782460000000 1.0
C      1  0.4663890000000  0.4569340000000  0.4657830000000 1.0
C      1  0.5243350000000  0.4899600000000  0.5991780000000 1.0
C      1  0.5036200000000  0.4285430000000  0.4662150000000 1.0
C      1  0.4575520000000  0.5202600000000  0.5223420000000 1.0
C      1  0.4231530000000  0.4398180000000  0.4707960000000 1.0
C      1  0.5591620000000  0.4916460000000  0.4230570000000 1.0
C      1  0.5802290000000  0.5406600000000  0.5239070000000 1.0
C      1  0.4564220000000  0.4887010000000  0.4875360000000 1.0
C      1  0.5499820000000  0.5317500000000  0.5750340000000 1.0
C      1  0.5115500000000  0.5949860000000  0.4882980000000 1.0
C      1  0.5826440000000  0.5035090000000  0.5100380000000 1.0
C      1  0.4356980000000  0.4958350000000  0.5314410000000 1.0
C      1  0.5240390000000  0.4707470000000  0.5604960000000 1.0
C      1  0.4087980000000  0.4295960000000  0.5345980000000 1.0
C      1  0.4616420000000  0.4975120000000  0.5549660000000 1.0
C      1  0.6006490000000  0.5200810000000  0.4632550000000 1.0
C      1  0.5271030000000  0.5546970000000  0.3903390000000 1.0
C      1  0.4920920000000  0.4770930000000  0.5702980000000 1.0
C      1  0.4390810000000  0.4422230000000  0.4408410000000 1.0
C      1  0.5503600000000  0.4967650000000  0.5017530000000 1.0
C      1  0.4071470000000  0.4658270000000  0.4583260000000 1.0
C      1  0.5662940000000  0.4391920000000  0.4201910000000 1.0
C      1  0.4350780000000  0.4284740000000  0.5235940000000 1.0
C      1  0.4827360000000  0.4888600000000  0.4364090000000 1.0
C      1  0.5211650000000  0.5866220000000  0.5521100000000 1.0
C      1  0.5476540000000  0.4306530000000  0.4936900000000 1.0
C      1  0.6009150000000  0.4445970000000  0.4951160000000 1.0
C      1  0.4238030000000  0.5398040000000  0.5156390000000 1.0
C      1  0.5325440000000  0.5219770000000  0.6028580000000 1.0
C      1  0.4632670000000  0.4254960000000  0.5718000000000 1.0
C      1  0.5318350000000  0.4976480000000  0.4037230000000 1.0
C      1  0.5639400000000  0.5660000000000  0.5365010000000 1.0
C      1  0.5084620000000  0.4771770000000  0.3989050000000 1.0
C      1  0.5154210000000  0.5537820000000  0.5305410000000 1.0
C      1  0.3948960000000  0.4515700000000  0.5170940000000 1.0
END
