TITL C-2848500-1637-549 0.000742099529716454 125000 -172.28275158262 0 0 32 (C1) n - 1
REM
REM in /home/bkarasulu/work/CARBON/AIRSS/Generating-Clusters/AIREBO/with-SteepDescent/Only-C1/SD-CG-opt/Try1-1.4A-POS3A/HFTN-CG
REM
REM
REM
REM
REM
REM ./C.cell (11c1c37f851c82e70ff6c80c92926a4b)
REM
REM compiler GCC version 9.2.1 20190827 (Red Hat 9.2.1-1)
REM options -cpp -mtune=generic -march=x86-64 -g -O0 -fpre-include=/usr/include/finclude/math-vector-fortran.h
REM seed -1825932554 -791051359 -1468907281 380552497 -1992744065 -1683066643 -952313998 218458742 -2107524224 -1556383101 -1283219196 -1311757313 -1864626621 -1429914736 166162527 -249345566 -1239910908 979366945 -188749328 -1253051687 -1663233675 123381456 1592215112 -1685608078 534730864 -1080319946 -1814847175 656812806 293358320 -205719305 -571380388 304111426 1028872097
REM
CELL 1.54180   50.00000   50.00000   50.00000   90.00000   90.00000   90.00000
LATT -1
SFAC C  
C      1  0.5188340000000  0.4910880000000  0.5575770000000 1.0
C      1  0.5004600000000  0.4444810000000  0.5708890000000 1.0
C      1  0.5052140000000  0.4612140000000  0.5486320000000 1.0
C      1  0.5479440000000  0.4856030000000  0.4813690000000 1.0
C      1  0.4963580000000  0.5524100000000  0.4581510000000 1.0
C      1  0.5310950000000  0.4639650000000  0.5003790000000 1.0
C      1  0.4873050000000  0.5316700000000  0.4376950000000 1.0
C      1  0.4897830000000  0.4958170000000  0.5606570000000 1.0
C      1  0.4827090000000  0.4585570000000  0.4757680000000 1.0
C      1  0.5358830000000  0.5103270000000  0.5475410000000 1.0
C      1  0.4436600000000  0.4785550000000  0.5338300000000 1.0
C      1  0.4863500000000  0.4848860000000  0.4746800000000 1.0
C      1  0.5341320000000  0.5124620000000  0.4657460000000 1.0
C      1  0.4637220000000  0.4883130000000  0.5081710000000 1.0
C      1  0.5128480000000  0.5087360000000  0.4394920000000 1.0
C      1  0.4512090000000  0.4917680000000  0.4570970000000 1.0
C      1  0.5211190000000  0.4483770000000  0.5272500000000 1.0
C      1  0.4929360000000  0.5359180000000  0.5031330000000 1.0
C      1  0.5181030000000  0.4936150000000  0.4970480000000 1.0
C      1  0.5439090000000  0.5156360000000  0.4981580000000 1.0
C      1  0.5339600000000  0.5264640000000  0.5247410000000 1.0
C      1  0.4849220000000  0.5550720000000  0.4838090000000 1.0
C      1  0.4676880000000  0.5749100000000  0.4898290000000 1.0
C      1  0.4808730000000  0.5015970000000  0.4485860000000 1.0
C      1  0.4946660000000  0.4345460000000  0.4810970000000 1.0
C      1  0.4470030000000  0.4868230000000  0.4814810000000 1.0
C      1  0.5159060000000  0.4348830000000  0.4988890000000 1.0
C      1  0.5088360000000  0.5658120000000  0.5378060000000 1.0
C      1  0.5237940000000  0.5396540000000  0.4506040000000 1.0
C      1  0.5119070000000  0.5439210000000  0.5224580000000 1.0
C      1  0.4899340000000  0.5059980000000  0.4998420000000 1.0
C      1  0.4769400000000  0.4769210000000  0.5375960000000 1.0
END
