TITL C-2848502-4955-480 0.00292368029841082 125000 -962.855301857649 0 0 173 (C1) n - 1
REM
REM in /home/bkarasulu/work/CARBON/AIRSS/Generating-Clusters/AIREBO/with-SteepDescent/Only-C1/SD-CG-opt/Try1-1.4A-POS3A/HFTN-CG
REM
REM
REM
REM
REM
REM ./C.cell (11c1c37f851c82e70ff6c80c92926a4b)
REM
REM compiler GCC version 9.2.1 20190827 (Red Hat 9.2.1-1)
REM options -cpp -mtune=generic -march=x86-64 -g -O0 -fpre-include=/usr/include/finclude/math-vector-fortran.h
REM seed 1896323345 1551375674 -1191169748 625116798 342064393 -1909249159 -609953804 1073534805 960826362 -728395682 1056897179 -590353999 665975813 -1490644292 1932941647 -185250169 -456611193 1292389242 -430653796 1996015743 518869871 2002662485 -1173162603 706044059 913683981 -192177586 -893415755 -496088842 -528230473 1272059358 -1294575506 -2127538638 -765715258
REM
CELL 1.54180   50.00000   50.00000   50.00000   90.00000   90.00000   90.00000
LATT -1
SFAC C  
C      1  0.5168910000000  0.4848980000000  0.3988380000000 1.0
C      1  0.5380790000000  0.4390940000000  0.5777820000000 1.0
C      1  0.5518380000000  0.5044410000000  0.5966440000000 1.0
C      1  0.4709220000000  0.5225080000000  0.6053590000000 1.0
C      1  0.5212350000000  0.4968960000000  0.5380650000000 1.0
C      1  0.4231240000000  0.4442720000000  0.5562460000000 1.0
C      1  0.3911080000000  0.5186640000000  0.4370370000000 1.0
C      1  0.5206770000000  0.4956590000000  0.4287650000000 1.0
C      1  0.4074740000000  0.4416050000000  0.4492110000000 1.0
C      1  0.4517370000000  0.5823980000000  0.5377970000000 1.0
C      1  0.5460420000000  0.4994420000000  0.4511060000000 1.0
C      1  0.4056370000000  0.5582440000000  0.5186600000000 1.0
C      1  0.4618290000000  0.4009140000000  0.5463770000000 1.0
C      1  0.4758500000000  0.3997710000000  0.4590760000000 1.0
C      1  0.4493950000000  0.5057070000000  0.6006820000000 1.0
C      1  0.4496900000000  0.3961180000000  0.5165420000000 1.0
C      1  0.5552860000000  0.4363050000000  0.5547940000000 1.0
C      1  0.4400730000000  0.4926150000000  0.4103390000000 1.0
C      1  0.4376960000000  0.5305530000000  0.5572170000000 1.0
C      1  0.5359820000000  0.4685920000000  0.4537120000000 1.0
C      1  0.4970160000000  0.5102050000000  0.6058650000000 1.0
C      1  0.4614220000000  0.3932760000000  0.4352310000000 1.0
C      1  0.5320680000000  0.4589180000000  0.4004700000000 1.0
C      1  0.5928730000000  0.5508090000000  0.5744710000000 1.0
C      1  0.4383650000000  0.4458850000000  0.5000440000000 1.0
C      1  0.5760850000000  0.4956690000000  0.4960640000000 1.0
C      1  0.6072680000000  0.5454720000000  0.4696370000000 1.0
C      1  0.4618920000000  0.5086420000000  0.5533870000000 1.0
C      1  0.5709810000000  0.4874450000000  0.4686770000000 1.0
C      1  0.5621840000000  0.4836460000000  0.5717640000000 1.0
C      1  0.4249310000000  0.4680030000000  0.4439580000000 1.0
C      1  0.4874470000000  0.3969720000000  0.5243640000000 1.0
C      1  0.4690480000000  0.4527290000000  0.4870300000000 1.0
C      1  0.5797680000000  0.4738940000000  0.4256520000000 1.0
C      1  0.5944880000000  0.5201850000000  0.4668250000000 1.0
C      1  0.5144780000000  0.5561420000000  0.4870210000000 1.0
C      1  0.5817450000000  0.4920650000000  0.5380320000000 1.0
C      1  0.4863710000000  0.4387760000000  0.5962120000000 1.0
C      1  0.4579570000000  0.4459260000000  0.5377150000000 1.0
C      1  0.4614630000000  0.4813010000000  0.3864320000000 1.0
C      1  0.4947500000000  0.4865100000000  0.5846500000000 1.0
C      1  0.5246650000000  0.6056170000000  0.5172190000000 1.0
C      1  0.5321860000000  0.4879100000000  0.5663320000000 1.0
C      1  0.4182380000000  0.4758180000000  0.5444510000000 1.0
C      1  0.4788590000000  0.5632860000000  0.5377840000000 1.0
C      1  0.5554620000000  0.5503740000000  0.4411020000000 1.0
C      1  0.4467810000000  0.4419780000000  0.4421670000000 1.0
C      1  0.4725630000000  0.4109590000000  0.4970890000000 1.0
C      1  0.5079260000000  0.4536670000000  0.5464220000000 1.0
C      1  0.4930010000000  0.4986410000000  0.4423790000000 1.0
C      1  0.5732740000000  0.5775630000000  0.4811550000000 1.0
C      1  0.5938470000000  0.4355090000000  0.5069460000000 1.0
C      1  0.5419080000000  0.4369640000000  0.4565430000000 1.0
C      1  0.4038980000000  0.5331660000000  0.4969450000000 1.0
C      1  0.4673270000000  0.6301360000000  0.5208130000000 1.0
C      1  0.5353760000000  0.6146470000000  0.4936020000000 1.0
C      1  0.4693080000000  0.4975770000000  0.5255600000000 1.0
C      1  0.4509280000000  0.5320030000000  0.5006340000000 1.0
C      1  0.5090820000000  0.4256580000000  0.5851370000000 1.0
C      1  0.4057620000000  0.4325990000000  0.5291210000000 1.0
C      1  0.5498500000000  0.4590460000000  0.4242710000000 1.0
C      1  0.4674430000000  0.5607650000000  0.4459300000000 1.0
C      1  0.4826600000000  0.5260250000000  0.5241020000000 1.0
C      1  0.5430840000000  0.4237910000000  0.5277060000000 1.0
C      1  0.5612600000000  0.4763050000000  0.5159000000000 1.0
C      1  0.4718200000000  0.4999190000000  0.4200780000000 1.0
C      1  0.4107530000000  0.5739670000000  0.4889210000000 1.0
C      1  0.6107750000000  0.4930230000000  0.4767490000000 1.0
C      1  0.4324290000000  0.5768840000000  0.5140340000000 1.0
C      1  0.5236440000000  0.5564870000000  0.6020530000000 1.0
C      1  0.5111050000000  0.5758460000000  0.4292250000000 1.0
C      1  0.5458460000000  0.5257900000000  0.4929890000000 1.0
C      1  0.5084380000000  0.4248360000000  0.5553860000000 1.0
C      1  0.5137580000000  0.4073150000000  0.5331420000000 1.0
C      1  0.4014540000000  0.4786930000000  0.4935500000000 1.0
C      1  0.4301220000000  0.5259550000000  0.4765370000000 1.0
C      1  0.5334360000000  0.5397200000000  0.5209790000000 1.0
C      1  0.5960140000000  0.4580080000000  0.5228180000000 1.0
C      1  0.6215660000000  0.5591260000000  0.5318440000000 1.0
C      1  0.4863090000000  0.4847240000000  0.3860500000000 1.0
C      1  0.4694000000000  0.5484580000000  0.5905700000000 1.0
C      1  0.5292030000000  0.5471830000000  0.4622500000000 1.0
C      1  0.5750390000000  0.4340260000000  0.4786570000000 1.0
C      1  0.5760410000000  0.5049430000000  0.4119360000000 1.0
C      1  0.5028410000000  0.4030680000000  0.4658990000000 1.0
C      1  0.5812540000000  0.5249600000000  0.5340120000000 1.0
C      1  0.4619840000000  0.5823200000000  0.4981260000000 1.0
C      1  0.4595710000000  0.4255550000000  0.4691790000000 1.0
C      1  0.5942440000000  0.4830090000000  0.4522030000000 1.0
C      1  0.4153210000000  0.4990970000000  0.4465580000000 1.0
C      1  0.5085260000000  0.5859100000000  0.5629040000000 1.0
C      1  0.4426720000000  0.5532960000000  0.5768190000000 1.0
C      1  0.4152830000000  0.5388970000000  0.4495040000000 1.0
C      1  0.5803670000000  0.5093520000000  0.5740330000000 1.0
C      1  0.4928550000000  0.4799300000000  0.5311570000000 1.0
C      1  0.5977030000000  0.5488030000000  0.5167010000000 1.0
C      1  0.5379800000000  0.4055510000000  0.5013660000000 1.0
C      1  0.5187490000000  0.5161200000000  0.5728560000000 1.0
C      1  0.5595170000000  0.5271430000000  0.4165740000000 1.0
C      1  0.6024590000000  0.4802750000000  0.5060580000000 1.0
C      1  0.5549530000000  0.5801050000000  0.5389130000000 1.0
C      1  0.5270390000000  0.4463230000000  0.4856540000000 1.0
C      1  0.5311670000000  0.4813740000000  0.5139380000000 1.0
C      1  0.4930120000000  0.4983820000000  0.4822440000000 1.0
C      1  0.4977230000000  0.4479660000000  0.4690050000000 1.0
C      1  0.4753370000000  0.6006170000000  0.5239000000000 1.0
C      1  0.4870680000000  0.5157230000000  0.5677220000000 1.0
C      1  0.4470220000000  0.4987850000000  0.5005170000000 1.0
C      1  0.5132140000000  0.5452930000000  0.4351240000000 1.0
C      1  0.5108400000000  0.5176020000000  0.3969640000000 1.0
C      1  0.4741540000000  0.5524390000000  0.4950650000000 1.0
C      1  0.4837060000000  0.5239560000000  0.4046560000000 1.0
C      1  0.5723580000000  0.4498470000000  0.4485870000000 1.0
C      1  0.3993280000000  0.4283510000000  0.4714300000000 1.0
C      1  0.4455080000000  0.4140810000000  0.4257560000000 1.0
C      1  0.5667980000000  0.5369320000000  0.5610110000000 1.0
C      1  0.5592360000000  0.4057770000000  0.4840290000000 1.0
C      1  0.4895390000000  0.5493290000000  0.5631750000000 1.0
C      1  0.4868920000000  0.5289600000000  0.4783080000000 1.0
C      1  0.4687950000000  0.5514520000000  0.4132300000000 1.0
C      1  0.4221980000000  0.4996130000000  0.5205970000000 1.0
C      1  0.5326280000000  0.5723840000000  0.5777450000000 1.0
C      1  0.5261090000000  0.4982610000000  0.4900310000000 1.0
C      1  0.5120400000000  0.4072390000000  0.4922000000000 1.0
C      1  0.4374960000000  0.4238140000000  0.5244320000000 1.0
C      1  0.4966770000000  0.5685400000000  0.5131490000000 1.0
C      1  0.4747610000000  0.4614470000000  0.5860540000000 1.0
C      1  0.5552030000000  0.4450280000000  0.5039920000000 1.0
C      1  0.5260020000000  0.5260900000000  0.6017040000000 1.0
C      1  0.5387110000000  0.5799610000000  0.4416330000000 1.0
C      1  0.5546290000000  0.5669840000000  0.5623350000000 1.0
C      1  0.4386670000000  0.5784890000000  0.5656600000000 1.0
C      1  0.4491120000000  0.4232030000000  0.5623930000000 1.0
C      1  0.4965730000000  0.4308920000000  0.5058990000000 1.0
C      1  0.4209460000000  0.4936630000000  0.4789850000000 1.0
C      1  0.5094990000000  0.4211810000000  0.4182960000000 1.0
C      1  0.4498480000000  0.4628730000000  0.5660620000000 1.0
C      1  0.4875980000000  0.5788150000000  0.4156000000000 1.0
C      1  0.5163310000000  0.4637170000000  0.5752800000000 1.0
C      1  0.5216280000000  0.5175560000000  0.4626720000000 1.0
C      1  0.5057080000000  0.5303000000000  0.5060700000000 1.0
C      1  0.4592660000000  0.4681750000000  0.4241470000000 1.0
C      1  0.4388130000000  0.5427880000000  0.4067020000000 1.0
C      1  0.5486990000000  0.5970990000000  0.4676070000000 1.0
C      1  0.4283920000000  0.5209790000000  0.4237350000000 1.0
C      1  0.5420100000000  0.5735180000000  0.4893520000000 1.0
C      1  0.4545490000000  0.5413750000000  0.5316520000000 1.0
C      1  0.4104330000000  0.4270150000000  0.4955640000000 1.0
C      1  0.5131260000000  0.4255580000000  0.4483550000000 1.0
C      1  0.6059850000000  0.5044650000000  0.5577740000000 1.0
C      1  0.4129930000000  0.5071890000000  0.5578310000000 1.0
C      1  0.4541110000000  0.5174300000000  0.4539910000000 1.0
C      1  0.4525890000000  0.5713000000000  0.4672650000000 1.0
C      1  0.4948790000000  0.5696260000000  0.5895550000000 1.0
C      1  0.4785070000000  0.4544700000000  0.5196410000000 1.0
C      1  0.5630730000000  0.5260840000000  0.4636450000000 1.0
C      1  0.5035530000000  0.5985080000000  0.5385430000000 1.0
C      1  0.4842080000000  0.5311830000000  0.4461270000000 1.0
C      1  0.4249080000000  0.5650280000000  0.4660570000000 1.0
C      1  0.5292110000000  0.5313650000000  0.4129050000000 1.0
C      1  0.5753030000000  0.4608230000000  0.5497720000000 1.0
C      1  0.4119400000000  0.4619870000000  0.5140310000000 1.0
C      1  0.5182340000000  0.4533960000000  0.5160280000000 1.0
C      1  0.5949170000000  0.5625500000000  0.4886240000000 1.0
C      1  0.4526330000000  0.4859530000000  0.4521440000000 1.0
C      1  0.5377290000000  0.5251050000000  0.5478500000000 1.0
C      1  0.5187590000000  0.4355730000000  0.3971390000000 1.0
C      1  0.4655750000000  0.4830750000000  0.4793890000000 1.0
C      1  0.5297720000000  0.5727160000000  0.5198410000000 1.0
C      1  0.5073630000000  0.4765350000000  0.4612100000000 1.0
C      1  0.4407930000000  0.4935590000000  0.5721380000000 1.0
C      1  0.5768090000000  0.5260500000000  0.5022130000000 1.0
C      1  0.4084870000000  0.5268160000000  0.5303820000000 1.0
END
