TITL C-2847955-7945-726 -0.00501360362604189 125000 -963.378654981877 0 0 178 (C1) n - 1
REM
REM in /home/bkarasulu/work/CARBON/AIRSS/Generating-Clusters/AIREBO/with-SteepDescent/Only-C1/SD-CG-opt/Try1-1.4A-POS3A/HFTN-CG
REM
REM
REM
REM
REM
REM ./C.cell (11c1c37f851c82e70ff6c80c92926a4b)
REM
REM compiler GCC version 9.2.1 20190827 (Red Hat 9.2.1-1)
REM options -cpp -mtune=generic -march=x86-64 -g -O0 -fpre-include=/usr/include/finclude/math-vector-fortran.h
REM seed 45058856 -900754243 126929064 -715966041 -1865516875 -625767864 613958068 617922906 -1663600365 -1962057196 250869730 -1260895798 797439277 762416443 855338908 -75966398 -211902207 -176963947 -261693872 -1792102419 307676182 2002668663 2007276045 -1615426327 174412536 -352343448 -2120528335 -222565254 2104740917 1387181862 -481584781 -1370949517 370738541
REM
CELL 1.54180   50.00000   50.00000   50.00000   90.00000   90.00000   90.00000
LATT -1
SFAC C  
C      1  0.4197070000000  0.4157540000000  0.4805440000000 1.0
C      1  0.4713220000000  0.5216490000000  0.4153780000000 1.0
C      1  0.4803140000000  0.4660570000000  0.5843170000000 1.0
C      1  0.5670120000000  0.5343820000000  0.4878440000000 1.0
C      1  0.5512220000000  0.5263240000000  0.4483490000000 1.0
C      1  0.5829750000000  0.5026730000000  0.4432930000000 1.0
C      1  0.5521200000000  0.4952250000000  0.4445960000000 1.0
C      1  0.4744060000000  0.4745600000000  0.4001650000000 1.0
C      1  0.4830120000000  0.5836790000000  0.6000020000000 1.0
C      1  0.4097640000000  0.4529530000000  0.4494320000000 1.0
C      1  0.5592660000000  0.4769970000000  0.4724190000000 1.0
C      1  0.5310670000000  0.4858940000000  0.4237890000000 1.0
C      1  0.5157910000000  0.5882510000000  0.5625920000000 1.0
C      1  0.4742330000000  0.4285340000000  0.4619480000000 1.0
C      1  0.5363880000000  0.4334750000000  0.4792600000000 1.0
C      1  0.4500970000000  0.4983650000000  0.4890260000000 1.0
C      1  0.5938980000000  0.5575550000000  0.5620840000000 1.0
C      1  0.4482170000000  0.5484790000000  0.4376550000000 1.0
C      1  0.5652600000000  0.5733720000000  0.4434390000000 1.0
C      1  0.5178160000000  0.5826490000000  0.4308310000000 1.0
C      1  0.4883880000000  0.4477430000000  0.4939680000000 1.0
C      1  0.4471370000000  0.5044320000000  0.5896070000000 1.0
C      1  0.5244000000000  0.4628140000000  0.4859270000000 1.0
C      1  0.4445550000000  0.4656190000000  0.4109090000000 1.0
C      1  0.4075960000000  0.5131230000000  0.4314930000000 1.0
C      1  0.5506350000000  0.5142840000000  0.5841470000000 1.0
C      1  0.6045240000000  0.5132400000000  0.4994250000000 1.0
C      1  0.4799730000000  0.5508660000000  0.4304620000000 1.0
C      1  0.5154690000000  0.5253280000000  0.4884120000000 1.0
C      1  0.6056210000000  0.5134340000000  0.4664000000000 1.0
C      1  0.5088890000000  0.5050630000000  0.4618760000000 1.0
C      1  0.4904730000000  0.3993320000000  0.4672510000000 1.0
C      1  0.6017930000000  0.4805280000000  0.4587140000000 1.0
C      1  0.5804320000000  0.5555520000000  0.5372070000000 1.0
C      1  0.4786630000000  0.5380250000000  0.5286010000000 1.0
C      1  0.4845800000000  0.5627260000000  0.3913090000000 1.0
C      1  0.4589230000000  0.5623750000000  0.5929480000000 1.0
C      1  0.4967870000000  0.4317770000000  0.5504610000000 1.0
C      1  0.4872960000000  0.5802140000000  0.4177950000000 1.0
C      1  0.4408100000000  0.5692640000000  0.5719550000000 1.0
C      1  0.5919250000000  0.4879260000000  0.5633400000000 1.0
C      1  0.6033740000000  0.4150150000000  0.5133060000000 1.0
C      1  0.4932450000000  0.5148680000000  0.5965060000000 1.0
C      1  0.4796700000000  0.5526610000000  0.4976200000000 1.0
C      1  0.5539180000000  0.4445630000000  0.5252230000000 1.0
C      1  0.4406560000000  0.4988290000000  0.5464100000000 1.0
C      1  0.4585460000000  0.5905700000000  0.5160480000000 1.0
C      1  0.4344490000000  0.5412080000000  0.4612250000000 1.0
C      1  0.4299320000000  0.4906280000000  0.3960540000000 1.0
C      1  0.5185030000000  0.5356040000000  0.4505200000000 1.0
C      1  0.5686290000000  0.4263700000000  0.4769390000000 1.0
C      1  0.5062780000000  0.5864470000000  0.4687510000000 1.0
C      1  0.5471760000000  0.5436480000000  0.5711560000000 1.0
C      1  0.4603650000000  0.4646360000000  0.5366930000000 1.0
C      1  0.4670160000000  0.4011420000000  0.4909570000000 1.0
C      1  0.5116120000000  0.5414870000000  0.5534060000000 1.0
C      1  0.5464040000000  0.6275380000000  0.5090820000000 1.0
C      1  0.5962080000000  0.4676120000000  0.4880270000000 1.0
C      1  0.4163590000000  0.5632000000000  0.5025120000000 1.0
C      1  0.4869100000000  0.4200820000000  0.4326960000000 1.0
C      1  0.4129520000000  0.5379790000000  0.5419540000000 1.0
C      1  0.4390310000000  0.4501960000000  0.4868680000000 1.0
C      1  0.4608950000000  0.4301260000000  0.5034810000000 1.0
C      1  0.5838870000000  0.5355360000000  0.4519740000000 1.0
C      1  0.5288390000000  0.4700360000000  0.5907210000000 1.0
C      1  0.5130370000000  0.5500920000000  0.4222730000000 1.0
C      1  0.5665730000000  0.3859600000000  0.5264550000000 1.0
C      1  0.5405570000000  0.5974690000000  0.5130500000000 1.0
C      1  0.4930750000000  0.5076840000000  0.5069710000000 1.0
C      1  0.4312590000000  0.5502310000000  0.4145000000000 1.0
C      1  0.5717440000000  0.5061180000000  0.5209270000000 1.0
C      1  0.4732320000000  0.4217380000000  0.5715100000000 1.0
C      1  0.3934300000000  0.4719370000000  0.4638580000000 1.0
C      1  0.5592640000000  0.5795730000000  0.5337550000000 1.0
C      1  0.4063460000000  0.4593520000000  0.5391030000000 1.0
C      1  0.4606190000000  0.3780990000000  0.5041070000000 1.0
C      1  0.5861320000000  0.4501460000000  0.4600670000000 1.0
C      1  0.4718800000000  0.4934550000000  0.5983780000000 1.0
C      1  0.5225610000000  0.4471020000000  0.4054690000000 1.0
C      1  0.3950190000000  0.5146740000000  0.5022320000000 1.0
C      1  0.4468090000000  0.5326960000000  0.4880360000000 1.0
C      1  0.3997690000000  0.5034150000000  0.4751230000000 1.0
C      1  0.3973860000000  0.4790580000000  0.5211780000000 1.0
C      1  0.5060550000000  0.5527590000000  0.5157820000000 1.0
C      1  0.4792800000000  0.4619760000000  0.4644520000000 1.0
C      1  0.5428710000000  0.5083740000000  0.5317690000000 1.0
C      1  0.5784270000000  0.4449170000000  0.5474190000000 1.0
C      1  0.5221720000000  0.5015770000000  0.5978420000000 1.0
C      1  0.4587830000000  0.5005180000000  0.3986750000000 1.0
C      1  0.5294290000000  0.5680460000000  0.5435640000000 1.0
C      1  0.4640280000000  0.5103310000000  0.5244990000000 1.0
C      1  0.5081530000000  0.4925350000000  0.5533790000000 1.0
C      1  0.5024060000000  0.4749990000000  0.5087850000000 1.0
C      1  0.5465550000000  0.5520090000000  0.4278640000000 1.0
C      1  0.3935430000000  0.4696480000000  0.4955740000000 1.0
C      1  0.4643950000000  0.4796970000000  0.5614680000000 1.0
C      1  0.5292630000000  0.4669160000000  0.3886420000000 1.0
C      1  0.4488240000000  0.5577160000000  0.5110070000000 1.0
C      1  0.5384320000000  0.5669250000000  0.4875110000000 1.0
C      1  0.4795800000000  0.5148010000000  0.4476530000000 1.0
C      1  0.5639080000000  0.4121090000000  0.5234450000000 1.0
C      1  0.4296050000000  0.4192200000000  0.5111290000000 1.0
C      1  0.4696380000000  0.4386850000000  0.5336460000000 1.0
C      1  0.6021080000000  0.4672740000000  0.5383000000000 1.0
C      1  0.5703690000000  0.4907210000000  0.5809570000000 1.0
C      1  0.5064880000000  0.3983520000000  0.4956260000000 1.0
C      1  0.5062540000000  0.3758190000000  0.5105080000000 1.0
C      1  0.5100560000000  0.5642450000000  0.6045680000000 1.0
C      1  0.4261050000000  0.4251220000000  0.4517120000000 1.0
C      1  0.5216740000000  0.4343100000000  0.5288310000000 1.0
C      1  0.4346330000000  0.4514530000000  0.5827150000000 1.0
C      1  0.5120480000000  0.5206760000000  0.3872010000000 1.0
C      1  0.4128820000000  0.5298280000000  0.4093220000000 1.0
C      1  0.5175950000000  0.4168550000000  0.4183470000000 1.0
C      1  0.4854280000000  0.5447430000000  0.6049360000000 1.0
C      1  0.5689850000000  0.3598690000000  0.5268950000000 1.0
C      1  0.5645460000000  0.5885570000000  0.4900070000000 1.0
C      1  0.4245990000000  0.4898330000000  0.5869460000000 1.0
C      1  0.5106310000000  0.4749840000000  0.4624420000000 1.0
C      1  0.5740000000000  0.5032170000000  0.4882910000000 1.0
C      1  0.5121150000000  0.5826370000000  0.5017600000000 1.0
C      1  0.5490780000000  0.4275640000000  0.4270880000000 1.0
C      1  0.5079780000000  0.4561840000000  0.5713400000000 1.0
C      1  0.4848030000000  0.5286100000000  0.5685910000000 1.0
C      1  0.5548300000000  0.4524260000000  0.4493080000000 1.0
C      1  0.4603470000000  0.4427180000000  0.5839260000000 1.0
C      1  0.5215960000000  0.5134310000000  0.5664810000000 1.0
C      1  0.5493600000000  0.5412210000000  0.5372950000000 1.0
C      1  0.4242410000000  0.4944840000000  0.4532220000000 1.0
C      1  0.4520680000000  0.5243620000000  0.5655630000000 1.0
C      1  0.4832990000000  0.6529350000000  0.4910840000000 1.0
C      1  0.4313590000000  0.5945650000000  0.5634760000000 1.0
C      1  0.4019170000000  0.5417690000000  0.5140780000000 1.0
C      1  0.5129100000000  0.4274640000000  0.5006010000000 1.0
C      1  0.4371980000000  0.4604120000000  0.4368030000000 1.0
C      1  0.5244970000000  0.4965180000000  0.3921590000000 1.0
C      1  0.4859450000000  0.6307540000000  0.5034270000000 1.0
C      1  0.4085990000000  0.5304030000000  0.4575580000000 1.0
C      1  0.4135760000000  0.4336270000000  0.5295000000000 1.0
C      1  0.4389030000000  0.6040800000000  0.5387700000000 1.0
C      1  0.4530540000000  0.4193390000000  0.4405390000000 1.0
C      1  0.4883040000000  0.6023390000000  0.5159390000000 1.0
C      1  0.5158650000000  0.6048190000000  0.5357070000000 1.0
C      1  0.4987340000000  0.4783440000000  0.4164250000000 1.0
C      1  0.6052350000000  0.4339820000000  0.5319140000000 1.0
C      1  0.5419020000000  0.5400470000000  0.5041120000000 1.0
C      1  0.4235770000000  0.4724460000000  0.5594630000000 1.0
C      1  0.5693110000000  0.4437510000000  0.5765170000000 1.0
C      1  0.4915080000000  0.6008570000000  0.4436750000000 1.0
C      1  0.5153160000000  0.5224220000000  0.5280580000000 1.0
C      1  0.5448500000000  0.4766970000000  0.5316450000000 1.0
C      1  0.4096230000000  0.4456510000000  0.4891180000000 1.0
C      1  0.4872860000000  0.5806680000000  0.5697390000000 1.0
C      1  0.4751010000000  0.5574790000000  0.5553860000000 1.0
C      1  0.4800820000000  0.4840290000000  0.4385790000000 1.0
C      1  0.5879790000000  0.4068810000000  0.4919630000000 1.0
C      1  0.5674670000000  0.4529680000000  0.4950680000000 1.0
C      1  0.5909700000000  0.5055150000000  0.5395800000000 1.0
C      1  0.4112270000000  0.5068330000000  0.5310780000000 1.0
C      1  0.5304980000000  0.5654500000000  0.5832510000000 1.0
C      1  0.5364670000000  0.5782170000000  0.4559840000000 1.0
C      1  0.6078940000000  0.4823510000000  0.5118250000000 1.0
C      1  0.4473180000000  0.4733780000000  0.4665680000000 1.0
C      1  0.4438380000000  0.5496310000000  0.5443510000000 1.0
C      1  0.4282220000000  0.5902240000000  0.5006670000000 1.0
C      1  0.5749010000000  0.5612640000000  0.4723150000000 1.0
C      1  0.4559320000000  0.4805590000000  0.5146810000000 1.0
C      1  0.5566570000000  0.4665280000000  0.5870750000000 1.0
C      1  0.5143380000000  0.4658270000000  0.5392740000000 1.0
C      1  0.5131160000000  0.4296560000000  0.4552430000000 1.0
C      1  0.4815140000000  0.3649460000000  0.5167450000000 1.0
C      1  0.5027280000000  0.5537190000000  0.4747110000000 1.0
C      1  0.5420450000000  0.4828730000000  0.5011540000000 1.0
C      1  0.4750580000000  0.5166730000000  0.4795630000000 1.0
C      1  0.5989260000000  0.5394890000000  0.5164880000000 1.0
C      1  0.5156690000000  0.3970530000000  0.4459300000000 1.0
C      1  0.4892920000000  0.5359790000000  0.3933860000000 1.0
C      1  0.5235280000000  0.4560620000000  0.4382560000000 1.0
END
