TITL C-2847957-7266-76 0.000697110931590433 125000 -1041.18340030454 0 0 195 (C1) n - 1
REM
REM in /home/bkarasulu/work/CARBON/AIRSS/Generating-Clusters/AIREBO/with-SteepDescent/Only-C1/SD-CG-opt/Try1-1.4A-POS3A/HFTN-CG
REM
REM
REM
REM
REM
REM ./C.cell (11c1c37f851c82e70ff6c80c92926a4b)
REM
REM compiler GCC version 9.2.1 20190827 (Red Hat 9.2.1-1)
REM options -cpp -mtune=generic -march=x86-64 -g -O0 -fpre-include=/usr/include/finclude/math-vector-fortran.h
REM seed -1276591318 1085424753 1855509188 -1293904353 -646655179 663130599 617340168 -41554553 1815662957 -1466122522 391011184 -464086692 -1770279244 -1066265299 -1703006919 -378499970 -180872030 983031472 -232851306 -4612469 506757668 -1247908005 -1290608807 967474542 371529970 -1816005190 -1683014133 -1980023553 1894128033 -2011485856 274985162 551445989 -738644804
REM
CELL 1.54180   50.00000   50.00000   50.00000   90.00000   90.00000   90.00000
LATT -1
SFAC C  
C      1  0.5402230000000  0.4956350000000  0.5157680000000 1.0
C      1  0.4858110000000  0.5492860000000  0.5575120000000 1.0
C      1  0.5395550000000  0.5934380000000  0.5069180000000 1.0
C      1  0.5097420000000  0.3916250000000  0.5347850000000 1.0
C      1  0.6134610000000  0.4656250000000  0.4716790000000 1.0
C      1  0.4177450000000  0.5848930000000  0.5559580000000 1.0
C      1  0.4734230000000  0.6207180000000  0.5337990000000 1.0
C      1  0.5051200000000  0.4707040000000  0.4453290000000 1.0
C      1  0.5260470000000  0.4677860000000  0.5115270000000 1.0
C      1  0.4461790000000  0.5814500000000  0.4630330000000 1.0
C      1  0.5143540000000  0.5274010000000  0.6112180000000 1.0
C      1  0.4720580000000  0.5522100000000  0.5015660000000 1.0
C      1  0.5555380000000  0.4936080000000  0.5417070000000 1.0
C      1  0.4253190000000  0.4208280000000  0.5468830000000 1.0
C      1  0.5717790000000  0.4626100000000  0.4316690000000 1.0
C      1  0.4077730000000  0.4913190000000  0.4858070000000 1.0
C      1  0.5320650000000  0.5690420000000  0.6358400000000 1.0
C      1  0.4594710000000  0.6163020000000  0.5111810000000 1.0
C      1  0.5478290000000  0.5357410000000  0.5026470000000 1.0
C      1  0.4100380000000  0.4775330000000  0.5445820000000 1.0
C      1  0.4776330000000  0.3820050000000  0.4831260000000 1.0
C      1  0.4567450000000  0.5058310000000  0.5632230000000 1.0
C      1  0.4453740000000  0.5081370000000  0.4842420000000 1.0
C      1  0.5273660000000  0.4979030000000  0.4638270000000 1.0
C      1  0.4077120000000  0.5352790000000  0.5672070000000 1.0
C      1  0.5340610000000  0.5019690000000  0.5657420000000 1.0
C      1  0.4651050000000  0.5495900000000  0.6165290000000 1.0
C      1  0.4531860000000  0.4284120000000  0.4237730000000 1.0
C      1  0.5256440000000  0.3923790000000  0.5078450000000 1.0
C      1  0.4097060000000  0.4353750000000  0.4546500000000 1.0
C      1  0.5515310000000  0.4786580000000  0.4750430000000 1.0
C      1  0.5452120000000  0.5130880000000  0.4393640000000 1.0
C      1  0.4435140000000  0.4778090000000  0.4968300000000 1.0
C      1  0.4540220000000  0.5349120000000  0.3906620000000 1.0
C      1  0.5054250000000  0.4295370000000  0.4484500000000 1.0
C      1  0.4264510000000  0.5332280000000  0.4958590000000 1.0
C      1  0.3944680000000  0.5261990000000  0.4736740000000 1.0
C      1  0.5374810000000  0.5914460000000  0.4413840000000 1.0
C      1  0.5239910000000  0.4669280000000  0.3982430000000 1.0
C      1  0.5567810000000  0.5493090000000  0.4736830000000 1.0
C      1  0.5525520000000  0.5219830000000  0.4012190000000 1.0
C      1  0.5863690000000  0.4850900000000  0.5652010000000 1.0
C      1  0.4949760000000  0.6123840000000  0.4414950000000 1.0
C      1  0.4733580000000  0.5610200000000  0.4629770000000 1.0
C      1  0.4966360000000  0.4934530000000  0.6003380000000 1.0
C      1  0.4166330000000  0.5811070000000  0.5052260000000 1.0
C      1  0.5738160000000  0.5208580000000  0.4661760000000 1.0
C      1  0.4465080000000  0.5538510000000  0.4828880000000 1.0
C      1  0.4689060000000  0.4989940000000  0.4643420000000 1.0
C      1  0.5256340000000  0.4300590000000  0.5212020000000 1.0
C      1  0.6175460000000  0.4718830000000  0.5217900000000 1.0
C      1  0.4889360000000  0.5757320000000  0.5097040000000 1.0
C      1  0.5775470000000  0.4284070000000  0.4742850000000 1.0
C      1  0.4590190000000  0.4218810000000  0.5090890000000 1.0
C      1  0.5616300000000  0.4150790000000  0.5417810000000 1.0
C      1  0.5605740000000  0.5055850000000  0.4933800000000 1.0
C      1  0.4842540000000  0.4302530000000  0.5526350000000 1.0
C      1  0.4567430000000  0.4073980000000  0.4608640000000 1.0
C      1  0.5666790000000  0.5217280000000  0.5549330000000 1.0
C      1  0.6082600000000  0.5061710000000  0.4934290000000 1.0
C      1  0.4912160000000  0.4625850000000  0.5605210000000 1.0
C      1  0.4362760000000  0.4563720000000  0.4758390000000 1.0
C      1  0.6000600000000  0.4930950000000  0.5398140000000 1.0
C      1  0.5482060000000  0.4504620000000  0.5716340000000 1.0
C      1  0.5127070000000  0.6004900000000  0.4243620000000 1.0
C      1  0.4298550000000  0.5458050000000  0.5805140000000 1.0
C      1  0.5434190000000  0.4547290000000  0.4146270000000 1.0
C      1  0.5547570000000  0.4812140000000  0.5803660000000 1.0
C      1  0.5433950000000  0.5557470000000  0.5777080000000 1.0
C      1  0.4178590000000  0.4658350000000  0.5744700000000 1.0
C      1  0.5502950000000  0.3979950000000  0.5615330000000 1.0
C      1  0.4734090000000  0.4517190000000  0.5132990000000 1.0
C      1  0.5888870000000  0.4676200000000  0.4074940000000 1.0
C      1  0.5093180000000  0.4825200000000  0.4867720000000 1.0
C      1  0.4071340000000  0.5388100000000  0.5333590000000 1.0
C      1  0.4402550000000  0.5117770000000  0.3804990000000 1.0
C      1  0.4519940000000  0.4289360000000  0.4803490000000 1.0
C      1  0.5224420000000  0.4979900000000  0.6223260000000 1.0
C      1  0.5437030000000  0.4496290000000  0.4758940000000 1.0
C      1  0.4356330000000  0.4680340000000  0.5242950000000 1.0
C      1  0.5125800000000  0.4519030000000  0.4723480000000 1.0
C      1  0.5255500000000  0.6122100000000  0.5312830000000 1.0
C      1  0.4763020000000  0.4747000000000  0.4883820000000 1.0
C      1  0.4127230000000  0.5722240000000  0.5314770000000 1.0
C      1  0.5515260000000  0.5420690000000  0.5346470000000 1.0
C      1  0.5060890000000  0.4925240000000  0.3852880000000 1.0
C      1  0.4899830000000  0.5298060000000  0.4446050000000 1.0
C      1  0.4383770000000  0.5544430000000  0.4438970000000 1.0
C      1  0.5702910000000  0.4655180000000  0.5292680000000 1.0
C      1  0.5646780000000  0.4420030000000  0.5497590000000 1.0
C      1  0.4730490000000  0.4491950000000  0.4685790000000 1.0
C      1  0.4659590000000  0.5354220000000  0.5379550000000 1.0
C      1  0.4894590000000  0.4673270000000  0.3971130000000 1.0
C      1  0.5975250000000  0.5276160000000  0.4337150000000 1.0
C      1  0.4817360000000  0.5236450000000  0.6051200000000 1.0
C      1  0.4977830000000  0.6080340000000  0.5390210000000 1.0
C      1  0.4733480000000  0.4027320000000  0.5668950000000 1.0
C      1  0.5153330000000  0.5477760000000  0.4584110000000 1.0
C      1  0.4680790000000  0.5592210000000  0.4028630000000 1.0
C      1  0.5839890000000  0.4905800000000  0.5107680000000 1.0
C      1  0.4703780000000  0.4515520000000  0.4385760000000 1.0
C      1  0.5000770000000  0.5194590000000  0.4033580000000 1.0
C      1  0.4790520000000  0.5590800000000  0.5870070000000 1.0
C      1  0.5047430000000  0.4937530000000  0.5590920000000 1.0
C      1  0.4766860000000  0.5985860000000  0.4904260000000 1.0
C      1  0.6090260000000  0.4589420000000  0.4989170000000 1.0
C      1  0.4211370000000  0.5095820000000  0.4604300000000 1.0
C      1  0.4303550000000  0.4516650000000  0.4335020000000 1.0
C      1  0.3892510000000  0.5251770000000  0.5073380000000 1.0
C      1  0.4957030000000  0.5499340000000  0.4177890000000 1.0
C      1  0.4564210000000  0.5276720000000  0.4394510000000 1.0
C      1  0.4472450000000  0.5541940000000  0.5225870000000 1.0
C      1  0.6147450000000  0.4937990000000  0.4685220000000 1.0
C      1  0.4587700000000  0.5322360000000  0.5815450000000 1.0
C      1  0.4157780000000  0.4446410000000  0.5518510000000 1.0
C      1  0.4385600000000  0.4695060000000  0.5900880000000 1.0
C      1  0.5068770000000  0.3767680000000  0.4454100000000 1.0
C      1  0.4898940000000  0.4006150000000  0.4574120000000 1.0
C      1  0.4479920000000  0.4425690000000  0.3954220000000 1.0
C      1  0.4699760000000  0.5203320000000  0.4113400000000 1.0
C      1  0.6037940000000  0.5237790000000  0.5192290000000 1.0
C      1  0.4715940000000  0.4808670000000  0.5814550000000 1.0
C      1  0.5256710000000  0.4756940000000  0.5974380000000 1.0
C      1  0.5067440000000  0.5027960000000  0.4390200000000 1.0
C      1  0.5957780000000  0.4520670000000  0.4533440000000 1.0
C      1  0.4591630000000  0.4674590000000  0.3932140000000 1.0
C      1  0.5654130000000  0.5896470000000  0.4772320000000 1.0
C      1  0.5290710000000  0.5305280000000  0.5835360000000 1.0
C      1  0.4951270000000  0.4206660000000  0.5260700000000 1.0
C      1  0.4371330000000  0.5007940000000  0.4315670000000 1.0
C      1  0.5199330000000  0.5581740000000  0.6139400000000 1.0
C      1  0.4608250000000  0.4685450000000  0.6112810000000 1.0
C      1  0.4783480000000  0.3862450000000  0.5375800000000 1.0
C      1  0.5020600000000  0.5699570000000  0.4788700000000 1.0
C      1  0.5885690000000  0.5470150000000  0.5205780000000 1.0
C      1  0.4971700000000  0.4504270000000  0.4228390000000 1.0
C      1  0.5808990000000  0.4489470000000  0.5015220000000 1.0
C      1  0.5291400000000  0.5638900000000  0.4985170000000 1.0
C      1  0.5010400000000  0.6031560000000  0.4703880000000 1.0
C      1  0.5901620000000  0.5706470000000  0.4691460000000 1.0
C      1  0.4931260000000  0.4900730000000  0.5315970000000 1.0
C      1  0.5715770000000  0.5687850000000  0.5404200000000 1.0
C      1  0.5736360000000  0.5089820000000  0.5857710000000 1.0
C      1  0.4047830000000  0.4498700000000  0.4797540000000 1.0
C      1  0.4958430000000  0.5289400000000  0.5230800000000 1.0
C      1  0.5072170000000  0.5717520000000  0.5922470000000 1.0
C      1  0.3923110000000  0.4820600000000  0.4589640000000 1.0
C      1  0.4777080000000  0.5300250000000  0.4763570000000 1.0
C      1  0.5233070000000  0.3967770000000  0.5618750000000 1.0
C      1  0.4105760000000  0.5500890000000  0.4592040000000 1.0
C      1  0.4351660000000  0.5216160000000  0.5421620000000 1.0
C      1  0.4633250000000  0.4652040000000  0.5412470000000 1.0
C      1  0.4690210000000  0.3915200000000  0.5077150000000 1.0
C      1  0.4408980000000  0.5959720000000  0.4925550000000 1.0
C      1  0.4798360000000  0.4088780000000  0.4259810000000 1.0
C      1  0.5566020000000  0.4375550000000  0.4492670000000 1.0
C      1  0.5154130000000  0.4481430000000  0.5803450000000 1.0
C      1  0.4032220000000  0.4714150000000  0.4389870000000 1.0
C      1  0.5317490000000  0.4277090000000  0.4282560000000 1.0
C      1  0.5447450000000  0.5864480000000  0.5396990000000 1.0
C      1  0.4489820000000  0.4751460000000  0.4504840000000 1.0
C      1  0.4959200000000  0.4340600000000  0.4949290000000 1.0
C      1  0.4630360000000  0.4961410000000  0.5316650000000 1.0
C      1  0.5281160000000  0.5083600000000  0.4129890000000 1.0
C      1  0.4530020000000  0.4088040000000  0.5398930000000 1.0
C      1  0.5090790000000  0.4063690000000  0.4849070000000 1.0
C      1  0.5670100000000  0.5359260000000  0.4267070000000 1.0
C      1  0.5192970000000  0.5494490000000  0.5265790000000 1.0
C      1  0.3912200000000  0.4944180000000  0.5218160000000 1.0
C      1  0.5037410000000  0.4164670000000  0.5762370000000 1.0
C      1  0.4078490000000  0.5604360000000  0.4887260000000 1.0
C      1  0.5504120000000  0.4353730000000  0.5026040000000 1.0
C      1  0.5692490000000  0.4917050000000  0.4491210000000 1.0
C      1  0.5540510000000  0.4039040000000  0.5121220000000 1.0
C      1  0.5125830000000  0.4554410000000  0.5350470000000 1.0
C      1  0.4426830000000  0.4901700000000  0.3999390000000 1.0
C      1  0.4508040000000  0.5727520000000  0.4197310000000 1.0
C      1  0.5246670000000  0.5777420000000  0.5658800000000 1.0
C      1  0.5750510000000  0.5645010000000  0.4980190000000 1.0
C      1  0.5202380000000  0.5674250000000  0.4241100000000 1.0
C      1  0.5017900000000  0.5743220000000  0.5409610000000 1.0
C      1  0.4220500000000  0.5062640000000  0.5161020000000 1.0
C      1  0.5922050000000  0.5480010000000  0.4552110000000 1.0
C      1  0.4061360000000  0.4677760000000  0.5068330000000 1.0
C      1  0.4297600000000  0.5741610000000  0.5785060000000 1.0
C      1  0.5736110000000  0.4023810000000  0.4868690000000 1.0
C      1  0.5336430000000  0.5947070000000  0.4734590000000 1.0
C      1  0.5698640000000  0.5586360000000  0.5699520000000 1.0
C      1  0.5053920000000  0.5270230000000  0.5618670000000 1.0
C      1  0.5880810000000  0.5366060000000  0.5767720000000 1.0
C      1  0.5059990000000  0.4116610000000  0.4128820000000 1.0
C      1  0.5101450000000  0.5042210000000  0.5109550000000 1.0
C      1  0.5441640000000  0.5527440000000  0.4433670000000 1.0
C      1  0.4717620000000  0.5129220000000  0.5051550000000 1.0
C      1  0.6013550000000  0.5018320000000  0.4445030000000 1.0
END
