TITL C-2847948-6138-315 -0.000337576304807661 125000 -265.03354736532 0 0 46 (C1) n - 1
REM
REM in /home/bkarasulu/work/CARBON/AIRSS/Generating-Clusters/AIREBO/with-SteepDescent/Only-C1/SD-CG-opt/Try1-1.4A-POS3A/HFTN-CG
REM
REM
REM
REM
REM
REM ./C.cell (11c1c37f851c82e70ff6c80c92926a4b)
REM
REM compiler GCC version 9.2.1 20190827 (Red Hat 9.2.1-1)
REM options -cpp -mtune=generic -march=x86-64 -g -O0 -fpre-include=/usr/include/finclude/math-vector-fortran.h
REM seed -2074761102 -1254475020 -210165757 -168863004 1534945931 -1063444240 129944855 -1085058691 -1277881809 1814546911 2081666440 -1552931171 -1367165849 -1966490902 -589771901 791592227 688420799 -1565578237 1149676983 -1099674525 782589671 125428505 1898172967 -951959429 -455548256 828657938 2021055292 -1408575496 -2123438819 8602976 23817043 -681068264 -1003532240
REM
CELL 1.54180   50.00000   50.00000   50.00000   90.00000   90.00000   90.00000
LATT -1
SFAC C  
C      1  0.4767090000000  0.4583230000000  0.4842760000000 1.0
C      1  0.4966150000000  0.4920090000000  0.5711840000000 1.0
C      1  0.4415030000000  0.5115420000000  0.5463750000000 1.0
C      1  0.5067180000000  0.5266910000000  0.4831000000000 1.0
C      1  0.4825830000000  0.5483390000000  0.4811130000000 1.0
C      1  0.5201230000000  0.4941600000000  0.4578250000000 1.0
C      1  0.5264690000000  0.4565410000000  0.4364490000000 1.0
C      1  0.5236490000000  0.4836980000000  0.4255580000000 1.0
C      1  0.5314240000000  0.4940710000000  0.5080010000000 1.0
C      1  0.5242950000000  0.4548050000000  0.4645150000000 1.0
C      1  0.5448440000000  0.5470970000000  0.5079670000000 1.0
C      1  0.4857960000000  0.5078650000000  0.5225090000000 1.0
C      1  0.4844960000000  0.5699190000000  0.5023890000000 1.0
C      1  0.5037820000000  0.5072430000000  0.4314270000000 1.0
C      1  0.4563200000000  0.4685650000000  0.5280740000000 1.0
C      1  0.4608600000000  0.5194120000000  0.4491680000000 1.0
C      1  0.5063630000000  0.5104820000000  0.5485160000000 1.0
C      1  0.4652120000000  0.5039430000000  0.4969450000000 1.0
C      1  0.5344480000000  0.5032820000000  0.5381840000000 1.0
C      1  0.5593570000000  0.4900610000000  0.4899610000000 1.0
C      1  0.4867230000000  0.4690790000000  0.5697910000000 1.0
C      1  0.4861410000000  0.5276460000000  0.4370350000000 1.0
C      1  0.5048710000000  0.4994850000000  0.4956270000000 1.0
C      1  0.4645660000000  0.5256070000000  0.5393690000000 1.0
C      1  0.5477580000000  0.5308420000000  0.5364650000000 1.0
C      1  0.5127710000000  0.4523950000000  0.5357810000000 1.0
C      1  0.4703010000000  0.4278680000000  0.4703290000000 1.0
C      1  0.5067690000000  0.5406390000000  0.5553260000000 1.0
C      1  0.5367370000000  0.5378070000000  0.4810520000000 1.0
C      1  0.5425350000000  0.5079310000000  0.4722690000000 1.0
C      1  0.4384690000000  0.4842790000000  0.5431350000000 1.0
C      1  0.5358120000000  0.4697460000000  0.5302800000000 1.0
C      1  0.5240330000000  0.5539500000000  0.4557720000000 1.0
C      1  0.5009410000000  0.4732530000000  0.4762980000000 1.0
C      1  0.4781520000000  0.5492520000000  0.5476440000000 1.0
C      1  0.4970400000000  0.5497590000000  0.4520970000000 1.0
C      1  0.4635780000000  0.5230470000000  0.4775890000000 1.0
C      1  0.4948260000000  0.5651830000000  0.5267910000000 1.0
C      1  0.5264720000000  0.5575470000000  0.5344250000000 1.0
C      1  0.4823720000000  0.4292660000000  0.4992970000000 1.0
C      1  0.4398190000000  0.5090600000000  0.4362420000000 1.0
C      1  0.4794260000000  0.4549280000000  0.5426600000000 1.0
C      1  0.4921740000000  0.4308020000000  0.5240350000000 1.0
C      1  0.4597270000000  0.4759640000000  0.5011410000000 1.0
C      1  0.5424490000000  0.4445970000000  0.4834570000000 1.0
C      1  0.5539740000000  0.4620180000000  0.5025560000000 1.0
END
