TITL C-2847953-8112-546 0.000837690605867193 125000 -187.874540459753 0 0 37 (C1) n - 1
REM
REM in /home/bkarasulu/work/CARBON/AIRSS/Generating-Clusters/AIREBO/with-SteepDescent/Only-C1/SD-CG-opt/Try1-1.4A-POS3A/HFTN-CG
REM
REM
REM
REM
REM
REM ./C.cell (11c1c37f851c82e70ff6c80c92926a4b)
REM
REM compiler GCC version 9.2.1 20190827 (Red Hat 9.2.1-1)
REM options -cpp -mtune=generic -march=x86-64 -g -O0 -fpre-include=/usr/include/finclude/math-vector-fortran.h
REM seed -869867381 -920619571 534984802 -352150677 1798762523 -1096922148 2072458403 -1675676589 1464058973 1711971220 306420499 1663575419 911985920 -458000911 -1903165247 -82796715 1639355873 480307800 -378847981 -1600631556 -955892214 -557366749 1568650550 -210640303 1923482154 190376430 1373504085 -1476060224 1966770058 -1257313559 -655842168 1702572379 635765673
REM
CELL 1.54180   50.00000   50.00000   50.00000   90.00000   90.00000   90.00000
LATT -1
SFAC C  
C      1  0.5092240000000  0.5167350000000  0.5472290000000 1.0
C      1  0.5276830000000  0.4802990000000  0.5273040000000 1.0
C      1  0.5120900000000  0.4901960000000  0.4367830000000 1.0
C      1  0.5142980000000  0.4598720000000  0.4627290000000 1.0
C      1  0.5556080000000  0.5084770000000  0.5232240000000 1.0
C      1  0.5519540000000  0.4918610000000  0.5481340000000 1.0
C      1  0.4817340000000  0.5148560000000  0.5568470000000 1.0
C      1  0.5313920000000  0.5267850000000  0.5234840000000 1.0
C      1  0.4614950000000  0.4468570000000  0.5371920000000 1.0
C      1  0.5206430000000  0.5552740000000  0.4824110000000 1.0
C      1  0.5427650000000  0.4303270000000  0.5119110000000 1.0
C      1  0.4983490000000  0.5616820000000  0.5262680000000 1.0
C      1  0.4916590000000  0.5287930000000  0.5207310000000 1.0
C      1  0.4550800000000  0.4307040000000  0.5568070000000 1.0
C      1  0.5176610000000  0.4517410000000  0.5141650000000 1.0
C      1  0.5380680000000  0.5719270000000  0.4690700000000 1.0
C      1  0.5515830000000  0.5014360000000  0.4753130000000 1.0
C      1  0.4622080000000  0.5258290000000  0.5094140000000 1.0
C      1  0.4615460000000  0.5418320000000  0.4831520000000 1.0
C      1  0.5094340000000  0.5016200000000  0.5106120000000 1.0
C      1  0.4513290000000  0.5162010000000  0.4650910000000 1.0
C      1  0.4468330000000  0.4917870000000  0.4862990000000 1.0
C      1  0.4917580000000  0.4574690000000  0.4993280000000 1.0
C      1  0.4349370000000  0.5457190000000  0.4622240000000 1.0
C      1  0.4570760000000  0.4902500000000  0.5145600000000 1.0
C      1  0.5574900000000  0.4925380000000  0.5002210000000 1.0
C      1  0.5228190000000  0.5527180000000  0.5122760000000 1.0
C      1  0.4727010000000  0.4910630000000  0.4649360000000 1.0
C      1  0.5490090000000  0.4632780000000  0.5063230000000 1.0
C      1  0.4831430000000  0.4351600000000  0.4801940000000 1.0
C      1  0.4612610000000  0.5108780000000  0.5394680000000 1.0
C      1  0.5233140000000  0.5034370000000  0.4632910000000 1.0
C      1  0.5016640000000  0.4849490000000  0.4819100000000 1.0
C      1  0.4873800000000  0.4839950000000  0.4378720000000 1.0
C      1  0.5066270000000  0.5276700000000  0.4691220000000 1.0
C      1  0.4884880000000  0.5515560000000  0.4750700000000 1.0
C      1  0.4696950000000  0.4642290000000  0.5190340000000 1.0
END
