TITL C-2848502-4955-252 0.00245665942629047 125000 -804.763164659604 0 0 151 (C1) n - 1
REM
REM in /home/bkarasulu/work/CARBON/AIRSS/Generating-Clusters/AIREBO/with-SteepDescent/Only-C1/SD-CG-opt/Try1-1.4A-POS3A/HFTN-CG
REM
REM
REM
REM
REM
REM ./C.cell (11c1c37f851c82e70ff6c80c92926a4b)
REM
REM compiler GCC version 9.2.1 20190827 (Red Hat 9.2.1-1)
REM options -cpp -mtune=generic -march=x86-64 -g -O0 -fpre-include=/usr/include/finclude/math-vector-fortran.h
REM seed 1764752556 -650916031 -668488459 -866180889 -2028554945 1117505520 -275036851 200560240 -1988130825 -1657454230 -15340375 1967538063 1806608746 1750295304 1392888688 2025847365 -110742729 -842455536 694983264 -671761486 1768003199 -669766264 1118285768 -1232296723 -750756741 -1718268242 -543687558 626076044 153962756 -1937541495 899719097 -584240630 -1130530890
REM
CELL 1.54180   50.00000   50.00000   50.00000   90.00000   90.00000   90.00000
LATT -1
SFAC C  
C      1  0.4652080000000  0.5581210000000  0.5427560000000 1.0
C      1  0.4404810000000  0.4644470000000  0.5474980000000 1.0
C      1  0.5476030000000  0.5788790000000  0.5423490000000 1.0
C      1  0.5343770000000  0.5095970000000  0.5288640000000 1.0
C      1  0.5563410000000  0.5725750000000  0.4668940000000 1.0
C      1  0.5328700000000  0.4275330000000  0.4988650000000 1.0
C      1  0.5046710000000  0.5710120000000  0.5695740000000 1.0
C      1  0.5367590000000  0.5174550000000  0.5865060000000 1.0
C      1  0.4263640000000  0.5496580000000  0.4786100000000 1.0
C      1  0.4997520000000  0.4806790000000  0.4061290000000 1.0
C      1  0.5057660000000  0.4433530000000  0.4508410000000 1.0
C      1  0.4937950000000  0.4784990000000  0.5608050000000 1.0
C      1  0.4504870000000  0.4758720000000  0.4234280000000 1.0
C      1  0.4736890000000  0.5083660000000  0.4993590000000 1.0
C      1  0.5289880000000  0.4680400000000  0.3983000000000 1.0
C      1  0.5212490000000  0.5196590000000  0.4230390000000 1.0
C      1  0.4086930000000  0.4442700000000  0.4733280000000 1.0
C      1  0.4791390000000  0.5374820000000  0.4839240000000 1.0
C      1  0.5945220000000  0.5178680000000  0.4652910000000 1.0
C      1  0.4946540000000  0.3990490000000  0.4654830000000 1.0
C      1  0.5594390000000  0.4079660000000  0.5070730000000 1.0
C      1  0.5310940000000  0.5471990000000  0.5156610000000 1.0
C      1  0.4120160000000  0.5030080000000  0.4802800000000 1.0
C      1  0.4385330000000  0.4569670000000  0.5882810000000 1.0
C      1  0.4989280000000  0.4404130000000  0.5264520000000 1.0
C      1  0.5082820000000  0.5305700000000  0.5348640000000 1.0
C      1  0.4814620000000  0.5937080000000  0.4474520000000 1.0
C      1  0.4076170000000  0.5199470000000  0.4524800000000 1.0
C      1  0.5147680000000  0.5323520000000  0.5682020000000 1.0
C      1  0.4559600000000  0.5028170000000  0.5716410000000 1.0
C      1  0.3956220000000  0.5325060000000  0.5161410000000 1.0
C      1  0.4058710000000  0.5225400000000  0.5392840000000 1.0
C      1  0.4421930000000  0.4406150000000  0.5069910000000 1.0
C      1  0.5865550000000  0.5112450000000  0.5484050000000 1.0
C      1  0.5025670000000  0.4984050000000  0.4652870000000 1.0
C      1  0.5358900000000  0.4824050000000  0.5084700000000 1.0
C      1  0.5662080000000  0.5635940000000  0.5236950000000 1.0
C      1  0.4670140000000  0.4289280000000  0.5237920000000 1.0
C      1  0.5432610000000  0.4832450000000  0.5471230000000 1.0
C      1  0.5707140000000  0.4967990000000  0.4247060000000 1.0
C      1  0.5780820000000  0.4750240000000  0.4417740000000 1.0
C      1  0.5216420000000  0.3973770000000  0.4712580000000 1.0
C      1  0.5294630000000  0.4674900000000  0.4542860000000 1.0
C      1  0.4781650000000  0.4949450000000  0.4497540000000 1.0
C      1  0.4503350000000  0.4634800000000  0.4492500000000 1.0
C      1  0.4361460000000  0.4265370000000  0.4773360000000 1.0
C      1  0.6163020000000  0.4936240000000  0.5078720000000 1.0
C      1  0.4995060000000  0.5714140000000  0.4886480000000 1.0
C      1  0.4394260000000  0.4899560000000  0.5250380000000 1.0
C      1  0.5421430000000  0.4517170000000  0.5225800000000 1.0
C      1  0.4891480000000  0.4543370000000  0.4969970000000 1.0
C      1  0.4546330000000  0.5491660000000  0.5720640000000 1.0
C      1  0.5548850000000  0.5101770000000  0.4724010000000 1.0
C      1  0.4241870000000  0.4346810000000  0.5509700000000 1.0
C      1  0.4849840000000  0.6001510000000  0.4778240000000 1.0
C      1  0.5221470000000  0.5525480000000  0.4451890000000 1.0
C      1  0.4910140000000  0.5285440000000  0.3986120000000 1.0
C      1  0.4578460000000  0.4333250000000  0.4539320000000 1.0
C      1  0.5712960000000  0.4314830000000  0.4885680000000 1.0
C      1  0.4455970000000  0.5815910000000  0.5334770000000 1.0
C      1  0.5190130000000  0.4593910000000  0.5463040000000 1.0
C      1  0.5431540000000  0.6058470000000  0.5033650000000 1.0
C      1  0.4425330000000  0.4780710000000  0.4741120000000 1.0
C      1  0.4479080000000  0.5513200000000  0.4523440000000 1.0
C      1  0.4867030000000  0.5000070000000  0.5861330000000 1.0
C      1  0.5666950000000  0.5300320000000  0.5636660000000 1.0
C      1  0.5093610000000  0.4279820000000  0.4215270000000 1.0
C      1  0.5051640000000  0.4965650000000  0.5049300000000 1.0
C      1  0.5498310000000  0.5343310000000  0.4906430000000 1.0
C      1  0.4444400000000  0.4343030000000  0.5732250000000 1.0
C      1  0.5918600000000  0.4425710000000  0.5308460000000 1.0
C      1  0.5563180000000  0.4851020000000  0.4873230000000 1.0
C      1  0.5870710000000  0.4784040000000  0.4994910000000 1.0
C      1  0.4719190000000  0.4263230000000  0.5573800000000 1.0
C      1  0.4839270000000  0.4303290000000  0.4734280000000 1.0
C      1  0.4757820000000  0.5320160000000  0.5237030000000 1.0
C      1  0.4862050000000  0.6090530000000  0.5099560000000 1.0
C      1  0.4324290000000  0.5365830000000  0.5492510000000 1.0
C      1  0.4663180000000  0.5268450000000  0.5906330000000 1.0
C      1  0.4877610000000  0.4680570000000  0.4353350000000 1.0
C      1  0.5476000000000  0.4910390000000  0.4100070000000 1.0
C      1  0.4287540000000  0.5726050000000  0.5109830000000 1.0
C      1  0.4075440000000  0.5330900000000  0.4902060000000 1.0
C      1  0.4990580000000  0.4152940000000  0.5640630000000 1.0
C      1  0.5191640000000  0.4365250000000  0.5714700000000 1.0
C      1  0.5307580000000  0.4264140000000  0.4664990000000 1.0
C      1  0.4803640000000  0.5030390000000  0.3985010000000 1.0
C      1  0.5088040000000  0.4727280000000  0.4807900000000 1.0
C      1  0.5176450000000  0.4148210000000  0.5379810000000 1.0
C      1  0.5903280000000  0.4853370000000  0.4663490000000 1.0
C      1  0.5039240000000  0.5824060000000  0.5197270000000 1.0
C      1  0.4636680000000  0.5863870000000  0.4980270000000 1.0
C      1  0.5704780000000  0.4896340000000  0.5276560000000 1.0
C      1  0.4374400000000  0.5400610000000  0.5157830000000 1.0
C      1  0.5685720000000  0.4733430000000  0.5650540000000 1.0
C      1  0.5451130000000  0.5360390000000  0.4297170000000 1.0
C      1  0.4642780000000  0.5565640000000  0.5029810000000 1.0
C      1  0.4397830000000  0.5109340000000  0.4982660000000 1.0
C      1  0.5360100000000  0.5699100000000  0.5674280000000 1.0
C      1  0.5626560000000  0.4994750000000  0.5780250000000 1.0
C      1  0.5310410000000  0.5821280000000  0.4462660000000 1.0
C      1  0.5304690000000  0.5951150000000  0.5271020000000 1.0
C      1  0.4949730000000  0.5383900000000  0.4300100000000 1.0
C      1  0.5228370000000  0.5496980000000  0.4768050000000 1.0
C      1  0.5683750000000  0.5221820000000  0.4439760000000 1.0
C      1  0.5109550000000  0.5985920000000  0.4365440000000 1.0
C      1  0.4382030000000  0.5798410000000  0.4791270000000 1.0
C      1  0.4116400000000  0.4716950000000  0.4769060000000 1.0
C      1  0.4964090000000  0.5619730000000  0.5403110000000 1.0
C      1  0.4772100000000  0.4307650000000  0.4259440000000 1.0
C      1  0.5540170000000  0.4527350000000  0.4359340000000 1.0
C      1  0.5915070000000  0.5140450000000  0.5167320000000 1.0
C      1  0.4572810000000  0.5947110000000  0.5585610000000 1.0
C      1  0.5563840000000  0.5337100000000  0.5339580000000 1.0
C      1  0.4517950000000  0.4037200000000  0.4949810000000 1.0
C      1  0.5475970000000  0.4205650000000  0.5350990000000 1.0
C      1  0.4812700000000  0.4109080000000  0.5012190000000 1.0
C      1  0.4512170000000  0.5072630000000  0.4664410000000 1.0
C      1  0.5617910000000  0.4290810000000  0.4563020000000 1.0
C      1  0.5690270000000  0.4530010000000  0.5433800000000 1.0
C      1  0.4522930000000  0.4692690000000  0.5016090000000 1.0
C      1  0.4952040000000  0.4992130000000  0.5364300000000 1.0
C      1  0.4483050000000  0.5860570000000  0.4481180000000 1.0
C      1  0.5091670000000  0.4051310000000  0.5088560000000 1.0
C      1  0.4697760000000  0.4580260000000  0.5509300000000 1.0
C      1  0.4687810000000  0.4554240000000  0.4101010000000 1.0
C      1  0.4573450000000  0.5023470000000  0.4156850000000 1.0
C      1  0.4652820000000  0.5248460000000  0.4399210000000 1.0
C      1  0.4305630000000  0.4848740000000  0.5708930000000 1.0
C      1  0.5393200000000  0.5732310000000  0.4950100000000 1.0
C      1  0.5917840000000  0.4477320000000  0.5040160000000 1.0
C      1  0.4167640000000  0.4426580000000  0.5240810000000 1.0
C      1  0.4917280000000  0.5457250000000  0.5872980000000 1.0
C      1  0.5353360000000  0.3877690000000  0.4959400000000 1.0
C      1  0.5485430000000  0.5489990000000  0.5815270000000 1.0
C      1  0.4109600000000  0.4921390000000  0.5440610000000 1.0
C      1  0.5091210000000  0.4602330000000  0.5850460000000 1.0
C      1  0.5071480000000  0.5227750000000  0.4833530000000 1.0
C      1  0.4775080000000  0.5639160000000  0.4633850000000 1.0
C      1  0.5335130000000  0.4438030000000  0.4128470000000 1.0
C      1  0.4200980000000  0.5370870000000  0.4389240000000 1.0
C      1  0.5541880000000  0.4573380000000  0.4753150000000 1.0
C      1  0.5775830000000  0.5629420000000  0.4916470000000 1.0
C      1  0.4552950000000  0.5133430000000  0.5423900000000 1.0
C      1  0.4026610000000  0.4662870000000  0.5240310000000 1.0
C      1  0.5112890000000  0.5042160000000  0.6005380000000 1.0
C      1  0.5824040000000  0.5297180000000  0.4938610000000 1.0
C      1  0.5213820000000  0.4891400000000  0.4309940000000 1.0
C      1  0.5802870000000  0.5499030000000  0.4596780000000 1.0
C      1  0.4720920000000  0.5781010000000  0.5763520000000 1.0
C      1  0.4776010000000  0.4736550000000  0.5224980000000 1.0
END
