TITL C-2847945-6269-671 0.00269014297891087 125000 -404.230021132184 0 0 74 (C1) n - 1
REM
REM in /home/bkarasulu/work/CARBON/AIRSS/Generating-Clusters/AIREBO/with-SteepDescent/Only-C1/SD-CG-opt/Try1-1.4A-POS3A/HFTN-CG
REM
REM
REM
REM
REM
REM ./C.cell (11c1c37f851c82e70ff6c80c92926a4b)
REM
REM compiler GCC version 9.2.1 20190827 (Red Hat 9.2.1-1)
REM options -cpp -mtune=generic -march=x86-64 -g -O0 -fpre-include=/usr/include/finclude/math-vector-fortran.h
REM seed 523908842 1029562381 -1337964790 2050321336 -785754140 452514671 386898181 1506700385 1500662740 -599834479 -1183952654 -661379037 1723895620 -1221071108 1978497026 -1618045400 -388650772 -2096707631 -1396171250 -282429655 -1065821855 1799050982 869133009 -307206313 -1465927962 -1864807818 73012080 -1096050739 1554705781 -1949911068 296290736 1113666867 1263178274
REM
CELL 1.54180   50.00000   50.00000   50.00000   90.00000   90.00000   90.00000
LATT -1
SFAC C  
C      1  0.5444840000000  0.4630890000000  0.4490440000000 1.0
C      1  0.5258180000000  0.5692380000000  0.5081330000000 1.0
C      1  0.4539260000000  0.5292260000000  0.4478910000000 1.0
C      1  0.5396110000000  0.4307820000000  0.4846740000000 1.0
C      1  0.5019370000000  0.4334690000000  0.5344470000000 1.0
C      1  0.4778450000000  0.4495170000000  0.4664780000000 1.0
C      1  0.4204440000000  0.5076930000000  0.5175820000000 1.0
C      1  0.4871170000000  0.4455750000000  0.5573010000000 1.0
C      1  0.4769830000000  0.4204170000000  0.5153570000000 1.0
C      1  0.5565430000000  0.5687460000000  0.5010980000000 1.0
C      1  0.4592760000000  0.4871910000000  0.5036530000000 1.0
C      1  0.4652950000000  0.4878910000000  0.5371160000000 1.0
C      1  0.4668840000000  0.5452610000000  0.4281490000000 1.0
C      1  0.6044560000000  0.4741730000000  0.4963110000000 1.0
C      1  0.4308610000000  0.4595290000000  0.4516290000000 1.0
C      1  0.4374220000000  0.4797130000000  0.4282190000000 1.0
C      1  0.4814750000000  0.4728640000000  0.4899960000000 1.0
C      1  0.5385130000000  0.5141350000000  0.5043710000000 1.0
C      1  0.5049480000000  0.5651270000000  0.5347760000000 1.0
C      1  0.3804810000000  0.4931780000000  0.4894690000000 1.0
C      1  0.4324260000000  0.4735940000000  0.5008930000000 1.0
C      1  0.4794390000000  0.5720600000000  0.5145430000000 1.0
C      1  0.5174390000000  0.4934400000000  0.5541040000000 1.0
C      1  0.5162570000000  0.4764950000000  0.5804410000000 1.0
C      1  0.5064350000000  0.5794890000000  0.4860820000000 1.0
C      1  0.4588440000000  0.4278990000000  0.4977700000000 1.0
C      1  0.5119030000000  0.4334690000000  0.5020080000000 1.0
C      1  0.4655260000000  0.5350360000000  0.4727380000000 1.0
C      1  0.4494930000000  0.5667550000000  0.5229670000000 1.0
C      1  0.5671610000000  0.5519870000000  0.5436300000000 1.0
C      1  0.5056610000000  0.4387460000000  0.4519140000000 1.0
C      1  0.5057050000000  0.4697420000000  0.4667840000000 1.0
C      1  0.4701310000000  0.5042460000000  0.5665210000000 1.0
C      1  0.5337680000000  0.4455210000000  0.5330170000000 1.0
C      1  0.4939640000000  0.5168440000000  0.5570690000000 1.0
C      1  0.4947670000000  0.5449300000000  0.5019730000000 1.0
C      1  0.4896170000000  0.5579510000000  0.4383260000000 1.0
C      1  0.5389640000000  0.5466760000000  0.5448720000000 1.0
C      1  0.5673200000000  0.5883110000000  0.4853030000000 1.0
C      1  0.5640750000000  0.4913050000000  0.5257090000000 1.0
C      1  0.5721000000000  0.5135680000000  0.4510920000000 1.0
C      1  0.5106550000000  0.5089550000000  0.4725040000000 1.0
C      1  0.4489510000000  0.4400490000000  0.4670520000000 1.0
C      1  0.5352390000000  0.4854620000000  0.4729190000000 1.0
C      1  0.5594860000000  0.5053930000000  0.4278010000000 1.0
C      1  0.5371230000000  0.4885670000000  0.4331270000000 1.0
C      1  0.5054790000000  0.4636610000000  0.5084730000000 1.0
C      1  0.4642600000000  0.4585200000000  0.5502310000000 1.0
C      1  0.4080060000000  0.4926460000000  0.4912160000000 1.0
C      1  0.4293880000000  0.5799280000000  0.5316910000000 1.0
C      1  0.5145910000000  0.4019020000000  0.4961730000000 1.0
C      1  0.4431170000000  0.5130610000000  0.5315610000000 1.0
C      1  0.5651460000000  0.4998580000000  0.4734750000000 1.0
C      1  0.5018590000000  0.4530850000000  0.5799150000000 1.0
C      1  0.5137570000000  0.5020680000000  0.4436630000000 1.0
C      1  0.5713790000000  0.5489990000000  0.5152660000000 1.0
C      1  0.4916790000000  0.5558760000000  0.4700110000000 1.0
C      1  0.5347110000000  0.4379940000000  0.4577750000000 1.0
C      1  0.5498920000000  0.4326490000000  0.5139880000000 1.0
C      1  0.4974850000000  0.4911460000000  0.5266470000000 1.0
C      1  0.4885060000000  0.5397690000000  0.5420040000000 1.0
C      1  0.4644490000000  0.5193760000000  0.4984400000000 1.0
C      1  0.4337700000000  0.4464850000000  0.4956510000000 1.0
C      1  0.4620990000000  0.5379170000000  0.5258050000000 1.0
C      1  0.4864940000000  0.5993040000000  0.4964180000000 1.0
C      1  0.5832470000000  0.4911860000000  0.4976300000000 1.0
C      1  0.5240780000000  0.5365280000000  0.5160370000000 1.0
C      1  0.5844950000000  0.5575940000000  0.5630690000000 1.0
C      1  0.4967790000000  0.5113460000000  0.5012090000000 1.0
C      1  0.5371780000000  0.4762960000000  0.5349140000000 1.0
C      1  0.4375820000000  0.5072970000000  0.4443000000000 1.0
C      1  0.4241540000000  0.4877730000000  0.4645420000000 1.0
C      1  0.5305590000000  0.4844530000000  0.5052610000000 1.0
C      1  0.5690900000000  0.5199820000000  0.5077860000000 1.0
END
