TITL C-2848494-1720-722 0.000822582366230401 125000 -437.498853319153 0 0 82 (C1) n - 1
REM
REM in /home/bkarasulu/work/CARBON/AIRSS/Generating-Clusters/AIREBO/with-SteepDescent/Only-C1/SD-CG-opt/Try1-1.4A-POS3A/HFTN-CG
REM
REM
REM
REM
REM
REM ./C.cell (11c1c37f851c82e70ff6c80c92926a4b)
REM
REM compiler GCC version 9.2.1 20190827 (Red Hat 9.2.1-1)
REM options -cpp -mtune=generic -march=x86-64 -g -O0 -fpre-include=/usr/include/finclude/math-vector-fortran.h
REM seed 1778948774 26828706 1215135028 1140448624 -291382930 2017737480 -829001471 1896873663 1250810572 1683144355 -640348367 -1927197368 1675943389 1890755490 1580965648 319684251 917500982 428726125 -1036627638 1583649964 1764874232 1776886798 -1764323208 -1694097703 1531911322 862882715 -1482363658 128613944 -1598942093 1015720124 -347033652 608678531 1075009782
REM
CELL 1.54180   50.00000   50.00000   50.00000   90.00000   90.00000   90.00000
LATT -1
SFAC C  
C      1  0.5384480000000  0.5082920000000  0.4269730000000 1.0
C      1  0.4639870000000  0.4764400000000  0.5659760000000 1.0
C      1  0.4787480000000  0.5019390000000  0.5242780000000 1.0
C      1  0.4380720000000  0.5405830000000  0.5173000000000 1.0
C      1  0.4136170000000  0.5186810000000  0.5149310000000 1.0
C      1  0.5125960000000  0.4435800000000  0.5084790000000 1.0
C      1  0.4804380000000  0.4982950000000  0.4667460000000 1.0
C      1  0.5059660000000  0.5581690000000  0.4451580000000 1.0
C      1  0.5287890000000  0.5601620000000  0.5499060000000 1.0
C      1  0.5497530000000  0.4155160000000  0.5118420000000 1.0
C      1  0.4184840000000  0.5161460000000  0.4675920000000 1.0
C      1  0.4845170000000  0.5790360000000  0.4599550000000 1.0
C      1  0.4410280000000  0.5139310000000  0.4470630000000 1.0
C      1  0.5118830000000  0.5088120000000  0.5277100000000 1.0
C      1  0.5522690000000  0.4979150000000  0.4515190000000 1.0
C      1  0.4481370000000  0.5128840000000  0.5342580000000 1.0
C      1  0.5544990000000  0.5675970000000  0.4917750000000 1.0
C      1  0.4431120000000  0.4499180000000  0.5183610000000 1.0
C      1  0.4779130000000  0.4197930000000  0.4885450000000 1.0
C      1  0.5120120000000  0.4607130000000  0.5366930000000 1.0
C      1  0.4891240000000  0.5278650000000  0.4811190000000 1.0
C      1  0.5420880000000  0.5099750000000  0.4004690000000 1.0
C      1  0.4889630000000  0.4045890000000  0.5118970000000 1.0
C      1  0.4912330000000  0.5305230000000  0.4406550000000 1.0
C      1  0.5715310000000  0.4873630000000  0.5066370000000 1.0
C      1  0.5143150000000  0.5095380000000  0.4487630000000 1.0
C      1  0.5483970000000  0.5210170000000  0.4763430000000 1.0
C      1  0.5172210000000  0.5074130000000  0.5612670000000 1.0
C      1  0.4900710000000  0.4515450000000  0.4888250000000 1.0
C      1  0.5671330000000  0.5393840000000  0.5325530000000 1.0
C      1  0.4362420000000  0.5639750000000  0.5370130000000 1.0
C      1  0.4843110000000  0.5534540000000  0.5330540000000 1.0
C      1  0.5134700000000  0.4901000000000  0.5010380000000 1.0
C      1  0.5361600000000  0.4821650000000  0.5467080000000 1.0
C      1  0.5094090000000  0.5700630000000  0.5318320000000 1.0
C      1  0.5007360000000  0.4236860000000  0.4628140000000 1.0
C      1  0.4556440000000  0.4900550000000  0.4561370000000 1.0
C      1  0.4761520000000  0.4447910000000  0.4585440000000 1.0
C      1  0.4451660000000  0.4670390000000  0.4694820000000 1.0
C      1  0.4929800000000  0.4134360000000  0.5412490000000 1.0
C      1  0.5027200000000  0.5714490000000  0.5024820000000 1.0
C      1  0.4881890000000  0.5216790000000  0.5717530000000 1.0
C      1  0.4782400000000  0.5449210000000  0.5643250000000 1.0
C      1  0.5050750000000  0.4649870000000  0.4155790000000 1.0
C      1  0.4319590000000  0.4742350000000  0.5000400000000 1.0
C      1  0.5360740000000  0.5356000000000  0.5587450000000 1.0
C      1  0.4834850000000  0.5264780000000  0.4110830000000 1.0
C      1  0.5522480000000  0.4677050000000  0.4544710000000 1.0
C      1  0.4595060000000  0.5661050000000  0.5503610000000 1.0
C      1  0.4551940000000  0.5475100000000  0.4887060000000 1.0
C      1  0.4401330000000  0.4966600000000  0.5556450000000 1.0
C      1  0.5377360000000  0.5202630000000  0.5087010000000 1.0
C      1  0.5416980000000  0.4810480000000  0.5157310000000 1.0
C      1  0.4417730000000  0.5163270000000  0.4866780000000 1.0
C      1  0.5672380000000  0.5474160000000  0.4686910000000 1.0
C      1  0.5187290000000  0.4839120000000  0.4681800000000 1.0
C      1  0.5610250000000  0.4156630000000  0.5609200000000 1.0
C      1  0.4780000000000  0.5726850000000  0.4858580000000 1.0
C      1  0.5151620000000  0.4681600000000  0.4389780000000 1.0
C      1  0.5129300000000  0.4851200000000  0.5875530000000 1.0
C      1  0.4516460000000  0.4413410000000  0.4899320000000 1.0
C      1  0.5429780000000  0.4682380000000  0.4862280000000 1.0
C      1  0.4866980000000  0.4802100000000  0.4917230000000 1.0
C      1  0.5189470000000  0.4100050000000  0.5113380000000 1.0
C      1  0.4641720000000  0.5338920000000  0.4588210000000 1.0
C      1  0.5499950000000  0.5122810000000  0.5390970000000 1.0
C      1  0.4997490000000  0.5900590000000  0.4348170000000 1.0
C      1  0.5249660000000  0.5626280000000  0.4878500000000 1.0
C      1  0.5723700000000  0.5785700000000  0.4648820000000 1.0
C      1  0.5266450000000  0.4448940000000  0.4586800000000 1.0
C      1  0.5193450000000  0.5368460000000  0.4683890000000 1.0
C      1  0.4835030000000  0.5314840000000  0.5116300000000 1.0
C      1  0.4578100000000  0.4929920000000  0.4990220000000 1.0
C      1  0.4501690000000  0.4549160000000  0.5435690000000 1.0
C      1  0.4853890000000  0.4936670000000  0.5810960000000 1.0
C      1  0.5161190000000  0.4302120000000  0.5458920000000 1.0
C      1  0.5754610000000  0.5072390000000  0.4916380000000 1.0
C      1  0.4848630000000  0.4742600000000  0.5412250000000 1.0
C      1  0.4103480000000  0.4948590000000  0.5081220000000 1.0
C      1  0.5386490000000  0.4366620000000  0.4894190000000 1.0
C      1  0.5653870000000  0.5601360000000  0.5192650000000 1.0
C      1  0.5430620000000  0.4203070000000  0.5414280000000 1.0
END
