TITL C-2847946-5639-283 -0.000842327131520722 125000 -531.915084566241 0 0 93 (C1) n - 1
REM
REM in /home/bkarasulu/work/CARBON/AIRSS/Generating-Clusters/AIREBO/with-SteepDescent/Only-C1/SD-CG-opt/Try1-1.4A-POS3A/HFTN-CG
REM
REM
REM
REM
REM
REM ./C.cell (11c1c37f851c82e70ff6c80c92926a4b)
REM
REM compiler GCC version 9.2.1 20190827 (Red Hat 9.2.1-1)
REM options -cpp -mtune=generic -march=x86-64 -g -O0 -fpre-include=/usr/include/finclude/math-vector-fortran.h
REM seed -1083769510 397028442 -2102958817 -645832309 -1988988704 -1338296942 -1853446464 2139410138 -1734223390 -2057973556 -356902452 2014529470 871824315 642546396 -1385281234 -934141055 251633572 -1501583602 2044019143 -1058205222 1836958654 -880945915 645198557 1679266738 -666473634 -131768764 1018909412 -1081511626 -680708785 431918397 1089181446 1557686259 1830048625
REM
CELL 1.54180   50.00000   50.00000   50.00000   90.00000   90.00000   90.00000
LATT -1
SFAC C  
C      1  0.5389750000000  0.5653890000000  0.5126780000000 1.0
C      1  0.4504940000000  0.5552930000000  0.4720060000000 1.0
C      1  0.5608680000000  0.4547780000000  0.5210680000000 1.0
C      1  0.4825250000000  0.5328650000000  0.5700730000000 1.0
C      1  0.5165510000000  0.4947510000000  0.4676000000000 1.0
C      1  0.4653890000000  0.5398690000000  0.5181400000000 1.0
C      1  0.4453180000000  0.4424450000000  0.4974340000000 1.0
C      1  0.5126670000000  0.4175680000000  0.4739700000000 1.0
C      1  0.5920510000000  0.4894800000000  0.4706110000000 1.0
C      1  0.4739300000000  0.4769750000000  0.5424490000000 1.0
C      1  0.4520980000000  0.4160670000000  0.5043920000000 1.0
C      1  0.5584660000000  0.4512320000000  0.4427900000000 1.0
C      1  0.4743120000000  0.4670050000000  0.5099170000000 1.0
C      1  0.4347180000000  0.5540460000000  0.5138630000000 1.0
C      1  0.5453910000000  0.5021800000000  0.4331990000000 1.0
C      1  0.5468370000000  0.5247180000000  0.5061570000000 1.0
C      1  0.4675710000000  0.4557060000000  0.4785440000000 1.0
C      1  0.4530650000000  0.5193400000000  0.4549620000000 1.0
C      1  0.5111500000000  0.5392280000000  0.5830610000000 1.0
C      1  0.5304240000000  0.5473490000000  0.4851540000000 1.0
C      1  0.5470140000000  0.5332580000000  0.4365240000000 1.0
C      1  0.5163040000000  0.5482980000000  0.4362120000000 1.0
C      1  0.4366970000000  0.5149730000000  0.5526790000000 1.0
C      1  0.4153040000000  0.5089730000000  0.5101910000000 1.0
C      1  0.4757680000000  0.5080320000000  0.4351150000000 1.0
C      1  0.5264060000000  0.5119430000000  0.5379330000000 1.0
C      1  0.4741670000000  0.5055150000000  0.5863740000000 1.0
C      1  0.5922780000000  0.5015510000000  0.5155050000000 1.0
C      1  0.4831810000000  0.4794450000000  0.5946500000000 1.0
C      1  0.4270660000000  0.4865250000000  0.4927740000000 1.0
C      1  0.4970400000000  0.5843120000000  0.4682160000000 1.0
C      1  0.5526370000000  0.4818750000000  0.5398850000000 1.0
C      1  0.4922870000000  0.5325090000000  0.5375990000000 1.0
C      1  0.5101230000000  0.4748560000000  0.5905850000000 1.0
C      1  0.5191310000000  0.4965070000000  0.4255210000000 1.0
C      1  0.4227320000000  0.5208750000000  0.4492940000000 1.0
C      1  0.4847280000000  0.5668620000000  0.5108190000000 1.0
C      1  0.4231110000000  0.5396590000000  0.4719380000000 1.0
C      1  0.5748780000000  0.5396540000000  0.4442340000000 1.0
C      1  0.5343970000000  0.5302540000000  0.5731210000000 1.0
C      1  0.6068250000000  0.4896950000000  0.4948290000000 1.0
C      1  0.4294700000000  0.4612570000000  0.5097500000000 1.0
C      1  0.5783150000000  0.5450370000000  0.4754550000000 1.0
C      1  0.4605050000000  0.5008750000000  0.5607510000000 1.0
C      1  0.4118350000000  0.4777670000000  0.4687240000000 1.0
C      1  0.5592130000000  0.4476380000000  0.4940410000000 1.0
C      1  0.4797160000000  0.4128260000000  0.5089640000000 1.0
C      1  0.5671800000000  0.5577830000000  0.4967810000000 1.0
C      1  0.5011060000000  0.5189070000000  0.4280500000000 1.0
C      1  0.4968590000000  0.4464570000000  0.4654430000000 1.0
C      1  0.5079720000000  0.4709110000000  0.4449260000000 1.0
C      1  0.5430180000000  0.4891570000000  0.4882120000000 1.0
C      1  0.4984330000000  0.5429970000000  0.4958210000000 1.0
C      1  0.4112990000000  0.4964250000000  0.4437270000000 1.0
C      1  0.4274300000000  0.4693670000000  0.5367400000000 1.0
C      1  0.4725550000000  0.5442580000000  0.4514890000000 1.0
C      1  0.4176150000000  0.5355890000000  0.4999340000000 1.0
C      1  0.4607770000000  0.5257780000000  0.4874610000000 1.0
C      1  0.5094480000000  0.4499780000000  0.4966830000000 1.0
C      1  0.5859390000000  0.5151570000000  0.4619650000000 1.0
C      1  0.5494500000000  0.5041770000000  0.5617110000000 1.0
C      1  0.5204630000000  0.5703650000000  0.4621400000000 1.0
C      1  0.4547360000000  0.5762750000000  0.5056070000000 1.0
C      1  0.4774240000000  0.4800190000000  0.4371990000000 1.0
C      1  0.5689970000000  0.5421730000000  0.5251730000000 1.0
C      1  0.5717630000000  0.4632370000000  0.4701530000000 1.0
C      1  0.5543380000000  0.4886080000000  0.4561540000000 1.0
C      1  0.4702660000000  0.5811800000000  0.4766810000000 1.0
C      1  0.5351850000000  0.4543360000000  0.4343180000000 1.0
C      1  0.4551760000000  0.5389740000000  0.5505640000000 1.0
C      1  0.4593820000000  0.4921930000000  0.4925870000000 1.0
C      1  0.5039180000000  0.4452510000000  0.5462390000000 1.0
C      1  0.4969160000000  0.4002740000000  0.4901570000000 1.0
C      1  0.5289230000000  0.5225150000000  0.4632140000000 1.0
C      1  0.5449770000000  0.5393590000000  0.5435850000000 1.0
C      1  0.5167540000000  0.5500470000000  0.5306610000000 1.0
C      1  0.5360830000000  0.4339040000000  0.4876210000000 1.0
C      1  0.5624800000000  0.4954880000000  0.5131610000000 1.0
C      1  0.4731210000000  0.4377230000000  0.5542390000000 1.0
C      1  0.4577340000000  0.4661150000000  0.4507120000000 1.0
C      1  0.4913780000000  0.4388760000000  0.5186800000000 1.0
C      1  0.5949460000000  0.5256230000000  0.5282730000000 1.0
C      1  0.4682260000000  0.4640440000000  0.5733910000000 1.0
C      1  0.4976290000000  0.4999530000000  0.5459000000000 1.0
C      1  0.5368680000000  0.4523160000000  0.5452190000000 1.0
C      1  0.5147950000000  0.4740030000000  0.5596430000000 1.0
C      1  0.5157140000000  0.4776270000000  0.5017470000000 1.0
C      1  0.4985480000000  0.5375760000000  0.4631660000000 1.0
C      1  0.4307890000000  0.4697560000000  0.4448140000000 1.0
C      1  0.4198450000000  0.4987750000000  0.5370650000000 1.0
C      1  0.4432330000000  0.4541300000000  0.5540220000000 1.0
C      1  0.4922390000000  0.4976440000000  0.4915020000000 1.0
C      1  0.5141440000000  0.5174500000000  0.5077220000000 1.0
END
