TITL C-2847956-8218-11 -0.00155188361670847 125000 -391.074485294041 0 0 75 (C1) n - 1
REM
REM in /home/bkarasulu/work/CARBON/AIRSS/Generating-Clusters/AIREBO/with-SteepDescent/Only-C1/SD-CG-opt/Try1-1.4A-POS3A/HFTN-CG
REM
REM
REM
REM
REM
REM ./C.cell (11c1c37f851c82e70ff6c80c92926a4b)
REM
REM compiler GCC version 9.2.1 20190827 (Red Hat 9.2.1-1)
REM options -cpp -mtune=generic -march=x86-64 -g -O0 -fpre-include=/usr/include/finclude/math-vector-fortran.h
REM seed 943603416 -584309288 831538770 -129406111 844202815 -1257933057 1803698869 1220221114 203699062 1209624464 1490330738 213585884 -1564651860 -682674021 2132637020 -463440 180457153 -1064485844 -1331183461 1958428591 174905422 1359753602 -586036182 -1046503991 -1568780461 1313815819 -747413364 -130561106 -912642994 -1853626371 -664017525 1639357861 1476243410
REM
CELL 1.54180   50.00000   50.00000   50.00000   90.00000   90.00000   90.00000
LATT -1
SFAC C  
C      1  0.5056900000000  0.4650290000000  0.4741850000000 1.0
C      1  0.4744130000000  0.5005640000000  0.5646180000000 1.0
C      1  0.5175570000000  0.5803280000000  0.4861210000000 1.0
C      1  0.4418710000000  0.5496300000000  0.4982260000000 1.0
C      1  0.4759280000000  0.5122170000000  0.5326510000000 1.0
C      1  0.5193220000000  0.5473750000000  0.5658710000000 1.0
C      1  0.4652140000000  0.5006740000000  0.5025010000000 1.0
C      1  0.4699500000000  0.4375200000000  0.4543180000000 1.0
C      1  0.5622450000000  0.4804110000000  0.4366020000000 1.0
C      1  0.4788960000000  0.4693790000000  0.4537060000000 1.0
C      1  0.4650190000000  0.5545150000000  0.4555960000000 1.0
C      1  0.5212200000000  0.5212020000000  0.5036540000000 1.0
C      1  0.4980690000000  0.5507280000000  0.5476640000000 1.0
C      1  0.4407090000000  0.5606620000000  0.4708680000000 1.0
C      1  0.4973530000000  0.4780120000000  0.5733280000000 1.0
C      1  0.5793910000000  0.5384200000000  0.5133900000000 1.0
C      1  0.5587700000000  0.5536490000000  0.5250230000000 1.0
C      1  0.5188960000000  0.5904960000000  0.5240530000000 1.0
C      1  0.4988750000000  0.5313370000000  0.5273270000000 1.0
C      1  0.5125520000000  0.5319860000000  0.5887180000000 1.0
C      1  0.5012890000000  0.4839790000000  0.4987970000000 1.0
C      1  0.4347960000000  0.4764060000000  0.4257750000000 1.0
C      1  0.5808420000000  0.4844910000000  0.4846540000000 1.0
C      1  0.4463880000000  0.4905150000000  0.5723940000000 1.0
C      1  0.4756020000000  0.5015390000000  0.4137490000000 1.0
C      1  0.4623200000000  0.4817490000000  0.4267110000000 1.0
C      1  0.5038160000000  0.4835570000000  0.4354860000000 1.0
C      1  0.4815320000000  0.4215900000000  0.5430330000000 1.0
C      1  0.4577440000000  0.4851790000000  0.4752360000000 1.0
C      1  0.5147330000000  0.4125210000000  0.5083630000000 1.0
C      1  0.5340180000000  0.5441320000000  0.4820530000000 1.0
C      1  0.5373710000000  0.5103780000000  0.5660280000000 1.0
C      1  0.4696090000000  0.4760860000000  0.5218890000000 1.0
C      1  0.5030770000000  0.4600650000000  0.5536750000000 1.0
C      1  0.5338270000000  0.4509940000000  0.4774120000000 1.0
C      1  0.4948280000000  0.5214180000000  0.4264930000000 1.0
C      1  0.4888680000000  0.4538340000000  0.5084840000000 1.0
C      1  0.4551560000000  0.4287510000000  0.4753750000000 1.0
C      1  0.5159220000000  0.4761740000000  0.5275930000000 1.0
C      1  0.4566690000000  0.4428220000000  0.5057600000000 1.0
C      1  0.4997430000000  0.5080210000000  0.5843440000000 1.0
C      1  0.4424450000000  0.5110040000000  0.5384400000000 1.0
C      1  0.5451870000000  0.5163470000000  0.5272800000000 1.0
C      1  0.5600160000000  0.4904660000000  0.5322580000000 1.0
C      1  0.4450790000000  0.4583300000000  0.5337280000000 1.0
C      1  0.5745220000000  0.4777160000000  0.4146340000000 1.0
C      1  0.5393010000000  0.4725400000000  0.5031380000000 1.0
C      1  0.5747280000000  0.5162720000000  0.4907610000000 1.0
C      1  0.5086510000000  0.4369120000000  0.5293960000000 1.0
C      1  0.4581540000000  0.4306240000000  0.5444510000000 1.0
C      1  0.4188540000000  0.4783920000000  0.4482860000000 1.0
C      1  0.4278890000000  0.5466670000000  0.5208370000000 1.0
C      1  0.5303110000000  0.3910880000000  0.4895400000000 1.0
C      1  0.5405780000000  0.4460310000000  0.5220620000000 1.0
C      1  0.5576090000000  0.4701640000000  0.4677490000000 1.0
C      1  0.4727850000000  0.5428320000000  0.4865910000000 1.0
C      1  0.5067120000000  0.5345140000000  0.4637340000000 1.0
C      1  0.5370040000000  0.4860800000000  0.5517310000000 1.0
C      1  0.5458640000000  0.5396350000000  0.5508620000000 1.0
C      1  0.5392490000000  0.5656910000000  0.5060930000000 1.0
C      1  0.5325100000000  0.4230040000000  0.4845480000000 1.0
C      1  0.4316830000000  0.4476080000000  0.4841710000000 1.0
C      1  0.5248340000000  0.6017440000000  0.4712700000000 1.0
C      1  0.4814890000000  0.5498120000000  0.4359140000000 1.0
C      1  0.4969210000000  0.5638870000000  0.4777950000000 1.0
C      1  0.4316190000000  0.4733260000000  0.4729500000000 1.0
C      1  0.4514360000000  0.5363320000000  0.5530910000000 1.0
C      1  0.4921900000000  0.5146320000000  0.4871960000000 1.0
C      1  0.5446900000000  0.5002740000000  0.4906920000000 1.0
C      1  0.5587120000000  0.5347970000000  0.4700460000000 1.0
C      1  0.5434810000000  0.4989470000000  0.4575070000000 1.0
C      1  0.4329020000000  0.4834020000000  0.5475500000000 1.0
C      1  0.5138220000000  0.5488460000000  0.4330960000000 1.0
C      1  0.5179910000000  0.5071950000000  0.4469220000000 1.0
C      1  0.4706970000000  0.5565540000000  0.5539560000000 1.0
END
