TITL C-2847954-6904-643 -0.00976750961906607 125000 -1089.15791730134 0 0 200 (C1) n - 1
REM
REM in /home/bkarasulu/work/CARBON/AIRSS/Generating-Clusters/AIREBO/with-SteepDescent/Only-C1/SD-CG-opt/Try1-1.4A-POS3A/HFTN-CG
REM
REM
REM
REM
REM
REM ./C.cell (11c1c37f851c82e70ff6c80c92926a4b)
REM
REM compiler GCC version 9.2.1 20190827 (Red Hat 9.2.1-1)
REM options -cpp -mtune=generic -march=x86-64 -g -O0 -fpre-include=/usr/include/finclude/math-vector-fortran.h
REM seed 327046733 -176058481 -1648383130 -1926686278 1160050243 1649602703 462285867 -215477814 1648231597 1302137456 874601696 509499554 -1163355416 -157811737 1552286064 -310224260 -1460069585 1897367790 1865301690 1078206734 1245041622 -1716671953 64180034 -1822144952 -695600685 -1259466246 43143441 -1940513915 978383167 -251968573 -1476886364 -662236659 -1848810750
REM
CELL 1.54180   50.00000   50.00000   50.00000   90.00000   90.00000   90.00000
LATT -1
SFAC C  
C      1  0.4883270000000  0.4281410000000  0.4773220000000 1.0
C      1  0.4948030000000  0.5356620000000  0.4406360000000 1.0
C      1  0.5322400000000  0.4321300000000  0.5222600000000 1.0
C      1  0.4011390000000  0.5215360000000  0.4376030000000 1.0
C      1  0.4761900000000  0.4730040000000  0.3949640000000 1.0
C      1  0.4614120000000  0.5135460000000  0.5381100000000 1.0
C      1  0.6001400000000  0.5411890000000  0.4941060000000 1.0
C      1  0.5698180000000  0.5327720000000  0.5026850000000 1.0
C      1  0.5377000000000  0.5689010000000  0.4966300000000 1.0
C      1  0.5976060000000  0.4629240000000  0.5041610000000 1.0
C      1  0.5653080000000  0.4934540000000  0.3979750000000 1.0
C      1  0.4355470000000  0.5305230000000  0.5381060000000 1.0
C      1  0.5866340000000  0.4821950000000  0.5287380000000 1.0
C      1  0.5305870000000  0.5022520000000  0.5990990000000 1.0
C      1  0.5089220000000  0.4772530000000  0.3973190000000 1.0
C      1  0.4197160000000  0.5094370000000  0.4636340000000 1.0
C      1  0.4620700000000  0.4625360000000  0.4468030000000 1.0
C      1  0.5131040000000  0.4347880000000  0.4592550000000 1.0
C      1  0.5097920000000  0.3891560000000  0.4518110000000 1.0
C      1  0.3810910000000  0.4701330000000  0.5236790000000 1.0
C      1  0.4717690000000  0.3899660000000  0.5151510000000 1.0
C      1  0.4954430000000  0.6109520000000  0.4424680000000 1.0
C      1  0.5451210000000  0.5250210000000  0.6166780000000 1.0
C      1  0.5942250000000  0.5101090000000  0.5665820000000 1.0
C      1  0.5188670000000  0.6050480000000  0.4490340000000 1.0
C      1  0.5244500000000  0.4631490000000  0.4311280000000 1.0
C      1  0.4277800000000  0.5168660000000  0.5772450000000 1.0
C      1  0.5657000000000  0.5719640000000  0.5521440000000 1.0
C      1  0.5144800000000  0.5374800000000  0.5907740000000 1.0
C      1  0.5917990000000  0.5682770000000  0.5117300000000 1.0
C      1  0.5773990000000  0.5501490000000  0.4624710000000 1.0
C      1  0.5522150000000  0.4894840000000  0.4897600000000 1.0
C      1  0.5251120000000  0.5256500000000  0.4648640000000 1.0
C      1  0.4642650000000  0.5735860000000  0.4184840000000 1.0
C      1  0.5558140000000  0.4257650000000  0.5459430000000 1.0
C      1  0.5860800000000  0.5409040000000  0.5314160000000 1.0
C      1  0.4829300000000  0.5263610000000  0.5016220000000 1.0
C      1  0.5657610000000  0.5783170000000  0.4698440000000 1.0
C      1  0.5092330000000  0.6070450000000  0.5267870000000 1.0
C      1  0.5700360000000  0.4792450000000  0.4285020000000 1.0
C      1  0.5330510000000  0.4108530000000  0.4456430000000 1.0
C      1  0.4724460000000  0.5124750000000  0.6072490000000 1.0
C      1  0.4513350000000  0.4720850000000  0.5587070000000 1.0
C      1  0.5067690000000  0.5797510000000  0.5432940000000 1.0
C      1  0.4181410000000  0.4387430000000  0.4578610000000 1.0
C      1  0.4092170000000  0.4896550000000  0.4305470000000 1.0
C      1  0.4429600000000  0.5890910000000  0.4526350000000 1.0
C      1  0.4195440000000  0.5842730000000  0.4964520000000 1.0
C      1  0.5985800000000  0.4542760000000  0.4712220000000 1.0
C      1  0.5038770000000  0.4304190000000  0.6005270000000 1.0
C      1  0.4141800000000  0.5129480000000  0.5183440000000 1.0
C      1  0.6186990000000  0.4764590000000  0.4626450000000 1.0
C      1  0.5903240000000  0.5790570000000  0.5420050000000 1.0
C      1  0.5855470000000  0.5047630000000  0.4470560000000 1.0
C      1  0.5636510000000  0.4824110000000  0.5893400000000 1.0
C      1  0.4884570000000  0.6030540000000  0.5033340000000 1.0
C      1  0.5249750000000  0.4973850000000  0.4801370000000 1.0
C      1  0.5178360000000  0.4625280000000  0.5280430000000 1.0
C      1  0.5003490000000  0.5324050000000  0.3916760000000 1.0
C      1  0.4131450000000  0.4610830000000  0.5622370000000 1.0
C      1  0.5379640000000  0.4927740000000  0.3887870000000 1.0
C      1  0.4901920000000  0.3889220000000  0.4708750000000 1.0
C      1  0.4247010000000  0.5514990000000  0.5183630000000 1.0
C      1  0.4913650000000  0.4448040000000  0.4186070000000 1.0
C      1  0.3988850000000  0.5406930000000  0.5055300000000 1.0
C      1  0.5702980000000  0.4578770000000  0.4549640000000 1.0
C      1  0.4416120000000  0.5421730000000  0.5779980000000 1.0
C      1  0.5847730000000  0.5448790000000  0.4319010000000 1.0
C      1  0.4503740000000  0.3990970000000  0.4940410000000 1.0
C      1  0.4995930000000  0.5433330000000  0.4792960000000 1.0
C      1  0.5183660000000  0.4449800000000  0.4023650000000 1.0
C      1  0.5581730000000  0.4592690000000  0.4989540000000 1.0
C      1  0.5020890000000  0.4393810000000  0.5472770000000 1.0
C      1  0.4764320000000  0.5222510000000  0.4078530000000 1.0
C      1  0.5224260000000  0.4850230000000  0.5513530000000 1.0
C      1  0.5655430000000  0.4696180000000  0.5646470000000 1.0
C      1  0.4825500000000  0.5709730000000  0.4690980000000 1.0
C      1  0.5071420000000  0.4366300000000  0.4999100000000 1.0
C      1  0.4984270000000  0.4662950000000  0.5677280000000 1.0
C      1  0.4952040000000  0.5841750000000  0.5734220000000 1.0
C      1  0.5280510000000  0.4410680000000  0.5921470000000 1.0
C      1  0.4304780000000  0.5630440000000  0.4437430000000 1.0
C      1  0.4943190000000  0.5715780000000  0.4172190000000 1.0
C      1  0.5066370000000  0.5786660000000  0.4992410000000 1.0
C      1  0.5161970000000  0.5183000000000  0.5480360000000 1.0
C      1  0.5533480000000  0.4113910000000  0.4722650000000 1.0
C      1  0.4595340000000  0.5511840000000  0.5505380000000 1.0
C      1  0.4613580000000  0.5371800000000  0.4346040000000 1.0
C      1  0.5362920000000  0.5595270000000  0.3989810000000 1.0
C      1  0.4651780000000  0.5050840000000  0.4866360000000 1.0
C      1  0.3945410000000  0.4490630000000  0.5396190000000 1.0
C      1  0.5005140000000  0.4874820000000  0.4637460000000 1.0
C      1  0.4666650000000  0.4936990000000  0.4340000000000 1.0
C      1  0.4851600000000  0.5290780000000  0.5568420000000 1.0
C      1  0.5074540000000  0.5591340000000  0.3954010000000 1.0
C      1  0.5277400000000  0.4579470000000  0.4882170000000 1.0
C      1  0.4046910000000  0.4660240000000  0.4995390000000 1.0
C      1  0.3819020000000  0.4971340000000  0.5409200000000 1.0
C      1  0.5672180000000  0.4475650000000  0.4164520000000 1.0
C      1  0.5470130000000  0.5363810000000  0.4222050000000 1.0
C      1  0.5435760000000  0.5717330000000  0.5300170000000 1.0
C      1  0.4407480000000  0.5361180000000  0.4617880000000 1.0
C      1  0.4765690000000  0.4010950000000  0.5408330000000 1.0
C      1  0.5084750000000  0.5660010000000  0.4476440000000 1.0
C      1  0.4918070000000  0.5618210000000  0.5944690000000 1.0
C      1  0.5457030000000  0.4433450000000  0.4646300000000 1.0
C      1  0.6030990000000  0.5282770000000  0.4632610000000 1.0
C      1  0.5576120000000  0.5573800000000  0.5791700000000 1.0
C      1  0.3978160000000  0.4648440000000  0.4499620000000 1.0
C      1  0.4633540000000  0.4838000000000  0.6079150000000 1.0
C      1  0.5724130000000  0.5177690000000  0.4184100000000 1.0
C      1  0.5391610000000  0.5224860000000  0.5727760000000 1.0
C      1  0.4052690000000  0.5079980000000  0.5631270000000 1.0
C      1  0.5483520000000  0.4023040000000  0.5010350000000 1.0
C      1  0.4339260000000  0.4810360000000  0.4514800000000 1.0
C      1  0.5224620000000  0.5159410000000  0.3983310000000 1.0
C      1  0.4733570000000  0.4759730000000  0.4956640000000 1.0
C      1  0.4412830000000  0.5563870000000  0.4890850000000 1.0
C      1  0.5758140000000  0.5884300000000  0.4941090000000 1.0
C      1  0.4795130000000  0.4412340000000  0.5808490000000 1.0
C      1  0.5770760000000  0.5077540000000  0.5902720000000 1.0
C      1  0.4960110000000  0.4607380000000  0.4479670000000 1.0
C      1  0.5331350000000  0.5813900000000  0.4653320000000 1.0
C      1  0.4797960000000  0.5104110000000  0.4577670000000 1.0
C      1  0.5774260000000  0.4429710000000  0.5599130000000 1.0
C      1  0.4255490000000  0.4428010000000  0.4880130000000 1.0
C      1  0.5716310000000  0.4867200000000  0.4675420000000 1.0
C      1  0.5664710000000  0.5324550000000  0.6001870000000 1.0
C      1  0.3878780000000  0.5020380000000  0.4997490000000 1.0
C      1  0.5062340000000  0.4800270000000  0.5025860000000 1.0
C      1  0.5369300000000  0.5668560000000  0.4290410000000 1.0
C      1  0.5312140000000  0.4353390000000  0.5643610000000 1.0
C      1  0.4683960000000  0.5506290000000  0.5177110000000 1.0
C      1  0.5129260000000  0.5558600000000  0.6181540000000 1.0
C      1  0.5690620000000  0.5320520000000  0.5595810000000 1.0
C      1  0.4955990000000  0.4974030000000  0.4209510000000 1.0
C      1  0.4549810000000  0.5897990000000  0.5279450000000 1.0
C      1  0.4164060000000  0.4038190000000  0.5275250000000 1.0
C      1  0.4631440000000  0.4087700000000  0.4651810000000 1.0
C      1  0.4684210000000  0.5822780000000  0.5536500000000 1.0
C      1  0.4394350000000  0.4192580000000  0.4465270000000 1.0
C      1  0.5215050000000  0.5162950000000  0.4323430000000 1.0
C      1  0.4605830000000  0.4205610000000  0.5637160000000 1.0
C      1  0.5581480000000  0.5052830000000  0.5137140000000 1.0
C      1  0.4728710000000  0.4393220000000  0.5298540000000 1.0
C      1  0.5004710000000  0.5095420000000  0.5925330000000 1.0
C      1  0.4976110000000  0.5581310000000  0.5209270000000 1.0
C      1  0.5789360000000  0.4364000000000  0.5008170000000 1.0
C      1  0.4728620000000  0.5905330000000  0.4449490000000 1.0
C      1  0.5393070000000  0.4878750000000  0.4352100000000 1.0
C      1  0.4998980000000  0.5086850000000  0.5197560000000 1.0
C      1  0.6134110000000  0.5002750000000  0.4755430000000 1.0
C      1  0.4957600000000  0.3877840000000  0.4988840000000 1.0
C      1  0.5373620000000  0.6013090000000  0.5207490000000 1.0
C      1  0.4248690000000  0.4142680000000  0.5008150000000 1.0
C      1  0.4486690000000  0.4943450000000  0.5807720000000 1.0
C      1  0.4003530000000  0.5447170000000  0.4792640000000 1.0
C      1  0.4435630000000  0.4228680000000  0.5350080000000 1.0
C      1  0.4659060000000  0.5781660000000  0.4978900000000 1.0
C      1  0.4422870000000  0.5951550000000  0.4802570000000 1.0
C      1  0.4448770000000  0.4242020000000  0.4197590000000 1.0
C      1  0.4384990000000  0.4969340000000  0.4151010000000 1.0
C      1  0.6010440000000  0.4856580000000  0.5550510000000 1.0
C      1  0.4271710000000  0.5828670000000  0.5257550000000 1.0
C      1  0.5198250000000  0.4016500000000  0.5136370000000 1.0
C      1  0.5543840000000  0.4843810000000  0.5394290000000 1.0
C      1  0.5266930000000  0.5715610000000  0.5763040000000 1.0
C      1  0.5244050000000  0.5512930000000  0.5492820000000 1.0
C      1  0.5506280000000  0.5426500000000  0.4792990000000 1.0
C      1  0.4390930000000  0.4467700000000  0.5665060000000 1.0
C      1  0.5606790000000  0.6091520000000  0.5065290000000 1.0
C      1  0.4032950000000  0.5479630000000  0.4531940000000 1.0
C      1  0.4335580000000  0.4701490000000  0.5167050000000 1.0
C      1  0.4643650000000  0.4288390000000  0.4997180000000 1.0
C      1  0.4818980000000  0.4930240000000  0.5736180000000 1.0
C      1  0.4225540000000  0.5239640000000  0.4146140000000 1.0
C      1  0.6124080000000  0.5229510000000  0.5192950000000 1.0
C      1  0.4730450000000  0.5377890000000  0.5857170000000 1.0
C      1  0.5413290000000  0.4346510000000  0.4241230000000 1.0
C      1  0.3857040000000  0.4351300000000  0.4480440000000 1.0
C      1  0.6068200000000  0.4957150000000  0.5056470000000 1.0
C      1  0.4824250000000  0.4635990000000  0.6062950000000 1.0
C      1  0.4395680000000  0.5517870000000  0.4129740000000 1.0
C      1  0.4143070000000  0.4858630000000  0.5389500000000 1.0
C      1  0.4641890000000  0.4708980000000  0.5278700000000 1.0
C      1  0.5378560000000  0.4710810000000  0.6047700000000 1.0
C      1  0.4844400000000  0.4922830000000  0.5413380000000 1.0
C      1  0.5201850000000  0.5415420000000  0.5050920000000 1.0
C      1  0.5073440000000  0.4665710000000  0.6170630000000 1.0
C      1  0.5678250000000  0.4148770000000  0.5183230000000 1.0
C      1  0.5841940000000  0.4237030000000  0.4702760000000 1.0
C      1  0.4608940000000  0.4498890000000  0.4147610000000 1.0
C      1  0.5049370000000  0.4080000000000  0.5410660000000 1.0
C      1  0.4565970000000  0.4539540000000  0.4793050000000 1.0
C      1  0.4211590000000  0.4430910000000  0.5277280000000 1.0
C      1  0.4615720000000  0.4975120000000  0.3946920000000 1.0
C      1  0.5361770000000  0.5244370000000  0.5222420000000 1.0
C      1  0.3981010000000  0.4858750000000  0.4752330000000 1.0
C      1  0.4357050000000  0.5088570000000  0.4926820000000 1.0
C      1  0.6037510000000  0.4582800000000  0.5647120000000 1.0
END
