TITL C-2847958-8115-597 0.000581531890400511 125000 -865.45791053353 0 0 159 (C1) n - 1
REM
REM in /home/bkarasulu/work/CARBON/AIRSS/Generating-Clusters/AIREBO/with-SteepDescent/Only-C1/SD-CG-opt/Try1-1.4A-POS3A/HFTN-CG
REM
REM
REM
REM
REM
REM ./C.cell (11c1c37f851c82e70ff6c80c92926a4b)
REM
REM compiler GCC version 9.2.1 20190827 (Red Hat 9.2.1-1)
REM options -cpp -mtune=generic -march=x86-64 -g -O0 -fpre-include=/usr/include/finclude/math-vector-fortran.h
REM seed -28245232 -1457601008 1337752750 301277410 1111221070 -721292084 1994762245 -254879970 -1595101439 -533341573 -1992721023 -1280500237 -481969834 -1794220537 -1908423004 990563649 -604998535 1501852337 284306453 -434237841 -211772972 -2116579432 -1996479854 -456853312 -1544749194 120278241 -1188010428 -1559327755 -1882303728 -1735910722 123468268 -288532624 -569985690
REM
CELL 1.54180   50.00000   50.00000   50.00000   90.00000   90.00000   90.00000
LATT -1
SFAC C  
C      1  0.5445190000000  0.4855810000000  0.5672760000000 1.0
C      1  0.5063870000000  0.4467320000000  0.4067010000000 1.0
C      1  0.5411740000000  0.5596980000000  0.4265020000000 1.0
C      1  0.5283330000000  0.5372790000000  0.5636370000000 1.0
C      1  0.5311910000000  0.5104800000000  0.6075010000000 1.0
C      1  0.5155670000000  0.4481230000000  0.4575170000000 1.0
C      1  0.4898450000000  0.4719540000000  0.4931200000000 1.0
C      1  0.5874670000000  0.4606010000000  0.4628830000000 1.0
C      1  0.5482300000000  0.4832940000000  0.5350530000000 1.0
C      1  0.4642320000000  0.5513560000000  0.4151080000000 1.0
C      1  0.4749910000000  0.5068980000000  0.5068960000000 1.0
C      1  0.4321650000000  0.5098800000000  0.3996240000000 1.0
C      1  0.4755220000000  0.4417190000000  0.5936480000000 1.0
C      1  0.5016610000000  0.5570200000000  0.5857090000000 1.0
C      1  0.4669530000000  0.4787620000000  0.5173240000000 1.0
C      1  0.4159340000000  0.4762450000000  0.4423560000000 1.0
C      1  0.4374040000000  0.4342050000000  0.5471330000000 1.0
C      1  0.4682400000000  0.6315490000000  0.5187630000000 1.0
C      1  0.4986380000000  0.5790750000000  0.5176590000000 1.0
C      1  0.4177580000000  0.4471630000000  0.4601400000000 1.0
C      1  0.5449520000000  0.4880650000000  0.4048140000000 1.0
C      1  0.5102080000000  0.5073230000000  0.4064940000000 1.0
C      1  0.5754600000000  0.5643110000000  0.5540740000000 1.0
C      1  0.4374780000000  0.5331700000000  0.4218260000000 1.0
C      1  0.6053990000000  0.5016240000000  0.4826040000000 1.0
C      1  0.4358160000000  0.4888950000000  0.5553750000000 1.0
C      1  0.4761740000000  0.4441220000000  0.4050070000000 1.0
C      1  0.5831850000000  0.4940990000000  0.4588600000000 1.0
C      1  0.5252660000000  0.6007430000000  0.4879970000000 1.0
C      1  0.4290280000000  0.4146520000000  0.4575740000000 1.0
C      1  0.4614300000000  0.4191630000000  0.5474300000000 1.0
C      1  0.5338490000000  0.4344760000000  0.5064570000000 1.0
C      1  0.4437800000000  0.4874210000000  0.4010250000000 1.0
C      1  0.5833660000000  0.4486700000000  0.4883540000000 1.0
C      1  0.4625400000000  0.5129280000000  0.4253780000000 1.0
C      1  0.5526480000000  0.5844400000000  0.4874270000000 1.0
C      1  0.5145600000000  0.4761210000000  0.4134300000000 1.0
C      1  0.5168780000000  0.5534710000000  0.5089970000000 1.0
C      1  0.5256820000000  0.5350680000000  0.5962320000000 1.0
C      1  0.4093240000000  0.5459800000000  0.4688290000000 1.0
C      1  0.5305870000000  0.5893460000000  0.5201260000000 1.0
C      1  0.4295420000000  0.4546350000000  0.4230350000000 1.0
C      1  0.5385480000000  0.5200390000000  0.3960450000000 1.0
C      1  0.5222430000000  0.5924630000000  0.5511850000000 1.0
C      1  0.5469660000000  0.5167110000000  0.5351460000000 1.0
C      1  0.4819000000000  0.4203220000000  0.4238280000000 1.0
C      1  0.4424540000000  0.4771250000000  0.5851900000000 1.0
C      1  0.5194900000000  0.5366880000000  0.5337200000000 1.0
C      1  0.5585120000000  0.4577680000000  0.5811250000000 1.0
C      1  0.4885620000000  0.5226170000000  0.5322710000000 1.0
C      1  0.5284800000000  0.5064160000000  0.5094960000000 1.0
C      1  0.5718100000000  0.5468540000000  0.5272350000000 1.0
C      1  0.4746120000000  0.5531920000000  0.5651880000000 1.0
C      1  0.5430140000000  0.5456350000000  0.4032410000000 1.0
C      1  0.5889120000000  0.5470940000000  0.4777500000000 1.0
C      1  0.4356780000000  0.5673820000000  0.5102560000000 1.0
C      1  0.5091300000000  0.4676420000000  0.5792350000000 1.0
C      1  0.5688070000000  0.4528850000000  0.4397320000000 1.0
C      1  0.4702800000000  0.5509460000000  0.4987720000000 1.0
C      1  0.5183350000000  0.5053840000000  0.5699800000000 1.0
C      1  0.5833560000000  0.5270100000000  0.4513030000000 1.0
C      1  0.4494110000000  0.4471830000000  0.4477160000000 1.0
C      1  0.4480680000000  0.4872570000000  0.4407660000000 1.0
C      1  0.4923810000000  0.6004630000000  0.4845130000000 1.0
C      1  0.5607570000000  0.5698360000000  0.5735510000000 1.0
C      1  0.4669490000000  0.4807310000000  0.5469870000000 1.0
C      1  0.5154320000000  0.5295460000000  0.4317010000000 1.0
C      1  0.4560930000000  0.5318630000000  0.4626860000000 1.0
C      1  0.5128790000000  0.5711000000000  0.4410180000000 1.0
C      1  0.5901990000000  0.4950810000000  0.5086530000000 1.0
C      1  0.4858120000000  0.5282570000000  0.4050230000000 1.0
C      1  0.4892350000000  0.4425470000000  0.5101910000000 1.0
C      1  0.4673520000000  0.5132950000000  0.5571740000000 1.0
C      1  0.4105610000000  0.4915180000000  0.4722610000000 1.0
C      1  0.6139850000000  0.5280320000000  0.4805980000000 1.0
C      1  0.4682840000000  0.5695410000000  0.4725760000000 1.0
C      1  0.4816460000000  0.4873800000000  0.6114680000000 1.0
C      1  0.5068940000000  0.5359390000000  0.4837090000000 1.0
C      1  0.5479990000000  0.4168110000000  0.5512730000000 1.0
C      1  0.5305770000000  0.4471750000000  0.5704980000000 1.0
C      1  0.4461190000000  0.5425280000000  0.5753870000000 1.0
C      1  0.5662320000000  0.5384170000000  0.4977560000000 1.0
C      1  0.4975780000000  0.4040540000000  0.4807190000000 1.0
C      1  0.5672750000000  0.4341970000000  0.5613160000000 1.0
C      1  0.4519040000000  0.5233590000000  0.4943140000000 1.0
C      1  0.4015180000000  0.5229830000000  0.4630800000000 1.0
C      1  0.5775400000000  0.4756300000000  0.5409100000000 1.0
C      1  0.5725960000000  0.4853640000000  0.5951330000000 1.0
C      1  0.5755580000000  0.4991440000000  0.5641970000000 1.0
C      1  0.5031900000000  0.5033770000000  0.4901640000000 1.0
C      1  0.4717250000000  0.4152600000000  0.5204350000000 1.0
C      1  0.4851680000000  0.5248590000000  0.4465000000000 1.0
C      1  0.5611580000000  0.5504500000000  0.4493940000000 1.0
C      1  0.5221720000000  0.4694530000000  0.5218930000000 1.0
C      1  0.5616230000000  0.5775600000000  0.5190790000000 1.0
C      1  0.4668950000000  0.4663060000000  0.6006080000000 1.0
C      1  0.4606490000000  0.4177520000000  0.4451400000000 1.0
C      1  0.4934650000000  0.5545880000000  0.4607480000000 1.0
C      1  0.5690260000000  0.4648500000000  0.4116750000000 1.0
C      1  0.4366650000000  0.5399140000000  0.5187710000000 1.0
C      1  0.5162000000000  0.4174200000000  0.5624720000000 1.0
C      1  0.5735570000000  0.5744820000000  0.4670890000000 1.0
C      1  0.4721260000000  0.4651090000000  0.4648950000000 1.0
C      1  0.5292910000000  0.5699330000000  0.5718430000000 1.0
C      1  0.4960860000000  0.4960110000000  0.4516960000000 1.0
C      1  0.4211670000000  0.5487290000000  0.5655630000000 1.0
C      1  0.4940660000000  0.4669050000000  0.4389690000000 1.0
C      1  0.4722200000000  0.4123390000000  0.4728120000000 1.0
C      1  0.4640180000000  0.5757700000000  0.4334300000000 1.0
C      1  0.5453320000000  0.4624410000000  0.4542370000000 1.0
C      1  0.5103250000000  0.4223070000000  0.5277840000000 1.0
C      1  0.4920230000000  0.5260600000000  0.5760110000000 1.0
C      1  0.5113860000000  0.4281690000000  0.4303010000000 1.0
C      1  0.5566480000000  0.4992210000000  0.6126590000000 1.0
C      1  0.4062670000000  0.5086210000000  0.5225830000000 1.0
C      1  0.5606630000000  0.5078480000000  0.4987560000000 1.0
C      1  0.4399800000000  0.5568530000000  0.4461600000000 1.0
C      1  0.4494110000000  0.4599830000000  0.4992430000000 1.0
C      1  0.4659530000000  0.5097120000000  0.6124800000000 1.0
C      1  0.5419180000000  0.5541990000000  0.4884880000000 1.0
C      1  0.5205510000000  0.4587300000000  0.4894550000000 1.0
C      1  0.5367670000000  0.5044520000000  0.4401460000000 1.0
C      1  0.4976620000000  0.3980020000000  0.5086510000000 1.0
C      1  0.5643860000000  0.4917090000000  0.4317910000000 1.0
C      1  0.4841780000000  0.4284950000000  0.5655540000000 1.0
C      1  0.5040420000000  0.5559070000000  0.4127180000000 1.0
C      1  0.4412520000000  0.4768670000000  0.4729550000000 1.0
C      1  0.5199310000000  0.4167120000000  0.4697910000000 1.0
C      1  0.4276020000000  0.4421710000000  0.5183420000000 1.0
C      1  0.5533300000000  0.4887550000000  0.4742400000000 1.0
C      1  0.5307610000000  0.5407900000000  0.4598960000000 1.0
C      1  0.4561710000000  0.4269300000000  0.4949420000000 1.0
C      1  0.3866140000000  0.4770900000000  0.4818100000000 1.0
C      1  0.5086520000000  0.4906710000000  0.5990830000000 1.0
C      1  0.5233480000000  0.4934150000000  0.4662000000000 1.0
C      1  0.4369560000000  0.5626620000000  0.4795320000000 1.0
C      1  0.5110440000000  0.4515850000000  0.5430150000000 1.0
C      1  0.4212730000000  0.5090910000000  0.4981890000000 1.0
C      1  0.5495810000000  0.4118280000000  0.5243360000000 1.0
C      1  0.5464500000000  0.4109350000000  0.4766810000000 1.0
C      1  0.4662660000000  0.4699590000000  0.4196110000000 1.0
C      1  0.4785040000000  0.5949290000000  0.4539680000000 1.0
C      1  0.5915400000000  0.4627650000000  0.5136860000000 1.0
C      1  0.4765250000000  0.6039540000000  0.5107140000000 1.0
C      1  0.4787470000000  0.5551800000000  0.5314400000000 1.0
C      1  0.5122370000000  0.5987810000000  0.4566500000000 1.0
C      1  0.5641000000000  0.4295040000000  0.4917520000000 1.0
C      1  0.5112490000000  0.4978280000000  0.5375300000000 1.0
C      1  0.4580430000000  0.5806740000000  0.5223420000000 1.0
C      1  0.5864510000000  0.4449690000000  0.5424860000000 1.0
C      1  0.4309100000000  0.4511550000000  0.5676050000000 1.0
C      1  0.4244960000000  0.4297600000000  0.4876960000000 1.0
C      1  0.4065320000000  0.5328310000000  0.5433550000000 1.0
C      1  0.4494470000000  0.5122140000000  0.5860680000000 1.0
C      1  0.4043920000000  0.4603490000000  0.5286130000000 1.0
C      1  0.4106740000000  0.4848910000000  0.5376400000000 1.0
C      1  0.4382240000000  0.5205120000000  0.5431000000000 1.0
C      1  0.5809170000000  0.5149140000000  0.5345130000000 1.0
C      1  0.4845380000000  0.4618120000000  0.5602590000000 1.0
END
