TITL C-2847950-6905-89 0.00132779427376945 125000 -368.729913756127 0 0 68 (C1) n - 1
REM
REM in /home/bkarasulu/work/CARBON/AIRSS/Generating-Clusters/AIREBO/with-SteepDescent/Only-C1/SD-CG-opt/Try1-1.4A-POS3A/HFTN-CG
REM
REM
REM
REM
REM
REM ./C.cell (11c1c37f851c82e70ff6c80c92926a4b)
REM
REM compiler GCC version 9.2.1 20190827 (Red Hat 9.2.1-1)
REM options -cpp -mtune=generic -march=x86-64 -g -O0 -fpre-include=/usr/include/finclude/math-vector-fortran.h
REM seed -674857385 -920233765 -614986373 939836575 1731905623 -264902124 -1722658789 -23376189 1526864344 1300147073 829474560 1693805238 -748428894 1634253198 -1596185126 -573830027 -912545374 1647809259 2025698725 -786669418 -704766428 -1720991814 -304944422 -791981435 -511507640 536969180 -365253217 1563153771 800688742 -1195375401 563465802 -1863108361 -183714822
REM
CELL 1.54180   50.00000   50.00000   50.00000   90.00000   90.00000   90.00000
LATT -1
SFAC C  
C      1  0.5040350000000  0.5088630000000  0.4503050000000 1.0
C      1  0.4484870000000  0.5422810000000  0.5278700000000 1.0
C      1  0.5869690000000  0.4820580000000  0.5424930000000 1.0
C      1  0.5233180000000  0.5372450000000  0.5394940000000 1.0
C      1  0.4449440000000  0.5105570000000  0.5386000000000 1.0
C      1  0.4818210000000  0.5245570000000  0.4183600000000 1.0
C      1  0.4734200000000  0.5387610000000  0.4395760000000 1.0
C      1  0.4965070000000  0.4204180000000  0.4898480000000 1.0
C      1  0.5438820000000  0.5492700000000  0.4705750000000 1.0
C      1  0.4795080000000  0.4763430000000  0.5127930000000 1.0
C      1  0.4677940000000  0.4602740000000  0.4895480000000 1.0
C      1  0.5063280000000  0.4762700000000  0.5337260000000 1.0
C      1  0.5525590000000  0.4455200000000  0.5403380000000 1.0
C      1  0.5077250000000  0.4871830000000  0.4855300000000 1.0
C      1  0.4340450000000  0.5004710000000  0.4522280000000 1.0
C      1  0.5261360000000  0.4631610000000  0.5015500000000 1.0
C      1  0.5385210000000  0.4838860000000  0.5255170000000 1.0
C      1  0.4463020000000  0.4780440000000  0.4699980000000 1.0
C      1  0.5375310000000  0.5244020000000  0.4919600000000 1.0
C      1  0.5443590000000  0.4641290000000  0.4551180000000 1.0
C      1  0.4888770000000  0.4439880000000  0.5687320000000 1.0
C      1  0.4858840000000  0.5149350000000  0.5656550000000 1.0
C      1  0.4575380000000  0.5226000000000  0.4629370000000 1.0
C      1  0.4753880000000  0.4671600000000  0.4573430000000 1.0
C      1  0.5541060000000  0.5037850000000  0.5072820000000 1.0
C      1  0.5712490000000  0.5601370000000  0.5546670000000 1.0
C      1  0.5055870000000  0.4845020000000  0.3972590000000 1.0
C      1  0.4967810000000  0.5499970000000  0.5497880000000 1.0
C      1  0.4820110000000  0.4195990000000  0.5778680000000 1.0
C      1  0.4710040000000  0.4299850000000  0.4936290000000 1.0
C      1  0.4957630000000  0.5061120000000  0.5103590000000 1.0
C      1  0.5278510000000  0.4430020000000  0.5288770000000 1.0
C      1  0.4080480000000  0.5084750000000  0.4598260000000 1.0
C      1  0.4971360000000  0.5536050000000  0.4965410000000 1.0
C      1  0.4311620000000  0.5464890000000  0.5020460000000 1.0
C      1  0.5056770000000  0.4479090000000  0.5476620000000 1.0
C      1  0.4787600000000  0.5572670000000  0.5237320000000 1.0
C      1  0.5111930000000  0.5596450000000  0.4703470000000 1.0
C      1  0.4970420000000  0.4526670000000  0.4418220000000 1.0
C      1  0.5058250000000  0.5090320000000  0.5431540000000 1.0
C      1  0.5143090000000  0.5313590000000  0.5095460000000 1.0
C      1  0.5714590000000  0.5326260000000  0.4658080000000 1.0
C      1  0.4784620000000  0.4674100000000  0.5801580000000 1.0
C      1  0.5215250000000  0.4474320000000  0.4549200000000 1.0
C      1  0.5526570000000  0.4827400000000  0.5748460000000 1.0
C      1  0.5491510000000  0.5495190000000  0.5476020000000 1.0
C      1  0.4871870000000  0.5447370000000  0.5819800000000 1.0
C      1  0.5059130000000  0.5039190000000  0.4166520000000 1.0
C      1  0.5539700000000  0.4656880000000  0.4821820000000 1.0
C      1  0.4571210000000  0.5135860000000  0.4957220000000 1.0
C      1  0.5350150000000  0.5150960000000  0.4266600000000 1.0
C      1  0.5228380000000  0.5370950000000  0.4479330000000 1.0
C      1  0.5170030000000  0.4375860000000  0.4816050000000 1.0
C      1  0.5602930000000  0.4754490000000  0.5487620000000 1.0
C      1  0.4425730000000  0.4967910000000  0.5628870000000 1.0
C      1  0.4572990000000  0.4979350000000  0.5171220000000 1.0
C      1  0.5313380000000  0.5032340000000  0.4673340000000 1.0
C      1  0.4881940000000  0.5604160000000  0.4474590000000 1.0
C      1  0.4680730000000  0.4922110000000  0.5738620000000 1.0
C      1  0.4700220000000  0.5421170000000  0.4882160000000 1.0
C      1  0.5715120000000  0.5053430000000  0.4638510000000 1.0
C      1  0.4649240000000  0.5401330000000  0.5564190000000 1.0
C      1  0.4807350000000  0.4981030000000  0.4673060000000 1.0
C      1  0.5516210000000  0.4928830000000  0.4420770000000 1.0
C      1  0.4194360000000  0.4890780000000  0.5740770000000 1.0
C      1  0.5684270000000  0.4896300000000  0.4874270000000 1.0
C      1  0.4316190000000  0.5387110000000  0.4779680000000 1.0
C      1  0.4362600000000  0.4945940000000  0.4246650000000 1.0
END
