TITL C-2848507-1641-493 0.00366322041540137 125000 -620.066003593722 0 0 123 (C1) n - 1
REM
REM in /home/bkarasulu/work/CARBON/AIRSS/Generating-Clusters/AIREBO/with-SteepDescent/Only-C1/SD-CG-opt/Try1-1.4A-POS3A/HFTN-CG
REM
REM
REM
REM
REM
REM ./C.cell (11c1c37f851c82e70ff6c80c92926a4b)
REM
REM compiler GCC version 9.2.1 20190827 (Red Hat 9.2.1-1)
REM options -cpp -mtune=generic -march=x86-64 -g -O0 -fpre-include=/usr/include/finclude/math-vector-fortran.h
REM seed 188867140 1170860463 281237386 -796593924 -1145309034 129000326 406790517 -518854927 -1253206882 711377077 1756332728 525114664 -606980631 365513398 404223095 1844290589 -478572613 1758577630 -345123682 -419458784 -986163961 88406817 1210122969 1575479536 -877352590 2077529996 2130211573 1752675127 111595825 644885749 1923164153 1939275211 591479041
REM
CELL 1.54180   50.00000   50.00000   50.00000   90.00000   90.00000   90.00000
LATT -1
SFAC C  
C      1  0.5070830000000  0.5015160000000  0.4451060000000 1.0
C      1  0.4766000000000  0.5584540000000  0.4594770000000 1.0
C      1  0.4648590000000  0.4762950000000  0.5548400000000 1.0
C      1  0.4951400000000  0.5323650000000  0.4480730000000 1.0
C      1  0.5441560000000  0.4276750000000  0.5498420000000 1.0
C      1  0.4313300000000  0.4379510000000  0.4406350000000 1.0
C      1  0.5248040000000  0.5311090000000  0.4646600000000 1.0
C      1  0.5212760000000  0.4196480000000  0.5642470000000 1.0
C      1  0.4719630000000  0.4646040000000  0.4655560000000 1.0
C      1  0.5751940000000  0.4664100000000  0.5607380000000 1.0
C      1  0.4447930000000  0.4354630000000  0.4778620000000 1.0
C      1  0.4798050000000  0.5618880000000  0.5093120000000 1.0
C      1  0.4738280000000  0.4717740000000  0.5873480000000 1.0
C      1  0.5328340000000  0.4857980000000  0.5550090000000 1.0
C      1  0.4194010000000  0.4554540000000  0.4672400000000 1.0
C      1  0.5854510000000  0.4565230000000  0.4706540000000 1.0
C      1  0.5479930000000  0.4873050000000  0.5097000000000 1.0
C      1  0.4427380000000  0.4757730000000  0.4790870000000 1.0
C      1  0.4735310000000  0.5003480000000  0.4829580000000 1.0
C      1  0.4261280000000  0.5376560000000  0.4602690000000 1.0
C      1  0.4791580000000  0.4233760000000  0.4928640000000 1.0
C      1  0.4320850000000  0.4982030000000  0.4959350000000 1.0
C      1  0.4951920000000  0.5483160000000  0.5348200000000 1.0
C      1  0.4684260000000  0.4255130000000  0.5392050000000 1.0
C      1  0.4536690000000  0.4370630000000  0.5107260000000 1.0
C      1  0.5373920000000  0.4626390000000  0.4242510000000 1.0
C      1  0.5995130000000  0.4922310000000  0.5098000000000 1.0
C      1  0.4691750000000  0.5105700000000  0.4508020000000 1.0
C      1  0.5794600000000  0.5541470000000  0.5104310000000 1.0
C      1  0.4419420000000  0.5911420000000  0.4742660000000 1.0
C      1  0.4699350000000  0.5252430000000  0.4980200000000 1.0
C      1  0.5160940000000  0.4394010000000  0.4276060000000 1.0
C      1  0.5150510000000  0.4382830000000  0.4683000000000 1.0
C      1  0.5264630000000  0.5277320000000  0.5484550000000 1.0
C      1  0.5720750000000  0.5076100000000  0.4968620000000 1.0
C      1  0.4420730000000  0.5329700000000  0.5521490000000 1.0
C      1  0.4167730000000  0.4857980000000  0.4505990000000 1.0
C      1  0.4301320000000  0.5290410000000  0.4988400000000 1.0
C      1  0.5744240000000  0.4841290000000  0.5820390000000 1.0
C      1  0.5503310000000  0.5747470000000  0.4829290000000 1.0
C      1  0.5328780000000  0.5189110000000  0.5920310000000 1.0
C      1  0.5096800000000  0.4831010000000  0.5302490000000 1.0
C      1  0.4507030000000  0.4849720000000  0.4485410000000 1.0
C      1  0.5406600000000  0.4586110000000  0.5361520000000 1.0
C      1  0.4658080000000  0.5025610000000  0.5846520000000 1.0
C      1  0.4839530000000  0.5002380000000  0.5400630000000 1.0
C      1  0.5357510000000  0.5788300000000  0.5407770000000 1.0
C      1  0.5694770000000  0.5028220000000  0.4572780000000 1.0
C      1  0.4354600000000  0.4890830000000  0.5284990000000 1.0
C      1  0.4277620000000  0.4570570000000  0.5199790000000 1.0
C      1  0.4431480000000  0.5021380000000  0.5589550000000 1.0
C      1  0.5328620000000  0.4956600000000  0.4175120000000 1.0
C      1  0.5481990000000  0.4323720000000  0.5158750000000 1.0
C      1  0.4758260000000  0.4407280000000  0.5687680000000 1.0
C      1  0.5324860000000  0.4140570000000  0.4716210000000 1.0
C      1  0.5446500000000  0.5148100000000  0.4423190000000 1.0
C      1  0.4753980000000  0.4927500000000  0.3992050000000 1.0
C      1  0.4554400000000  0.5839000000000  0.4519300000000 1.0
C      1  0.4981460000000  0.5331680000000  0.5068950000000 1.0
C      1  0.4104970000000  0.5121690000000  0.5293170000000 1.0
C      1  0.5215660000000  0.5086610000000  0.5111880000000 1.0
C      1  0.4608760000000  0.4304680000000  0.4479650000000 1.0
C      1  0.4941610000000  0.5689530000000  0.5689310000000 1.0
C      1  0.5922200000000  0.4594150000000  0.5046870000000 1.0
C      1  0.4290580000000  0.5612310000000  0.5432600000000 1.0
C      1  0.5049550000000  0.5778530000000  0.5000040000000 1.0
C      1  0.4966760000000  0.4642960000000  0.5555570000000 1.0
C      1  0.5606520000000  0.4532230000000  0.4936800000000 1.0
C      1  0.5233950000000  0.4624070000000  0.5070140000000 1.0
C      1  0.5665290000000  0.5509090000000  0.4673980000000 1.0
C      1  0.4634420000000  0.5149940000000  0.4175470000000 1.0
C      1  0.4683480000000  0.5644790000000  0.4270300000000 1.0
C      1  0.5300810000000  0.5025470000000  0.4788250000000 1.0
C      1  0.5168550000000  0.5449400000000  0.5770440000000 1.0
C      1  0.4992460000000  0.4107510000000  0.5477740000000 1.0
C      1  0.4517780000000  0.5477900000000  0.4801840000000 1.0
C      1  0.5426650000000  0.4278100000000  0.4425430000000 1.0
C      1  0.5386790000000  0.5691810000000  0.5674150000000 1.0
C      1  0.5585760000000  0.5076950000000  0.5793380000000 1.0
C      1  0.5786860000000  0.5371860000000  0.4885390000000 1.0
C      1  0.5782420000000  0.5099680000000  0.5302230000000 1.0
C      1  0.5512500000000  0.4770580000000  0.4699370000000 1.0
C      1  0.5025130000000  0.5786010000000  0.4679840000000 1.0
C      1  0.5495130000000  0.5658460000000  0.5158850000000 1.0
C      1  0.5018250000000  0.4840180000000  0.4099330000000 1.0
C      1  0.4542670000000  0.5338570000000  0.5821540000000 1.0
C      1  0.5208910000000  0.4674190000000  0.4603200000000 1.0
C      1  0.4514100000000  0.5765930000000  0.5332840000000 1.0
C      1  0.4878160000000  0.5285980000000  0.5838710000000 1.0
C      1  0.4127050000000  0.5416080000000  0.5254550000000 1.0
C      1  0.5228170000000  0.4906980000000  0.5839110000000 1.0
C      1  0.4517770000000  0.5364640000000  0.5221160000000 1.0
C      1  0.4206290000000  0.5154080000000  0.4426760000000 1.0
C      1  0.5056210000000  0.4708590000000  0.5939120000000 1.0
C      1  0.5121610000000  0.5485810000000  0.4236630000000 1.0
C      1  0.5064810000000  0.5801550000000  0.5326380000000 1.0
C      1  0.5004650000000  0.4907570000000  0.4742570000000 1.0
C      1  0.5713780000000  0.4706600000000  0.5279500000000 1.0
C      1  0.4954430000000  0.4533580000000  0.4877260000000 1.0
C      1  0.4326950000000  0.5183730000000  0.4170080000000 1.0
C      1  0.5903040000000  0.4873920000000  0.4764750000000 1.0
C      1  0.4937300000000  0.4706230000000  0.4401200000000 1.0
C      1  0.5410410000000  0.5351420000000  0.5199050000000 1.0
C      1  0.4865980000000  0.4374990000000  0.4372990000000 1.0
C      1  0.5548460000000  0.5106110000000  0.5481430000000 1.0
C      1  0.4962060000000  0.4304360000000  0.5202130000000 1.0
C      1  0.5233000000000  0.5553720000000  0.4822790000000 1.0
C      1  0.5238350000000  0.4205410000000  0.5027690000000 1.0
C      1  0.5364850000000  0.5624700000000  0.4335530000000 1.0
C      1  0.4439410000000  0.4554730000000  0.5483770000000 1.0
C      1  0.5079610000000  0.4424560000000  0.5784280000000 1.0
C      1  0.5321040000000  0.5820730000000  0.4543000000000 1.0
C      1  0.5619080000000  0.4548990000000  0.4464370000000 1.0
C      1  0.4054830000000  0.4535250000000  0.4979190000000 1.0
C      1  0.5088800000000  0.5181630000000  0.4088310000000 1.0
C      1  0.4783140000000  0.3944300000000  0.4848100000000 1.0
C      1  0.4817520000000  0.5398540000000  0.4112000000000 1.0
C      1  0.4758070000000  0.5807400000000  0.5473150000000 1.0
C      1  0.4663080000000  0.4889420000000  0.5141800000000 1.0
C      1  0.4512890000000  0.5746870000000  0.5009970000000 1.0
C      1  0.4854300000000  0.4626230000000  0.5179810000000 1.0
C      1  0.5555750000000  0.5443030000000  0.4428410000000 1.0
C      1  0.4935070000000  0.5239710000000  0.5526700000000 1.0
END
