TITL C-2847952-8118-381 0.0024686230499478 125000 -347.245862938689 0 0 64 (C1) n - 1
REM
REM in /home/bkarasulu/work/CARBON/AIRSS/Generating-Clusters/AIREBO/with-SteepDescent/Only-C1/SD-CG-opt/Try1-1.4A-POS3A/HFTN-CG
REM
REM
REM
REM
REM
REM ./C.cell (11c1c37f851c82e70ff6c80c92926a4b)
REM
REM compiler GCC version 9.2.1 20190827 (Red Hat 9.2.1-1)
REM options -cpp -mtune=generic -march=x86-64 -g -O0 -fpre-include=/usr/include/finclude/math-vector-fortran.h
REM seed -1021159351 1825838268 498539382 -1685423358 668420434 -714785314 385657907 -1360569006 -1141364617 -1220545081 -634812411 -1775985586 -1593244018 -2098608687 1718318170 -1239182022 -1243642194 1135822450 -1240570150 -1493997741 -333967364 603495972 32149604 330577819 -1658132529 1280427604 801048958 -1837195009 1577362088 -1769557041 -25866298 -57895250 466080559
REM
CELL 1.54180   50.00000   50.00000   50.00000   90.00000   90.00000   90.00000
LATT -1
SFAC C  
C      1  0.4945320000000  0.5003980000000  0.4852650000000 1.0
C      1  0.5343740000000  0.4208220000000  0.4982810000000 1.0
C      1  0.5174150000000  0.5388460000000  0.5105600000000 1.0
C      1  0.5318510000000  0.5124340000000  0.5273210000000 1.0
C      1  0.4626550000000  0.4682400000000  0.5500800000000 1.0
C      1  0.4781390000000  0.4473700000000  0.4852490000000 1.0
C      1  0.5516760000000  0.4980060000000  0.4382770000000 1.0
C      1  0.4903690000000  0.5118290000000  0.4333290000000 1.0
C      1  0.4546460000000  0.4886330000000  0.5025920000000 1.0
C      1  0.4963120000000  0.5322840000000  0.5599610000000 1.0
C      1  0.4440650000000  0.5215180000000  0.5682130000000 1.0
C      1  0.5367400000000  0.4638760000000  0.4804070000000 1.0
C      1  0.4905300000000  0.5514240000000  0.5199100000000 1.0
C      1  0.4676910000000  0.5161660000000  0.4918140000000 1.0
C      1  0.4819990000000  0.5455250000000  0.4530970000000 1.0
C      1  0.5474990000000  0.5434450000000  0.5465120000000 1.0
C      1  0.5638050000000  0.5172250000000  0.4581090000000 1.0
C      1  0.5527220000000  0.5116450000000  0.4862440000000 1.0
C      1  0.5106060000000  0.5367970000000  0.4384000000000 1.0
C      1  0.4912960000000  0.4819730000000  0.5379460000000 1.0
C      1  0.5899100000000  0.4980300000000  0.4914040000000 1.0
C      1  0.4888680000000  0.4531270000000  0.5102760000000 1.0
C      1  0.4530170000000  0.4927640000000  0.5337180000000 1.0
C      1  0.5204500000000  0.5193570000000  0.4862080000000 1.0
C      1  0.4936300000000  0.5574500000000  0.5470940000000 1.0
C      1  0.4708970000000  0.5183770000000  0.5475610000000 1.0
C      1  0.5763260000000  0.5189980000000  0.5077810000000 1.0
C      1  0.5243980000000  0.5119410000000  0.4540310000000 1.0
C      1  0.4342500000000  0.5373510000000  0.5214140000000 1.0
C      1  0.4520070000000  0.4635700000000  0.4820160000000 1.0
C      1  0.4603450000000  0.5346120000000  0.4675890000000 1.0
C      1  0.5636620000000  0.4306420000000  0.5109140000000 1.0
C      1  0.5570640000000  0.4713610000000  0.4574230000000 1.0
C      1  0.4316620000000  0.5163440000000  0.5410220000000 1.0
C      1  0.4176900000000  0.5461610000000  0.5022890000000 1.0
C      1  0.5011810000000  0.4598180000000  0.4450440000000 1.0
C      1  0.5043200000000  0.4807080000000  0.5080870000000 1.0
C      1  0.5247230000000  0.4790160000000  0.4454980000000 1.0
C      1  0.5259670000000  0.5560960000000  0.4265660000000 1.0
C      1  0.4636330000000  0.4361020000000  0.5596650000000 1.0
C      1  0.5248010000000  0.5215970000000  0.5592980000000 1.0
C      1  0.5330090000000  0.5063160000000  0.5810360000000 1.0
C      1  0.4655420000000  0.5333770000000  0.5170380000000 1.0
C      1  0.4279320000000  0.5347670000000  0.4654250000000 1.0
C      1  0.4774290000000  0.4449310000000  0.5328570000000 1.0
C      1  0.4773360000000  0.5005270000000  0.4559290000000 1.0
C      1  0.4118190000000  0.5635970000000  0.4739670000000 1.0
C      1  0.5741260000000  0.4765450000000  0.4857010000000 1.0
C      1  0.4284350000000  0.4485850000000  0.4854030000000 1.0
C      1  0.4435150000000  0.5080490000000  0.4541620000000 1.0
C      1  0.3968760000000  0.5337500000000  0.4792310000000 1.0
C      1  0.5647490000000  0.5221700000000  0.5327220000000 1.0
C      1  0.5420160000000  0.6107400000000  0.5129530000000 1.0
C      1  0.5611570000000  0.4643910000000  0.5120800000000 1.0
C      1  0.4540580000000  0.4774050000000  0.4550660000000 1.0
C      1  0.4768870000000  0.4666460000000  0.4345630000000 1.0
C      1  0.5560040000000  0.4462470000000  0.5403730000000 1.0
C      1  0.5379870000000  0.4195350000000  0.5309370000000 1.0
C      1  0.5359150000000  0.5593810000000  0.5260350000000 1.0
C      1  0.5373810000000  0.4875880000000  0.5047650000000 1.0
C      1  0.5237560000000  0.4389040000000  0.4803010000000 1.0
C      1  0.4573900000000  0.4173830000000  0.5774310000000 1.0
C      1  0.5400200000000  0.5852200000000  0.5185730000000 1.0
C      1  0.4989350000000  0.4420700000000  0.4669870000000 1.0
END
