TITL C-2847952-8118-232 0.00224303266497048 125000 -526.045734260143 0 0 100 (C1) n - 1
REM
REM in /home/bkarasulu/work/CARBON/AIRSS/Generating-Clusters/AIREBO/with-SteepDescent/Only-C1/SD-CG-opt/Try1-1.4A-POS3A/HFTN-CG
REM
REM
REM
REM
REM
REM ./C.cell (11c1c37f851c82e70ff6c80c92926a4b)
REM
REM compiler GCC version 9.2.1 20190827 (Red Hat 9.2.1-1)
REM options -cpp -mtune=generic -march=x86-64 -g -O0 -fpre-include=/usr/include/finclude/math-vector-fortran.h
REM seed -1096818420 714701579 90521418 877331383 490030157 -70562103 -1672441451 2035477829 555369400 -1097488189 148151454 -1011201495 1494092117 -584246970 -1675930514 1226414312 -394849571 386207726 -199913531 -193817850 1207588882 -1141423590 -1583335952 1719261007 819053942 -1875821233 -1046049041 -69057355 485588712 281967100 -972360798 -1468465759 -761417069
REM
CELL 1.54180   50.00000   50.00000   50.00000   90.00000   90.00000   90.00000
LATT -1
SFAC C  
C      1  0.4756600000000  0.4512090000000  0.4241350000000 1.0
C      1  0.4679820000000  0.5396410000000  0.5330270000000 1.0
C      1  0.5261960000000  0.5449920000000  0.4287950000000 1.0
C      1  0.5041440000000  0.4519340000000  0.5775160000000 1.0
C      1  0.5074300000000  0.4179080000000  0.5281710000000 1.0
C      1  0.4536740000000  0.4733590000000  0.4361120000000 1.0
C      1  0.5012590000000  0.6021780000000  0.4970760000000 1.0
C      1  0.4839710000000  0.5942420000000  0.4771060000000 1.0
C      1  0.4688120000000  0.5177330000000  0.5075200000000 1.0
C      1  0.4646430000000  0.4705270000000  0.5753200000000 1.0
C      1  0.5145820000000  0.5313010000000  0.4018650000000 1.0
C      1  0.5258190000000  0.4423210000000  0.4618850000000 1.0
C      1  0.4485280000000  0.4900080000000  0.5448100000000 1.0
C      1  0.5481730000000  0.4603560000000  0.4501980000000 1.0
C      1  0.4736670000000  0.5291030000000  0.4461980000000 1.0
C      1  0.5140360000000  0.5550520000000  0.4899880000000 1.0
C      1  0.4738440000000  0.5122760000000  0.4748270000000 1.0
C      1  0.5155380000000  0.5324810000000  0.5431890000000 1.0
C      1  0.5012950000000  0.4372340000000  0.4422870000000 1.0
C      1  0.5125880000000  0.5343160000000  0.4682610000000 1.0
C      1  0.5569790000000  0.5596720000000  0.4896940000000 1.0
C      1  0.5102750000000  0.5711890000000  0.5513350000000 1.0
C      1  0.5728980000000  0.4661730000000  0.4940690000000 1.0
C      1  0.4831640000000  0.5693390000000  0.5109850000000 1.0
C      1  0.4313130000000  0.4828230000000  0.4577050000000 1.0
C      1  0.5130840000000  0.4131480000000  0.5015660000000 1.0
C      1  0.5455990000000  0.4469530000000  0.5482820000000 1.0
C      1  0.4976670000000  0.5532090000000  0.4453870000000 1.0
C      1  0.4810190000000  0.5680060000000  0.4710790000000 1.0
C      1  0.4661200000000  0.4339370000000  0.4850580000000 1.0
C      1  0.5059880000000  0.5031040000000  0.4778510000000 1.0
C      1  0.4385660000000  0.5136320000000  0.5406240000000 1.0
C      1  0.4363980000000  0.5522890000000  0.4824420000000 1.0
C      1  0.4488040000000  0.4991250000000  0.4179030000000 1.0
C      1  0.5114460000000  0.5012700000000  0.5374930000000 1.0
C      1  0.5155320000000  0.5010200000000  0.5872290000000 1.0
C      1  0.5376710000000  0.4251560000000  0.4877450000000 1.0
C      1  0.5209700000000  0.5763400000000  0.4543060000000 1.0
C      1  0.5500800000000  0.5474950000000  0.4419580000000 1.0
C      1  0.5227370000000  0.4513900000000  0.5131290000000 1.0
C      1  0.5914050000000  0.4931180000000  0.4951980000000 1.0
C      1  0.5364920000000  0.4787630000000  0.4239420000000 1.0
C      1  0.5327470000000  0.5578670000000  0.5309440000000 1.0
C      1  0.5770520000000  0.4910870000000  0.5249650000000 1.0
C      1  0.4711970000000  0.4434060000000  0.4569250000000 1.0
C      1  0.4667060000000  0.5174910000000  0.5768350000000 1.0
C      1  0.4188770000000  0.4662910000000  0.5332830000000 1.0
C      1  0.4646950000000  0.5440960000000  0.5832090000000 1.0
C      1  0.4999680000000  0.4368630000000  0.4836810000000 1.0
C      1  0.5721850000000  0.5210920000000  0.5389780000000 1.0
C      1  0.5612540000000  0.5444530000000  0.5207700000000 1.0
C      1  0.5514540000000  0.5176490000000  0.4735120000000 1.0
C      1  0.4662490000000  0.5477280000000  0.4916120000000 1.0
C      1  0.5184950000000  0.4990630000000  0.4081660000000 1.0
C      1  0.5382640000000  0.5414070000000  0.5668500000000 1.0
C      1  0.4920140000000  0.5549910000000  0.4111200000000 1.0
C      1  0.5839230000000  0.5123690000000  0.4764840000000 1.0
C      1  0.5058120000000  0.4925510000000  0.4455170000000 1.0
C      1  0.5514980000000  0.4941090000000  0.4488060000000 1.0
C      1  0.4981380000000  0.4504860000000  0.5310830000000 1.0
C      1  0.5166440000000  0.4740250000000  0.5573070000000 1.0
C      1  0.4874870000000  0.4684550000000  0.4853280000000 1.0
C      1  0.4514210000000  0.4624740000000  0.5241730000000 1.0
C      1  0.5728450000000  0.4549460000000  0.4648420000000 1.0
C      1  0.4921090000000  0.5043210000000  0.5652930000000 1.0
C      1  0.5737970000000  0.4578620000000  0.5327070000000 1.0
C      1  0.5382150000000  0.5327660000000  0.4986610000000 1.0
C      1  0.4075860000000  0.4881100000000  0.5206660000000 1.0
C      1  0.4463970000000  0.5215240000000  0.4342390000000 1.0
C      1  0.4690230000000  0.4391250000000  0.5415520000000 1.0
C      1  0.4809550000000  0.4757370000000  0.4552120000000 1.0
C      1  0.4536260000000  0.4266160000000  0.5158250000000 1.0
C      1  0.5487320000000  0.5673110000000  0.4636040000000 1.0
C      1  0.5192940000000  0.4757470000000  0.4930600000000 1.0
C      1  0.5445060000000  0.4803220000000  0.5452220000000 1.0
C      1  0.5473750000000  0.4815770000000  0.5113640000000 1.0
C      1  0.4445780000000  0.4973270000000  0.4836070000000 1.0
C      1  0.4224100000000  0.5109180000000  0.5040250000000 1.0
C      1  0.5590670000000  0.5217350000000  0.5647690000000 1.0
C      1  0.4973140000000  0.5174100000000  0.4276540000000 1.0
C      1  0.5147950000000  0.5773900000000  0.5124030000000 1.0
C      1  0.5542340000000  0.4423720000000  0.5096000000000 1.0
C      1  0.4513930000000  0.5675510000000  0.5229610000000 1.0
C      1  0.4671110000000  0.4836570000000  0.5026450000000 1.0
C      1  0.4375230000000  0.4640410000000  0.5616290000000 1.0
C      1  0.4932850000000  0.4757860000000  0.5928820000000 1.0
C      1  0.5166440000000  0.5119460000000  0.5089190000000 1.0
C      1  0.5246820000000  0.4291090000000  0.5519860000000 1.0
C      1  0.5453460000000  0.4975820000000  0.5715660000000 1.0
C      1  0.4258630000000  0.5159760000000  0.4537820000000 1.0
C      1  0.4377000000000  0.4482980000000  0.4958040000000 1.0
C      1  0.5114250000000  0.5344650000000  0.5826260000000 1.0
C      1  0.4927600000000  0.4287430000000  0.5637020000000 1.0
C      1  0.4364430000000  0.5376730000000  0.5196460000000 1.0
C      1  0.4886210000000  0.5458230000000  0.5591130000000 1.0
C      1  0.4205970000000  0.4599360000000  0.4767230000000 1.0
C      1  0.5059460000000  0.4656340000000  0.4257180000000 1.0
C      1  0.4849180000000  0.4745460000000  0.5507660000000 1.0
C      1  0.4220170000000  0.5296940000000  0.4775730000000 1.0
C      1  0.5687370000000  0.5231490000000  0.4448410000000 1.0
END
