TITL C-2848494-1720-534 0.00111763839111776 125000 -638.85691331031 0 0 118 (C1) n - 1
REM
REM in /home/bkarasulu/work/CARBON/AIRSS/Generating-Clusters/AIREBO/with-SteepDescent/Only-C1/SD-CG-opt/Try1-1.4A-POS3A/HFTN-CG
REM
REM
REM
REM
REM
REM ./C.cell (11c1c37f851c82e70ff6c80c92926a4b)
REM
REM compiler GCC version 9.2.1 20190827 (Red Hat 9.2.1-1)
REM options -cpp -mtune=generic -march=x86-64 -g -O0 -fpre-include=/usr/include/finclude/math-vector-fortran.h
REM seed -240543690 1249676856 976709676 292436466 -2080599493 1771479147 2091297634 -407431427 389341876 1971119808 905052526 -1376116684 -1414446124 779983541 -986675639 525030827 555741547 -1755306138 433221289 -1080983 607471955 -1492740466 -1696061432 1491094957 -1990597860 4101499 -1938846039 -876617160 -51485290 174154836 -326668646 903420771 -300102742
REM
CELL 1.54180   50.00000   50.00000   50.00000   90.00000   90.00000   90.00000
LATT -1
SFAC C  
C      1  0.5392680000000  0.5113960000000  0.5566680000000 1.0
C      1  0.4961300000000  0.5402510000000  0.4998960000000 1.0
C      1  0.4409710000000  0.4989270000000  0.5762400000000 1.0
C      1  0.5547510000000  0.4327400000000  0.5218750000000 1.0
C      1  0.4290960000000  0.5192970000000  0.5571920000000 1.0
C      1  0.4587870000000  0.5629040000000  0.5769170000000 1.0
C      1  0.4823550000000  0.4648730000000  0.5095190000000 1.0
C      1  0.5100450000000  0.5183720000000  0.4188050000000 1.0
C      1  0.4928830000000  0.4799670000000  0.4819110000000 1.0
C      1  0.4347390000000  0.5738430000000  0.5314540000000 1.0
C      1  0.4360970000000  0.4363290000000  0.4475240000000 1.0
C      1  0.5343850000000  0.5346420000000  0.4903900000000 1.0
C      1  0.4519140000000  0.5523170000000  0.5469070000000 1.0
C      1  0.4899250000000  0.5103080000000  0.4850240000000 1.0
C      1  0.5473930000000  0.4569540000000  0.4251580000000 1.0
C      1  0.5856440000000  0.4845080000000  0.5193170000000 1.0
C      1  0.4276990000000  0.4475650000000  0.4716790000000 1.0
C      1  0.4551310000000  0.5442760000000  0.5140110000000 1.0
C      1  0.5498130000000  0.4694350000000  0.4770860000000 1.0
C      1  0.4359310000000  0.4703030000000  0.5626770000000 1.0
C      1  0.5140460000000  0.4492080000000  0.4280810000000 1.0
C      1  0.4661780000000  0.3974920000000  0.5156860000000 1.0
C      1  0.5453140000000  0.5182870000000  0.5248060000000 1.0
C      1  0.5753580000000  0.5329930000000  0.4746640000000 1.0
C      1  0.5764530000000  0.5075160000000  0.4628700000000 1.0
C      1  0.5683240000000  0.5517550000000  0.4533860000000 1.0
C      1  0.5431280000000  0.4192860000000  0.4639710000000 1.0
C      1  0.5178430000000  0.4891180000000  0.5573670000000 1.0
C      1  0.5069200000000  0.5437310000000  0.5786880000000 1.0
C      1  0.5842290000000  0.5205030000000  0.5502110000000 1.0
C      1  0.5046630000000  0.5691540000000  0.5397410000000 1.0
C      1  0.4849340000000  0.4122650000000  0.5004640000000 1.0
C      1  0.4870110000000  0.5516630000000  0.4691820000000 1.0
C      1  0.4394210000000  0.4345860000000  0.5301230000000 1.0
C      1  0.5226460000000  0.5120020000000  0.4783690000000 1.0
C      1  0.4715570000000  0.5056910000000  0.5767670000000 1.0
C      1  0.5829990000000  0.4506250000000  0.5174000000000 1.0
C      1  0.5835970000000  0.4595870000000  0.5502050000000 1.0
C      1  0.4641280000000  0.5080200000000  0.5070670000000 1.0
C      1  0.5127400000000  0.5207200000000  0.5222290000000 1.0
C      1  0.4264440000000  0.4873990000000  0.4458650000000 1.0
C      1  0.4813190000000  0.4835910000000  0.4019780000000 1.0
C      1  0.4088710000000  0.4625480000000  0.5499480000000 1.0
C      1  0.4874550000000  0.4907410000000  0.5506340000000 1.0
C      1  0.4720500000000  0.6024460000000  0.4772310000000 1.0
C      1  0.4815380000000  0.5302960000000  0.4102860000000 1.0
C      1  0.4681660000000  0.5523890000000  0.4408930000000 1.0
C      1  0.4840480000000  0.5613400000000  0.5193850000000 1.0
C      1  0.4356900000000  0.5023490000000  0.4243110000000 1.0
C      1  0.4436220000000  0.4778580000000  0.4736290000000 1.0
C      1  0.4563170000000  0.5226730000000  0.4293740000000 1.0
C      1  0.5020080000000  0.5382360000000  0.5464400000000 1.0
C      1  0.5108470000000  0.4119650000000  0.5102860000000 1.0
C      1  0.5858880000000  0.4785470000000  0.4624670000000 1.0
C      1  0.4789520000000  0.5543830000000  0.5925190000000 1.0
C      1  0.5282320000000  0.4212680000000  0.4413270000000 1.0
C      1  0.5364830000000  0.4246260000000  0.4943670000000 1.0
C      1  0.5048460000000  0.4521480000000  0.4668030000000 1.0
C      1  0.5327530000000  0.4585610000000  0.4547540000000 1.0
C      1  0.4412570000000  0.5171400000000  0.5290940000000 1.0
C      1  0.5718290000000  0.5449240000000  0.5384180000000 1.0
C      1  0.5289550000000  0.4608650000000  0.5535360000000 1.0
C      1  0.3991200000000  0.5887630000000  0.4765580000000 1.0
C      1  0.4873080000000  0.4631970000000  0.4278160000000 1.0
C      1  0.5214110000000  0.4396250000000  0.5280730000000 1.0
C      1  0.4095830000000  0.5658650000000  0.4861270000000 1.0
C      1  0.4763460000000  0.4369970000000  0.4903870000000 1.0
C      1  0.5384050000000  0.5340080000000  0.4139360000000 1.0
C      1  0.5315370000000  0.5768020000000  0.5385300000000 1.0
C      1  0.5672010000000  0.5028200000000  0.5673590000000 1.0
C      1  0.5186420000000  0.4534380000000  0.4971250000000 1.0
C      1  0.5377810000000  0.5734230000000  0.4673320000000 1.0
C      1  0.5023070000000  0.4307110000000  0.5722770000000 1.0
C      1  0.5233300000000  0.4401670000000  0.5872220000000 1.0
C      1  0.5287410000000  0.4853030000000  0.4985440000000 1.0
C      1  0.4575110000000  0.4121820000000  0.5383680000000 1.0
C      1  0.4523970000000  0.4776180000000  0.5064770000000 1.0
C      1  0.4001900000000  0.5409740000000  0.4779770000000 1.0
C      1  0.5030020000000  0.4896310000000  0.5203760000000 1.0
C      1  0.5633660000000  0.5400150000000  0.5058480000000 1.0
C      1  0.5495180000000  0.5581720000000  0.5523360000000 1.0
C      1  0.5353040000000  0.5393480000000  0.5684370000000 1.0
C      1  0.4239240000000  0.5010470000000  0.3995530000000 1.0
C      1  0.4870800000000  0.5238910000000  0.5961740000000 1.0
C      1  0.4594770000000  0.5357980000000  0.4813580000000 1.0
C      1  0.5706850000000  0.4746670000000  0.5745050000000 1.0
C      1  0.5448590000000  0.5496990000000  0.4362480000000 1.0
C      1  0.4917160000000  0.5836470000000  0.4797570000000 1.0
C      1  0.4067530000000  0.4570790000000  0.5254430000000 1.0
C      1  0.5540480000000  0.4899420000000  0.5171770000000 1.0
C      1  0.5469470000000  0.4582090000000  0.5807620000000 1.0
C      1  0.5493790000000  0.5888980000000  0.4471990000000 1.0
C      1  0.4731170000000  0.5162210000000  0.4571070000000 1.0
C      1  0.5547550000000  0.4684290000000  0.5386080000000 1.0
C      1  0.5992840000000  0.5042810000000  0.5317930000000 1.0
C      1  0.4796250000000  0.4211390000000  0.5553640000000 1.0
C      1  0.5268840000000  0.5159780000000  0.4476200000000 1.0
C      1  0.4895690000000  0.4476980000000  0.5368830000000 1.0
C      1  0.5538440000000  0.5710070000000  0.4955970000000 1.0
C      1  0.4869660000000  0.4973500000000  0.4322790000000 1.0
C      1  0.4110980000000  0.5170480000000  0.4696570000000 1.0
C      1  0.4576790000000  0.4531190000000  0.5473220000000 1.0
C      1  0.5642010000000  0.4390290000000  0.4695450000000 1.0
C      1  0.4711490000000  0.4595990000000  0.4655150000000 1.0
C      1  0.4380600000000  0.5113480000000  0.4756840000000 1.0
C      1  0.3984520000000  0.4947490000000  0.4543860000000 1.0
C      1  0.4307240000000  0.4533960000000  0.5035030000000 1.0
C      1  0.5602220000000  0.5164600000000  0.4058180000000 1.0
C      1  0.5183780000000  0.5874860000000  0.4884000000000 1.0
C      1  0.5652530000000  0.4766860000000  0.4401970000000 1.0
C      1  0.5377980000000  0.5886230000000  0.5138460000000 1.0
C      1  0.5803120000000  0.4607620000000  0.4879950000000 1.0
C      1  0.4610300000000  0.4459010000000  0.4388060000000 1.0
C      1  0.5183390000000  0.5477550000000  0.4563760000000 1.0
C      1  0.5551880000000  0.5065100000000  0.4374880000000 1.0
C      1  0.4738260000000  0.5315130000000  0.5572460000000 1.0
C      1  0.4550540000000  0.4911550000000  0.5438130000000 1.0
C      1  0.4293070000000  0.5651160000000  0.5048020000000 1.0
END
