TITL C-2847946-5639-133 -0.00324590922094226 125000 -80.5945800583796 0 0 17 (C1) n - 1
REM
REM in /home/bkarasulu/work/CARBON/AIRSS/Generating-Clusters/AIREBO/with-SteepDescent/Only-C1/SD-CG-opt/Try1-1.4A-POS3A/HFTN-CG
REM
REM
REM
REM
REM
REM ./C.cell (11c1c37f851c82e70ff6c80c92926a4b)
REM
REM compiler GCC version 9.2.1 20190827 (Red Hat 9.2.1-1)
REM options -cpp -mtune=generic -march=x86-64 -g -O0 -fpre-include=/usr/include/finclude/math-vector-fortran.h
REM seed 1454251486 -1504472212 1227117087 -67804062 302642389 -30205546 -343591774 868306102 -2114296356 1261605862 -31510153 -738813474 1617140120 -2018108565 -1208331274 607532403 844998569 340665138 -771719247 -1810645588 -1721661774 99714995 1767466313 2142233710 127943731 -1054494604 775501225 1150713633 -180882705 1877562414 447713858 1182082463 -770488693
REM
CELL 1.54180   50.00000   50.00000   50.00000   90.00000   90.00000   90.00000
LATT -1
SFAC C  
C      1  0.5626680000000  0.5114550000000  0.4835820000000 1.0
C      1  0.4757880000000  0.5145320000000  0.5375910000000 1.0
C      1  0.4360560000000  0.5121890000000  0.4587010000000 1.0
C      1  0.5238050000000  0.4965910000000  0.5209650000000 1.0
C      1  0.5362410000000  0.5039760000000  0.4989180000000 1.0
C      1  0.5251140000000  0.5052480000000  0.4350860000000 1.0
C      1  0.5275060000000  0.4984000000000  0.5682730000000 1.0
C      1  0.4622800000000  0.5074340000000  0.5118060000000 1.0
C      1  0.5330180000000  0.5128700000000  0.4672640000000 1.0
C      1  0.5375270000000  0.4902480000000  0.5445280000000 1.0
C      1  0.4951520000000  0.4937010000000  0.5209110000000 1.0
C      1  0.4452790000000  0.4971590000000  0.4878530000000 1.0
C      1  0.5229980000000  0.5344670000000  0.4429560000000 1.0
C      1  0.4618740000000  0.4707620000000  0.4917620000000 1.0
C      1  0.4137670000000  0.5051850000000  0.4779220000000 1.0
C      1  0.4804410000000  0.4697280000000  0.5088100000000 1.0
C      1  0.5604870000000  0.4760570000000  0.5430730000000 1.0
END
