TITL C-2847945-6269-692 -0.00106759347005575 125000 -749.511830108397 0 0 143 (C1) n - 1
REM
REM in /home/bkarasulu/work/CARBON/AIRSS/Generating-Clusters/AIREBO/with-SteepDescent/Only-C1/SD-CG-opt/Try1-1.4A-POS3A/HFTN-CG
REM
REM
REM
REM
REM
REM ./C.cell (11c1c37f851c82e70ff6c80c92926a4b)
REM
REM compiler GCC version 9.2.1 20190827 (Red Hat 9.2.1-1)
REM options -cpp -mtune=generic -march=x86-64 -g -O0 -fpre-include=/usr/include/finclude/math-vector-fortran.h
REM seed 273787501 -1142887462 2053730287 -573446949 -1283696560 1889447061 -664346647 1983638965 337156790 -1661948811 -1051728460 -631616030 -1072654612 1121171959 1461847618 1175806015 1601285376 1795388721 2124061148 1760444086 1859513645 606770348 -422533137 1552652845 2068434457 536026858 -1040194197 -1549064638 579573274 712786661 803532052 767557730 -536500355
REM
CELL 1.54180   50.00000   50.00000   50.00000   90.00000   90.00000   90.00000
LATT -1
SFAC C  
C      1  0.4577900000000  0.5369310000000  0.5176930000000 1.0
C      1  0.5055970000000  0.5977760000000  0.5489680000000 1.0
C      1  0.4694550000000  0.4562060000000  0.4769630000000 1.0
C      1  0.4946380000000  0.4359730000000  0.4661670000000 1.0
C      1  0.5294940000000  0.4932980000000  0.4419290000000 1.0
C      1  0.5540480000000  0.4290510000000  0.4416610000000 1.0
C      1  0.5526490000000  0.5667510000000  0.4890870000000 1.0
C      1  0.4121940000000  0.5098260000000  0.4971210000000 1.0
C      1  0.5454060000000  0.5249950000000  0.5723640000000 1.0
C      1  0.4046730000000  0.4543850000000  0.5282390000000 1.0
C      1  0.5044330000000  0.5907350000000  0.4802030000000 1.0
C      1  0.4839960000000  0.3925300000000  0.5132830000000 1.0
C      1  0.5225550000000  0.5518040000000  0.5911600000000 1.0
C      1  0.5342270000000  0.5610650000000  0.5287010000000 1.0
C      1  0.4560010000000  0.5014490000000  0.4750350000000 1.0
C      1  0.4978720000000  0.4505330000000  0.5969430000000 1.0
C      1  0.4386770000000  0.5826440000000  0.5067190000000 1.0
C      1  0.5252870000000  0.5725440000000  0.5571180000000 1.0
C      1  0.4818430000000  0.6067880000000  0.4934690000000 1.0
C      1  0.5012450000000  0.5695430000000  0.4582520000000 1.0
C      1  0.5000610000000  0.4193110000000  0.5582610000000 1.0
C      1  0.5198590000000  0.4581530000000  0.5517760000000 1.0
C      1  0.4476800000000  0.4946600000000  0.5384700000000 1.0
C      1  0.5691440000000  0.4424320000000  0.5327790000000 1.0
C      1  0.4164150000000  0.5163190000000  0.4416820000000 1.0
C      1  0.5004920000000  0.5029290000000  0.4733620000000 1.0
C      1  0.6011320000000  0.4504860000000  0.5245250000000 1.0
C      1  0.5845960000000  0.4892800000000  0.4532450000000 1.0
C      1  0.5058350000000  0.5442140000000  0.5040530000000 1.0
C      1  0.4451010000000  0.4628180000000  0.5621940000000 1.0
C      1  0.5189210000000  0.5459360000000  0.4730200000000 1.0
C      1  0.4723750000000  0.4137610000000  0.4898540000000 1.0
C      1  0.5181460000000  0.4887270000000  0.5457830000000 1.0
C      1  0.4481350000000  0.4931030000000  0.4360190000000 1.0
C      1  0.4943760000000  0.5595690000000  0.5514100000000 1.0
C      1  0.5246520000000  0.5309280000000  0.5273830000000 1.0
C      1  0.4852130000000  0.5868860000000  0.5697900000000 1.0
C      1  0.4882450000000  0.4640170000000  0.4344180000000 1.0
C      1  0.5105940000000  0.4489780000000  0.4136530000000 1.0
C      1  0.5467050000000  0.5332590000000  0.4882520000000 1.0
C      1  0.4341150000000  0.5533890000000  0.4428770000000 1.0
C      1  0.4556380000000  0.5685420000000  0.5266820000000 1.0
C      1  0.4818500000000  0.5296610000000  0.5616530000000 1.0
C      1  0.4543250000000  0.5742570000000  0.4709240000000 1.0
C      1  0.4058770000000  0.5368250000000  0.5118040000000 1.0
C      1  0.5367020000000  0.4098560000000  0.5043660000000 1.0
C      1  0.5472220000000  0.4745990000000  0.5758570000000 1.0
C      1  0.5606160000000  0.4764710000000  0.4233940000000 1.0
C      1  0.5679930000000  0.5509380000000  0.5474770000000 1.0
C      1  0.4895690000000  0.4280760000000  0.5830200000000 1.0
C      1  0.5762480000000  0.5282950000000  0.4312080000000 1.0
C      1  0.5055660000000  0.5683640000000  0.4249090000000 1.0
C      1  0.5662730000000  0.4265710000000  0.5028350000000 1.0
C      1  0.5824970000000  0.5686880000000  0.4729160000000 1.0
C      1  0.5658720000000  0.5698890000000  0.5196000000000 1.0
C      1  0.5859700000000  0.4872270000000  0.5480000000000 1.0
C      1  0.5118730000000  0.4607920000000  0.5180540000000 1.0
C      1  0.5500980000000  0.5570400000000  0.5727490000000 1.0
C      1  0.5453200000000  0.4178410000000  0.5353890000000 1.0
C      1  0.4709420000000  0.5440660000000  0.4633180000000 1.0
C      1  0.5425710000000  0.5020580000000  0.5287840000000 1.0
C      1  0.5803830000000  0.5528150000000  0.4508060000000 1.0
C      1  0.5007360000000  0.5405480000000  0.5877560000000 1.0
C      1  0.5895750000000  0.5468870000000  0.5206060000000 1.0
C      1  0.4519160000000  0.4221960000000  0.4666190000000 1.0
C      1  0.4984850000000  0.5949000000000  0.5190910000000 1.0
C      1  0.4202340000000  0.4758430000000  0.5458230000000 1.0
C      1  0.4656110000000  0.4381080000000  0.4392030000000 1.0
C      1  0.5184610000000  0.4634190000000  0.4498980000000 1.0
C      1  0.4382520000000  0.4372220000000  0.4219040000000 1.0
C      1  0.4746370000000  0.4694500000000  0.5072340000000 1.0
C      1  0.5197330000000  0.5176310000000  0.5584270000000 1.0
C      1  0.4357310000000  0.4641780000000  0.5053660000000 1.0
C      1  0.4863590000000  0.4277170000000  0.5317320000000 1.0
C      1  0.4982210000000  0.3960360000000  0.4766710000000 1.0
C      1  0.4957190000000  0.5142140000000  0.5050830000000 1.0
C      1  0.4880720000000  0.5639780000000  0.5207280000000 1.0
C      1  0.4505200000000  0.5614280000000  0.5921450000000 1.0
C      1  0.3890050000000  0.4714580000000  0.4695470000000 1.0
C      1  0.4705350000000  0.5705890000000  0.4435630000000 1.0
C      1  0.4290730000000  0.4438190000000  0.4535040000000 1.0
C      1  0.5406460000000  0.5762550000000  0.4587250000000 1.0
C      1  0.4437140000000  0.5116830000000  0.5825590000000 1.0
C      1  0.4899270000000  0.4837640000000  0.5302200000000 1.0
C      1  0.5437900000000  0.4587050000000  0.5064990000000 1.0
C      1  0.5264970000000  0.4308150000000  0.4554470000000 1.0
C      1  0.5621270000000  0.4751940000000  0.5269320000000 1.0
C      1  0.5340260000000  0.5026730000000  0.4804490000000 1.0
C      1  0.4593320000000  0.4440110000000  0.5192540000000 1.0
C      1  0.4778070000000  0.4896600000000  0.4517550000000 1.0
C      1  0.5825690000000  0.5019860000000  0.4272400000000 1.0
C      1  0.5670990000000  0.5206360000000  0.5391720000000 1.0
C      1  0.4530670000000  0.4392800000000  0.5501930000000 1.0
C      1  0.5534690000000  0.5343330000000  0.4549380000000 1.0
C      1  0.4293880000000  0.5220450000000  0.4721930000000 1.0
C      1  0.5227670000000  0.4087070000000  0.4771040000000 1.0
C      1  0.5362530000000  0.4574200000000  0.4091760000000 1.0
C      1  0.4870340000000  0.5507280000000  0.4131030000000 1.0
C      1  0.4152940000000  0.4792340000000  0.4825940000000 1.0
C      1  0.4558080000000  0.5538060000000  0.4179180000000 1.0
C      1  0.4916170000000  0.5270160000000  0.4510510000000 1.0
C      1  0.5176500000000  0.5128940000000  0.4001350000000 1.0
C      1  0.5302650000000  0.5830250000000  0.4343880000000 1.0
C      1  0.4955380000000  0.4266960000000  0.4334280000000 1.0
C      1  0.5254270000000  0.5811700000000  0.5034770000000 1.0
C      1  0.4950950000000  0.5015390000000  0.5755020000000 1.0
C      1  0.5918300000000  0.4936650000000  0.5010970000000 1.0
C      1  0.5360090000000  0.4968520000000  0.4117520000000 1.0
C      1  0.4163180000000  0.5526170000000  0.4642250000000 1.0
C      1  0.5209560000000  0.4914640000000  0.5063900000000 1.0
C      1  0.4408690000000  0.5236510000000  0.4228760000000 1.0
C      1  0.6016280000000  0.4798540000000  0.5239380000000 1.0
C      1  0.4139680000000  0.4406920000000  0.5031380000000 1.0
C      1  0.4680810000000  0.4999040000000  0.5960960000000 1.0
C      1  0.4515050000000  0.5390450000000  0.5716600000000 1.0
C      1  0.4101270000000  0.5403300000000  0.5388660000000 1.0
C      1  0.5277000000000  0.4194380000000  0.5571640000000 1.0
C      1  0.5133220000000  0.4730680000000  0.5816390000000 1.0
C      1  0.4925920000000  0.5203610000000  0.4176590000000 1.0
C      1  0.4955530000000  0.4364460000000  0.5001820000000 1.0
C      1  0.5238560000000  0.5233150000000  0.4481140000000 1.0
C      1  0.5258280000000  0.4611550000000  0.4808270000000 1.0
C      1  0.5381210000000  0.4418440000000  0.5753710000000 1.0
C      1  0.4474210000000  0.5459020000000  0.4883790000000 1.0
C      1  0.4176250000000  0.5608660000000  0.4950830000000 1.0
C      1  0.4557900000000  0.5989380000000  0.4884510000000 1.0
C      1  0.4674430000000  0.4851110000000  0.5644460000000 1.0
C      1  0.5683880000000  0.4491630000000  0.5661050000000 1.0
C      1  0.4748970000000  0.5139910000000  0.5319730000000 1.0
C      1  0.4426470000000  0.4723520000000  0.4635810000000 1.0
C      1  0.4965980000000  0.4721580000000  0.4822290000000 1.0
C      1  0.5650280000000  0.4548290000000  0.4493480000000 1.0
C      1  0.5736090000000  0.5206530000000  0.5057060000000 1.0
C      1  0.4209870000000  0.4258570000000  0.4802730000000 1.0
C      1  0.5876160000000  0.4772590000000  0.4793000000000 1.0
C      1  0.5098730000000  0.4050620000000  0.5222340000000 1.0
C      1  0.4246530000000  0.4966300000000  0.5713350000000 1.0
C      1  0.5621690000000  0.4993750000000  0.5653100000000 1.0
C      1  0.4702900000000  0.4984450000000  0.4135350000000 1.0
C      1  0.4396080000000  0.5461090000000  0.5449970000000 1.0
C      1  0.5679010000000  0.4532580000000  0.4831510000000 1.0
C      1  0.4423410000000  0.4966930000000  0.5058070000000 1.0
C      1  0.5524960000000  0.4838950000000  0.4617880000000 1.0
END
