TITL C-2848499-1157-236 0.000320183677004483 125000 -215.972628862572 0 0 39 (C1) n - 1
REM
REM in /home/bkarasulu/work/CARBON/AIRSS/Generating-Clusters/AIREBO/with-SteepDescent/Only-C1/SD-CG-opt/Try1-1.4A-POS3A/HFTN-CG
REM
REM
REM
REM
REM
REM ./C.cell (11c1c37f851c82e70ff6c80c92926a4b)
REM
REM compiler GCC version 9.2.1 20190827 (Red Hat 9.2.1-1)
REM options -cpp -mtune=generic -march=x86-64 -g -O0 -fpre-include=/usr/include/finclude/math-vector-fortran.h
REM seed 577498904 -1358383735 -319738574 851767557 435864895 -303870504 1175038166 -1763482774 -1284833378 -1919176048 -1378962644 832599554 1349946257 956824186 -51755730 -71381883 1701555265 -55300193 -414024231 1202962103 -574660622 -1748034744 541125560 -990570397 -1550803372 -1353915600 1521854805 1146936067 84225011 829195270 -1940350739 1510411819 -251677761
REM
CELL 1.54180   50.00000   50.00000   50.00000   90.00000   90.00000   90.00000
LATT -1
SFAC C  
C      1  0.4945360000000  0.5428410000000  0.5332440000000 1.0
C      1  0.4388610000000  0.5634860000000  0.4685740000000 1.0
C      1  0.4480630000000  0.5142610000000  0.4574970000000 1.0
C      1  0.5193240000000  0.5634180000000  0.4990750000000 1.0
C      1  0.5987350000000  0.4253540000000  0.5502290000000 1.0
C      1  0.4571710000000  0.5424520000000  0.4715290000000 1.0
C      1  0.5345880000000  0.4897290000000  0.4941450000000 1.0
C      1  0.4886320000000  0.4444250000000  0.4746750000000 1.0
C      1  0.4647540000000  0.4566710000000  0.4811600000000 1.0
C      1  0.4980070000000  0.5108520000000  0.5403750000000 1.0
C      1  0.4844240000000  0.4885620000000  0.5577670000000 1.0
C      1  0.5274190000000  0.5020650000000  0.5314610000000 1.0
C      1  0.5638990000000  0.4489710000000  0.5183740000000 1.0
C      1  0.4573450000000  0.5270740000000  0.5007230000000 1.0
C      1  0.4842190000000  0.5206570000000  0.5111670000000 1.0
C      1  0.5456230000000  0.4601640000000  0.5040220000000 1.0
C      1  0.5061770000000  0.5651600000000  0.5244400000000 1.0
C      1  0.5100210000000  0.4781450000000  0.5146760000000 1.0
C      1  0.4866300000000  0.5499270000000  0.4642120000000 1.0
C      1  0.5025600000000  0.5704690000000  0.4763640000000 1.0
C      1  0.5528460000000  0.5147910000000  0.5503320000000 1.0
C      1  0.4590500000000  0.4921280000000  0.4385530000000 1.0
C      1  0.5016640000000  0.5275600000000  0.4636600000000 1.0
C      1  0.4402630000000  0.5051010000000  0.5035470000000 1.0
C      1  0.5010320000000  0.5101430000000  0.4891770000000 1.0
C      1  0.5163140000000  0.4543240000000  0.4912450000000 1.0
C      1  0.5813000000000  0.4380070000000  0.5352980000000 1.0
C      1  0.4513940000000  0.4750370000000  0.4641510000000 1.0
C      1  0.5390860000000  0.5417830000000  0.4995930000000 1.0
C      1  0.4324510000000  0.4963820000000  0.4776070000000 1.0
C      1  0.4497830000000  0.4852840000000  0.5205620000000 1.0
C      1  0.5211700000000  0.4987840000000  0.4642250000000 1.0
C      1  0.4823950000000  0.4816040000000  0.5822540000000 1.0
C      1  0.5408050000000  0.5209750000000  0.4809260000000 1.0
C      1  0.5135870000000  0.4524310000000  0.4580010000000 1.0
C      1  0.4604110000000  0.4587910000000  0.5087590000000 1.0
C      1  0.4819260000000  0.4763120000000  0.5284100000000 1.0
C      1  0.5437960000000  0.5305840000000  0.5247040000000 1.0
C      1  0.5197380000000  0.4752950000000  0.4452860000000 1.0
END
