TITL C-2847954-6904-448 -0.000516354512576378 125000 -823.838210877344 0 0 155 (C1) n - 1
REM
REM in /home/bkarasulu/work/CARBON/AIRSS/Generating-Clusters/AIREBO/with-SteepDescent/Only-C1/SD-CG-opt/Try1-1.4A-POS3A/HFTN-CG
REM
REM
REM
REM
REM
REM ./C.cell (11c1c37f851c82e70ff6c80c92926a4b)
REM
REM compiler GCC version 9.2.1 20190827 (Red Hat 9.2.1-1)
REM options -cpp -mtune=generic -march=x86-64 -g -O0 -fpre-include=/usr/include/finclude/math-vector-fortran.h
REM seed 574666935 2017369498 -1502467564 -1710736388 936598505 1205514860 790431702 1224559453 355548736 -425971195 1067225214 595503723 -798678576 -1444442976 855801696 1917792054 -87472855 299268986 -2056962440 502208272 -1974327488 -1329432354 -1687589804 462295161 -1049130507 141027501 -431530872 1407245369 -1197172697 536844728 1425889271 -1561984130 1343677901
REM
CELL 1.54180   50.00000   50.00000   50.00000   90.00000   90.00000   90.00000
LATT -1
SFAC C  
C      1  0.4515940000000  0.4585860000000  0.5315660000000 1.0
C      1  0.4009130000000  0.5249390000000  0.4894820000000 1.0
C      1  0.5737530000000  0.5689080000000  0.5242450000000 1.0
C      1  0.5149650000000  0.4886820000000  0.4995010000000 1.0
C      1  0.4559930000000  0.5789820000000  0.5550590000000 1.0
C      1  0.4022130000000  0.4706770000000  0.4525670000000 1.0
C      1  0.4409760000000  0.4361560000000  0.5762800000000 1.0
C      1  0.5575670000000  0.4220300000000  0.5049060000000 1.0
C      1  0.4677230000000  0.4638810000000  0.4685320000000 1.0
C      1  0.5333630000000  0.4526840000000  0.5112330000000 1.0
C      1  0.3973930000000  0.5237230000000  0.5217760000000 1.0
C      1  0.5921010000000  0.4945340000000  0.5245210000000 1.0
C      1  0.4790140000000  0.5250120000000  0.4022440000000 1.0
C      1  0.5009330000000  0.5172760000000  0.6120970000000 1.0
C      1  0.5242650000000  0.5402820000000  0.5773920000000 1.0
C      1  0.4538450000000  0.4992180000000  0.5047460000000 1.0
C      1  0.4739500000000  0.5389470000000  0.5353420000000 1.0
C      1  0.5471320000000  0.4701210000000  0.5371260000000 1.0
C      1  0.4031120000000  0.4967270000000  0.4708300000000 1.0
C      1  0.4015210000000  0.5248570000000  0.4558580000000 1.0
C      1  0.5079880000000  0.4829240000000  0.3962400000000 1.0
C      1  0.5614050000000  0.5218980000000  0.4909400000000 1.0
C      1  0.5766450000000  0.5410810000000  0.4214970000000 1.0
C      1  0.4835250000000  0.5881040000000  0.5191390000000 1.0
C      1  0.4958040000000  0.5734480000000  0.4943910000000 1.0
C      1  0.4165610000000  0.4392520000000  0.5620160000000 1.0
C      1  0.5798840000000  0.5007870000000  0.4762160000000 1.0
C      1  0.4630210000000  0.5778630000000  0.4865140000000 1.0
C      1  0.5339010000000  0.5644130000000  0.5020490000000 1.0
C      1  0.5087990000000  0.4542230000000  0.5342440000000 1.0
C      1  0.4252330000000  0.5053750000000  0.5143490000000 1.0
C      1  0.4995780000000  0.6006270000000  0.4653830000000 1.0
C      1  0.6055540000000  0.5352510000000  0.4977520000000 1.0
C      1  0.5179510000000  0.5426490000000  0.5487470000000 1.0
C      1  0.4541070000000  0.5297950000000  0.4669300000000 1.0
C      1  0.4233790000000  0.5218820000000  0.5433010000000 1.0
C      1  0.4940330000000  0.4520230000000  0.3988870000000 1.0
C      1  0.4601690000000  0.5206270000000  0.5855710000000 1.0
C      1  0.6004700000000  0.4681070000000  0.4649140000000 1.0
C      1  0.5192980000000  0.5762020000000  0.5432910000000 1.0
C      1  0.4906850000000  0.4450710000000  0.5858890000000 1.0
C      1  0.5470150000000  0.5852450000000  0.5255210000000 1.0
C      1  0.4924900000000  0.5236150000000  0.5138290000000 1.0
C      1  0.5058410000000  0.5143100000000  0.3956570000000 1.0
C      1  0.4990720000000  0.5438440000000  0.5959680000000 1.0
C      1  0.4968530000000  0.4778390000000  0.5926290000000 1.0
C      1  0.5579300000000  0.4363310000000  0.5554740000000 1.0
C      1  0.5117810000000  0.4107550000000  0.4773370000000 1.0
C      1  0.4361880000000  0.4463720000000  0.4228550000000 1.0
C      1  0.4346980000000  0.5613680000000  0.4519610000000 1.0
C      1  0.4516100000000  0.4108920000000  0.4690080000000 1.0
C      1  0.5112140000000  0.4672060000000  0.4332810000000 1.0
C      1  0.5836280000000  0.4412720000000  0.4572790000000 1.0
C      1  0.5693860000000  0.4712620000000  0.4514870000000 1.0
C      1  0.5855380000000  0.5289000000000  0.4483500000000 1.0
C      1  0.5210310000000  0.4668030000000  0.5586690000000 1.0
C      1  0.5574000000000  0.5116820000000  0.4398990000000 1.0
C      1  0.5611630000000  0.4679270000000  0.5680360000000 1.0
C      1  0.5823270000000  0.4841870000000  0.4250280000000 1.0
C      1  0.5393380000000  0.5682090000000  0.4289340000000 1.0
C      1  0.4948220000000  0.4806350000000  0.4714860000000 1.0
C      1  0.5413490000000  0.5461460000000  0.5297410000000 1.0
C      1  0.5983090000000  0.4986080000000  0.4496640000000 1.0
C      1  0.5200870000000  0.5907380000000  0.5740190000000 1.0
C      1  0.5081340000000  0.5114340000000  0.5414640000000 1.0
C      1  0.5976860000000  0.5085230000000  0.5010870000000 1.0
C      1  0.5352500000000  0.4720230000000  0.4121540000000 1.0
C      1  0.5440870000000  0.4447360000000  0.4295880000000 1.0
C      1  0.4788200000000  0.4109300000000  0.5434040000000 1.0
C      1  0.5564570000000  0.5112770000000  0.5192930000000 1.0
C      1  0.4482130000000  0.4889700000000  0.5888700000000 1.0
C      1  0.4204220000000  0.5481090000000  0.5002130000000 1.0
C      1  0.4766060000000  0.5204670000000  0.4347530000000 1.0
C      1  0.4418060000000  0.4110750000000  0.4955210000000 1.0
C      1  0.5544900000000  0.4849290000000  0.5967260000000 1.0
C      1  0.4620030000000  0.4112140000000  0.5142160000000 1.0
C      1  0.4703980000000  0.4804500000000  0.5201370000000 1.0
C      1  0.4687020000000  0.4259180000000  0.5710310000000 1.0
C      1  0.5230210000000  0.5908970000000  0.4831030000000 1.0
C      1  0.5069140000000  0.4172590000000  0.4443030000000 1.0
C      1  0.4343400000000  0.5787600000000  0.5049960000000 1.0
C      1  0.4786420000000  0.4419580000000  0.5359050000000 1.0
C      1  0.5909460000000  0.5640480000000  0.5023250000000 1.0
C      1  0.4257060000000  0.5061530000000  0.5706590000000 1.0
C      1  0.5153760000000  0.4967160000000  0.5712590000000 1.0
C      1  0.4180320000000  0.4488200000000  0.4709690000000 1.0
C      1  0.5143310000000  0.5767850000000  0.4169620000000 1.0
C      1  0.4628920000000  0.5501760000000  0.4403450000000 1.0
C      1  0.4747260000000  0.4988530000000  0.6073180000000 1.0
C      1  0.5139180000000  0.4550420000000  0.4635980000000 1.0
C      1  0.4946460000000  0.4661810000000  0.5084750000000 1.0
C      1  0.5481500000000  0.4929890000000  0.4667680000000 1.0
C      1  0.4420070000000  0.4868090000000  0.5479310000000 1.0
C      1  0.4544270000000  0.4623710000000  0.5786070000000 1.0
C      1  0.5199940000000  0.5107790000000  0.4741410000000 1.0
C      1  0.5044680000000  0.5306850000000  0.4513590000000 1.0
C      1  0.5784000000000  0.4701960000000  0.5237450000000 1.0
C      1  0.5778670000000  0.5144710000000  0.5455170000000 1.0
C      1  0.4296220000000  0.4796270000000  0.4798490000000 1.0
C      1  0.4537070000000  0.5703320000000  0.5819920000000 1.0
C      1  0.5548790000000  0.4341030000000  0.4523130000000 1.0
C      1  0.4287230000000  0.5299290000000  0.4443060000000 1.0
C      1  0.4899450000000  0.4434040000000  0.4847210000000 1.0
C      1  0.4800760000000  0.5796050000000  0.4571390000000 1.0
C      1  0.5137530000000  0.5379180000000  0.4950920000000 1.0
C      1  0.4159580000000  0.4726850000000  0.4261790000000 1.0
C      1  0.5690180000000  0.5435910000000  0.5387710000000 1.0
C      1  0.4948550000000  0.4932580000000  0.4324120000000 1.0
C      1  0.4913690000000  0.5619320000000  0.4303460000000 1.0
C      1  0.4672210000000  0.5490510000000  0.5913790000000 1.0
C      1  0.4769950000000  0.4789780000000  0.4096630000000 1.0
C      1  0.4480370000000  0.5024830000000  0.4388310000000 1.0
C      1  0.5614580000000  0.5067680000000  0.3842480000000 1.0
C      1  0.4870560000000  0.5109070000000  0.4826910000000 1.0
C      1  0.5564370000000  0.4935920000000  0.4110610000000 1.0
C      1  0.4257660000000  0.5763300000000  0.4723800000000 1.0
C      1  0.4943290000000  0.4168020000000  0.5058990000000 1.0
C      1  0.5109520000000  0.4107800000000  0.5322780000000 1.0
C      1  0.4399530000000  0.5861200000000  0.5344700000000 1.0
C      1  0.5363710000000  0.4255410000000  0.5314980000000 1.0
C      1  0.5597500000000  0.5921890000000  0.4469320000000 1.0
C      1  0.5195410000000  0.3823260000000  0.4783050000000 1.0
C      1  0.5392670000000  0.4632450000000  0.4807860000000 1.0
C      1  0.4792900000000  0.4154910000000  0.4684790000000 1.0
C      1  0.4581080000000  0.4963540000000  0.4716720000000 1.0
C      1  0.5399490000000  0.4292690000000  0.4795480000000 1.0
C      1  0.5444020000000  0.5210880000000  0.5836420000000 1.0
C      1  0.4919600000000  0.4411110000000  0.4299170000000 1.0
C      1  0.4202640000000  0.4611790000000  0.5406750000000 1.0
C      1  0.4645390000000  0.4480360000000  0.4417440000000 1.0
C      1  0.4611230000000  0.5144470000000  0.5551370000000 1.0
C      1  0.5312690000000  0.4963730000000  0.5239890000000 1.0
C      1  0.4437980000000  0.5395570000000  0.5233870000000 1.0
C      1  0.4207280000000  0.4743110000000  0.5115960000000 1.0
C      1  0.5399380000000  0.5696380000000  0.4629010000000 1.0
C      1  0.5399090000000  0.4359240000000  0.5810390000000 1.0
C      1  0.5585280000000  0.5517000000000  0.4826320000000 1.0
C      1  0.5149310000000  0.4273460000000  0.5932620000000 1.0
C      1  0.5722220000000  0.4409810000000  0.5258640000000 1.0
C      1  0.4977670000000  0.5707210000000  0.5775370000000 1.0
C      1  0.5287090000000  0.4647820000000  0.5911060000000 1.0
C      1  0.5125910000000  0.5370700000000  0.4200740000000 1.0
C      1  0.4815790000000  0.4921430000000  0.5465440000000 1.0
C      1  0.5888270000000  0.5478930000000  0.4719170000000 1.0
C      1  0.5656670000000  0.5014650000000  0.5688250000000 1.0
C      1  0.4657030000000  0.6074190000000  0.5037740000000 1.0
C      1  0.4860980000000  0.5691080000000  0.5454030000000 1.0
C      1  0.4491560000000  0.4773130000000  0.4193070000000 1.0
C      1  0.4370990000000  0.4316020000000  0.4520960000000 1.0
C      1  0.5087580000000  0.5569320000000  0.4676430000000 1.0
C      1  0.4794750000000  0.4636760000000  0.5597250000000 1.0
C      1  0.5261920000000  0.5027240000000  0.6029460000000 1.0
C      1  0.4521970000000  0.5459460000000  0.4910190000000 1.0
C      1  0.5454860000000  0.5383830000000  0.4222110000000 1.0
C      1  0.4174360000000  0.4265450000000  0.4944240000000 1.0
END
