TITL C-2848509-3138-399 0.00108593803533932 125000 -910.566847345076 0 0 175 (C1) n - 1
REM
REM in /home/bkarasulu/work/CARBON/AIRSS/Generating-Clusters/AIREBO/with-SteepDescent/Only-C1/SD-CG-opt/Try1-1.4A-POS3A/HFTN-CG
REM
REM
REM
REM
REM
REM ./C.cell (11c1c37f851c82e70ff6c80c92926a4b)
REM
REM compiler GCC version 9.2.1 20190827 (Red Hat 9.2.1-1)
REM options -cpp -mtune=generic -march=x86-64 -g -O0 -fpre-include=/usr/include/finclude/math-vector-fortran.h
REM seed -1933759715 -1983427240 -290004919 1345817965 629522380 2027734108 1089760370 284307413 1619301263 -790270545 701840405 -637290874 1375733513 -2005427194 1095131393 1877383032 -1841108540 -510816134 938107775 1401376721 -367513904 -1895056925 -1784176774 1539601273 -112077324 136331357 -405890570 1384224312 1619417446 -1464686644 -1147915263 -75518603 -1991884681
REM
CELL 1.54180   50.00000   50.00000   50.00000   90.00000   90.00000   90.00000
LATT -1
SFAC C  
C      1  0.5411620000000  0.4201240000000  0.4815570000000 1.0
C      1  0.5473600000000  0.5166510000000  0.3857470000000 1.0
C      1  0.5326550000000  0.5231200000000  0.6081560000000 1.0
C      1  0.4584120000000  0.5205360000000  0.5089720000000 1.0
C      1  0.5200650000000  0.5778100000000  0.4953750000000 1.0
C      1  0.4296280000000  0.4945570000000  0.5186850000000 1.0
C      1  0.4799860000000  0.4680420000000  0.4054450000000 1.0
C      1  0.4586250000000  0.4857560000000  0.6071790000000 1.0
C      1  0.4688690000000  0.5466100000000  0.4674840000000 1.0
C      1  0.4233560000000  0.4141550000000  0.4805490000000 1.0
C      1  0.3940470000000  0.4928610000000  0.4854480000000 1.0
C      1  0.4656630000000  0.4536370000000  0.5292820000000 1.0
C      1  0.5853030000000  0.4979320000000  0.5820720000000 1.0
C      1  0.4837470000000  0.5226090000000  0.4864280000000 1.0
C      1  0.5263110000000  0.5524900000000  0.4125490000000 1.0
C      1  0.5453490000000  0.4227000000000  0.4499110000000 1.0
C      1  0.4866360000000  0.4916050000000  0.5001340000000 1.0
C      1  0.5572170000000  0.5465540000000  0.4535670000000 1.0
C      1  0.4510930000000  0.4399550000000  0.4926470000000 1.0
C      1  0.5005690000000  0.5167860000000  0.6192520000000 1.0
C      1  0.4902640000000  0.5098500000000  0.4401860000000 1.0
C      1  0.4583720000000  0.5968700000000  0.4017830000000 1.0
C      1  0.4038000000000  0.4906420000000  0.5644820000000 1.0
C      1  0.4577870000000  0.5250150000000  0.4224720000000 1.0
C      1  0.4385450000000  0.5407730000000  0.5190050000000 1.0
C      1  0.4849900000000  0.5624420000000  0.5352500000000 1.0
C      1  0.4723690000000  0.5149140000000  0.6007090000000 1.0
C      1  0.5661170000000  0.4607070000000  0.4083660000000 1.0
C      1  0.6076340000000  0.5264340000000  0.5260510000000 1.0
C      1  0.5599400000000  0.5341550000000  0.5133690000000 1.0
C      1  0.5536360000000  0.4562510000000  0.4698390000000 1.0
C      1  0.4918180000000  0.4586080000000  0.5065560000000 1.0
C      1  0.5487890000000  0.5688800000000  0.5649420000000 1.0
C      1  0.4469810000000  0.4698830000000  0.4144040000000 1.0
C      1  0.4937260000000  0.4256150000000  0.5288420000000 1.0
C      1  0.5851210000000  0.5168880000000  0.4788320000000 1.0
C      1  0.4762660000000  0.5488720000000  0.5630250000000 1.0
C      1  0.5126510000000  0.4586270000000  0.5824410000000 1.0
C      1  0.4197920000000  0.4455720000000  0.5047230000000 1.0
C      1  0.5148140000000  0.4322790000000  0.5753410000000 1.0
C      1  0.4139070000000  0.4655920000000  0.4211850000000 1.0
C      1  0.3982840000000  0.4364890000000  0.4800010000000 1.0
C      1  0.5150870000000  0.5207440000000  0.5401260000000 1.0
C      1  0.4923360000000  0.4016400000000  0.4564880000000 1.0
C      1  0.4614630000000  0.4612240000000  0.5833170000000 1.0
C      1  0.5926000000000  0.4658650000000  0.5158990000000 1.0
C      1  0.4137410000000  0.5289570000000  0.5594710000000 1.0
C      1  0.5633250000000  0.4769170000000  0.5025890000000 1.0
C      1  0.5268780000000  0.5714890000000  0.5808430000000 1.0
C      1  0.4862760000000  0.6084100000000  0.5249400000000 1.0
C      1  0.5311070000000  0.5069580000000  0.4958920000000 1.0
C      1  0.4237700000000  0.5706180000000  0.5205800000000 1.0
C      1  0.4254160000000  0.4481870000000  0.5354370000000 1.0
C      1  0.4566420000000  0.4775780000000  0.5068780000000 1.0
C      1  0.5917180000000  0.5264810000000  0.5479500000000 1.0
C      1  0.4167120000000  0.5220490000000  0.5298740000000 1.0
C      1  0.5080430000000  0.5925050000000  0.4723410000000 1.0
C      1  0.5600470000000  0.5499510000000  0.4851750000000 1.0
C      1  0.4958460000000  0.3963580000000  0.5461470000000 1.0
C      1  0.4483420000000  0.5006540000000  0.4832850000000 1.0
C      1  0.5055480000000  0.5359890000000  0.4558100000000 1.0
C      1  0.5114170000000  0.5077620000000  0.4733690000000 1.0
C      1  0.4996640000000  0.5596730000000  0.4324070000000 1.0
C      1  0.5348600000000  0.4583040000000  0.4097410000000 1.0
C      1  0.6224720000000  0.5058490000000  0.4242620000000 1.0
C      1  0.4378240000000  0.5462470000000  0.4663000000000 1.0
C      1  0.5327750000000  0.4973480000000  0.5523550000000 1.0
C      1  0.4580660000000  0.4870840000000  0.5617460000000 1.0
C      1  0.5482450000000  0.5453930000000  0.5432840000000 1.0
C      1  0.5739890000000  0.4184030000000  0.5138680000000 1.0
C      1  0.3960510000000  0.4867140000000  0.5388540000000 1.0
C      1  0.4066690000000  0.4738900000000  0.5092050000000 1.0
C      1  0.4439260000000  0.5329670000000  0.6053510000000 1.0
C      1  0.4946060000000  0.4188050000000  0.4317400000000 1.0
C      1  0.4466840000000  0.5010170000000  0.4007290000000 1.0
C      1  0.4056320000000  0.5567990000000  0.4984660000000 1.0
C      1  0.5609430000000  0.4490440000000  0.5777640000000 1.0
C      1  0.4386080000000  0.4031800000000  0.5017250000000 1.0
C      1  0.4040880000000  0.5303780000000  0.4447000000000 1.0
C      1  0.5431610000000  0.4283400000000  0.5629150000000 1.0
C      1  0.4535760000000  0.4715180000000  0.4657380000000 1.0
C      1  0.4336660000000  0.5426800000000  0.5813620000000 1.0
C      1  0.5388680000000  0.5647860000000  0.4376970000000 1.0
C      1  0.4670300000000  0.4171440000000  0.4730850000000 1.0
C      1  0.4828910000000  0.4618590000000  0.3794420000000 1.0
C      1  0.5536090000000  0.4409360000000  0.4307300000000 1.0
C      1  0.5813960000000  0.5087850000000  0.4478990000000 1.0
C      1  0.5554870000000  0.5114110000000  0.5902020000000 1.0
C      1  0.4613620000000  0.4214220000000  0.5192500000000 1.0
C      1  0.5013950000000  0.4552930000000  0.4661870000000 1.0
C      1  0.4336760000000  0.4430380000000  0.4646860000000 1.0
C      1  0.5965980000000  0.4987980000000  0.4273700000000 1.0
C      1  0.5604480000000  0.5165820000000  0.5569560000000 1.0
C      1  0.5604150000000  0.4771960000000  0.5896980000000 1.0
C      1  0.5055630000000  0.5898100000000  0.5752120000000 1.0
C      1  0.4666760000000  0.5517260000000  0.4345870000000 1.0
C      1  0.4784000000000  0.4781060000000  0.4434400000000 1.0
C      1  0.4845760000000  0.5853680000000  0.4159270000000 1.0
C      1  0.6017650000000  0.4589890000000  0.4776060000000 1.0
C      1  0.3889290000000  0.5089130000000  0.5153100000000 1.0
C      1  0.4830220000000  0.5469100000000  0.5963220000000 1.0
C      1  0.5121550000000  0.5893430000000  0.5239530000000 1.0
C      1  0.5845220000000  0.4808840000000  0.4095360000000 1.0
C      1  0.5849610000000  0.4405120000000  0.4979360000000 1.0
C      1  0.3948360000000  0.4909590000000  0.4228310000000 1.0
C      1  0.6032340000000  0.5390280000000  0.4972410000000 1.0
C      1  0.4607320000000  0.5788850000000  0.4633410000000 1.0
C      1  0.5223510000000  0.5117050000000  0.4290060000000 1.0
C      1  0.4870500000000  0.5001780000000  0.5737910000000 1.0
C      1  0.4764150000000  0.4552590000000  0.4804540000000 1.0
C      1  0.4709290000000  0.6099900000000  0.5028300000000 1.0
C      1  0.4979170000000  0.5214230000000  0.3860600000000 1.0
C      1  0.5179840000000  0.4931960000000  0.6084580000000 1.0
C      1  0.5494900000000  0.5160880000000  0.4481490000000 1.0
C      1  0.5157580000000  0.4361890000000  0.4974800000000 1.0
C      1  0.4218160000000  0.5163600000000  0.4688660000000 1.0
C      1  0.4907370000000  0.4201170000000  0.5680300000000 1.0
C      1  0.6161870000000  0.4810310000000  0.4874640000000 1.0
C      1  0.5878600000000  0.5529220000000  0.4497430000000 1.0
C      1  0.4674190000000  0.4397700000000  0.5607410000000 1.0
C      1  0.6188980000000  0.5885670000000  0.5006140000000 1.0
C      1  0.5085400000000  0.5466160000000  0.4879910000000 1.0
C      1  0.4551690000000  0.5831210000000  0.4328440000000 1.0
C      1  0.4681850000000  0.5067290000000  0.5355620000000 1.0
C      1  0.5524880000000  0.4840810000000  0.5326960000000 1.0
C      1  0.5188400000000  0.5596530000000  0.5325760000000 1.0
C      1  0.5116220000000  0.4542620000000  0.5330530000000 1.0
C      1  0.5984360000000  0.5708650000000  0.4976020000000 1.0
C      1  0.4266130000000  0.5674450000000  0.4808770000000 1.0
C      1  0.4068900000000  0.4548830000000  0.4526860000000 1.0
C      1  0.5265500000000  0.5336470000000  0.5120720000000 1.0
C      1  0.6095170000000  0.5007400000000  0.5060760000000 1.0
C      1  0.5506860000000  0.4286520000000  0.5308200000000 1.0
C      1  0.5251070000000  0.5244540000000  0.4008720000000 1.0
C      1  0.5254410000000  0.4707490000000  0.4801660000000 1.0
C      1  0.5842900000000  0.4588100000000  0.5634580000000 1.0
C      1  0.4946150000000  0.3892800000000  0.5128970000000 1.0
C      1  0.4809270000000  0.5778350000000  0.5823410000000 1.0
C      1  0.4944760000000  0.4101220000000  0.4920230000000 1.0
C      1  0.4323280000000  0.5040030000000  0.5730580000000 1.0
C      1  0.5713060000000  0.5751610000000  0.4930490000000 1.0
C      1  0.4390370000000  0.4881150000000  0.4419870000000 1.0
C      1  0.4338900000000  0.4737530000000  0.5422010000000 1.0
C      1  0.4018480000000  0.5279570000000  0.4932340000000 1.0
C      1  0.5102730000000  0.4720310000000  0.4204640000000 1.0
C      1  0.5764290000000  0.5073450000000  0.5102880000000 1.0
C      1  0.4078260000000  0.4888180000000  0.4546230000000 1.0
C      1  0.6064060000000  0.5481020000000  0.4657290000000 1.0
C      1  0.5162730000000  0.5443730000000  0.5909780000000 1.0
C      1  0.4955590000000  0.4494240000000  0.4371670000000 1.0
C      1  0.5201830000000  0.4857710000000  0.4500930000000 1.0
C      1  0.4817500000000  0.5995220000000  0.4762260000000 1.0
C      1  0.5775440000000  0.4872530000000  0.5510980000000 1.0
C      1  0.5179260000000  0.5832970000000  0.4489690000000 1.0
C      1  0.5781770000000  0.4520400000000  0.4602740000000 1.0
C      1  0.5062070000000  0.4688740000000  0.6072050000000 1.0
C      1  0.4997120000000  0.4952790000000  0.5299560000000 1.0
C      1  0.5014960000000  0.5280470000000  0.5663890000000 1.0
C      1  0.5060000000000  0.4768520000000  0.5578380000000 1.0
C      1  0.5249250000000  0.4796870000000  0.5132640000000 1.0
C      1  0.4500750000000  0.4363720000000  0.4193160000000 1.0
C      1  0.5495160000000  0.5908170000000  0.5012880000000 1.0
C      1  0.5559940000000  0.4994040000000  0.4772290000000 1.0
C      1  0.5481830000000  0.4464360000000  0.5019370000000 1.0
C      1  0.4737710000000  0.5168680000000  0.3948900000000 1.0
C      1  0.4532410000000  0.5265820000000  0.5585900000000 1.0
C      1  0.4580730000000  0.5679200000000  0.5203850000000 1.0
C      1  0.5497210000000  0.3927440000000  0.4917110000000 1.0
C      1  0.5234490000000  0.4144930000000  0.5380730000000 1.0
C      1  0.4792540000000  0.4630770000000  0.6122350000000 1.0
C      1  0.4586440000000  0.5111140000000  0.4526020000000 1.0
C      1  0.4413080000000  0.4269010000000  0.5461590000000 1.0
C      1  0.4645440000000  0.4243080000000  0.4396980000000 1.0
C      1  0.4488220000000  0.5864580000000  0.4941000000000 1.0
C      1  0.5050870000000  0.6055620000000  0.5517880000000 1.0
END
