TITL C-2847947-6848-380 0.00203387522754728 125000 -883.861185393287 0 0 169 (C1) n - 1
REM
REM in /home/bkarasulu/work/CARBON/AIRSS/Generating-Clusters/AIREBO/with-SteepDescent/Only-C1/SD-CG-opt/Try1-1.4A-POS3A/HFTN-CG
REM
REM
REM
REM
REM
REM ./C.cell (11c1c37f851c82e70ff6c80c92926a4b)
REM
REM compiler GCC version 9.2.1 20190827 (Red Hat 9.2.1-1)
REM options -cpp -mtune=generic -march=x86-64 -g -O0 -fpre-include=/usr/include/finclude/math-vector-fortran.h
REM seed 1537983351 -1470917628 764489650 -2136498147 -1401373382 2128405040 -1683426683 -147215351 1113309 1274004376 616017733 1307669356 -1698422614 -1164879607 2027997662 -1988368483 -390229863 2142572413 -818802200 -2035542945 965930088 -526636148 512550819 -1211796660 1691369757 -1815672106 1426364634 54113836 94630589 -856923757 -2112028771 1630967117 1625439170
REM
CELL 1.54180   50.00000   50.00000   50.00000   90.00000   90.00000   90.00000
LATT -1
SFAC C  
C      1  0.4030190000000  0.4460810000000  0.5493770000000 1.0
C      1  0.5512700000000  0.4102320000000  0.5384960000000 1.0
C      1  0.5582280000000  0.4662530000000  0.4855340000000 1.0
C      1  0.4871130000000  0.4708640000000  0.4745290000000 1.0
C      1  0.4407700000000  0.4557990000000  0.5651440000000 1.0
C      1  0.5119530000000  0.5485000000000  0.5851630000000 1.0
C      1  0.4032960000000  0.5085970000000  0.5567280000000 1.0
C      1  0.3970870000000  0.5050290000000  0.5071870000000 1.0
C      1  0.4464960000000  0.5568090000000  0.5498020000000 1.0
C      1  0.5948820000000  0.4390040000000  0.4758690000000 1.0
C      1  0.5591870000000  0.5354590000000  0.5435800000000 1.0
C      1  0.5067050000000  0.5321970000000  0.3990310000000 1.0
C      1  0.4718210000000  0.5152190000000  0.3828850000000 1.0
C      1  0.4718350000000  0.4967900000000  0.5391520000000 1.0
C      1  0.5092290000000  0.5386860000000  0.5392110000000 1.0
C      1  0.5247430000000  0.4498700000000  0.5428970000000 1.0
C      1  0.4596150000000  0.5353860000000  0.5807330000000 1.0
C      1  0.5179590000000  0.4624950000000  0.5955360000000 1.0
C      1  0.5859560000000  0.4657010000000  0.5040510000000 1.0
C      1  0.5058060000000  0.4500080000000  0.5671530000000 1.0
C      1  0.5488120000000  0.5292470000000  0.5140410000000 1.0
C      1  0.4500250000000  0.5870130000000  0.5245100000000 1.0
C      1  0.4103820000000  0.5026940000000  0.4554780000000 1.0
C      1  0.5945790000000  0.4945570000000  0.5577830000000 1.0
C      1  0.4284250000000  0.5014720000000  0.4105840000000 1.0
C      1  0.5209650000000  0.4496100000000  0.4755710000000 1.0
C      1  0.4668750000000  0.4797870000000  0.5890500000000 1.0
C      1  0.4135710000000  0.5366190000000  0.5403540000000 1.0
C      1  0.5350990000000  0.3910250000000  0.5111350000000 1.0
C      1  0.4733340000000  0.4436760000000  0.4625500000000 1.0
C      1  0.5605920000000  0.4507000000000  0.4592750000000 1.0
C      1  0.4257610000000  0.5640000000000  0.5238250000000 1.0
C      1  0.4063010000000  0.5480120000000  0.4898680000000 1.0
C      1  0.4853240000000  0.5497710000000  0.4188840000000 1.0
C      1  0.5147480000000  0.4112490000000  0.4668470000000 1.0
C      1  0.5928150000000  0.5365620000000  0.4913290000000 1.0
C      1  0.4525450000000  0.4502130000000  0.4115530000000 1.0
C      1  0.4963490000000  0.4945700000000  0.4251200000000 1.0
C      1  0.4767490000000  0.5697420000000  0.5253780000000 1.0
C      1  0.4330400000000  0.4777540000000  0.4830020000000 1.0
C      1  0.4329270000000  0.4775920000000  0.5891450000000 1.0
C      1  0.4402790000000  0.5124970000000  0.5208030000000 1.0
C      1  0.4442690000000  0.5582200000000  0.4958790000000 1.0
C      1  0.5577270000000  0.5317080000000  0.4487720000000 1.0
C      1  0.5493460000000  0.4841240000000  0.5349760000000 1.0
C      1  0.4549220000000  0.4590080000000  0.5135080000000 1.0
C      1  0.5622790000000  0.4880850000000  0.5662020000000 1.0
C      1  0.4638940000000  0.4905860000000  0.4611170000000 1.0
C      1  0.5046420000000  0.4820390000000  0.5017120000000 1.0
C      1  0.4367270000000  0.5310280000000  0.4139150000000 1.0
C      1  0.4126730000000  0.4534730000000  0.4816860000000 1.0
C      1  0.4407270000000  0.4118230000000  0.5047530000000 1.0
C      1  0.5500260000000  0.5197110000000  0.4178860000000 1.0
C      1  0.4327480000000  0.5275250000000  0.4943930000000 1.0
C      1  0.5245440000000  0.3939610000000  0.5434090000000 1.0
C      1  0.5106340000000  0.5668850000000  0.5223850000000 1.0
C      1  0.5088680000000  0.5008970000000  0.5630780000000 1.0
C      1  0.5139610000000  0.4215440000000  0.4344480000000 1.0
C      1  0.5212320000000  0.5348870000000  0.5013800000000 1.0
C      1  0.4983660000000  0.5019970000000  0.3927090000000 1.0
C      1  0.4854110000000  0.4763490000000  0.5606640000000 1.0
C      1  0.5498030000000  0.5052910000000  0.5857490000000 1.0
C      1  0.4152120000000  0.5630370000000  0.4688190000000 1.0
C      1  0.5515170000000  0.4272570000000  0.5090620000000 1.0
C      1  0.5441320000000  0.5626410000000  0.5183940000000 1.0
C      1  0.4471590000000  0.4364280000000  0.4951440000000 1.0
C      1  0.4409340000000  0.4975800000000  0.5645220000000 1.0
C      1  0.5248270000000  0.5508720000000  0.4755240000000 1.0
C      1  0.4937850000000  0.5135930000000  0.5285370000000 1.0
C      1  0.4582550000000  0.5676890000000  0.5797930000000 1.0
C      1  0.5856750000000  0.4625480000000  0.5505550000000 1.0
C      1  0.5092880000000  0.5970320000000  0.4565660000000 1.0
C      1  0.5976120000000  0.4727730000000  0.4728990000000 1.0
C      1  0.4201780000000  0.4886170000000  0.4340780000000 1.0
C      1  0.5479740000000  0.5896780000000  0.4516100000000 1.0
C      1  0.5311180000000  0.5259410000000  0.5571270000000 1.0
C      1  0.5636670000000  0.4563730000000  0.5757470000000 1.0
C      1  0.4874410000000  0.5570140000000  0.5550410000000 1.0
C      1  0.4630420000000  0.5759850000000  0.4403180000000 1.0
C      1  0.4827890000000  0.5681740000000  0.4919530000000 1.0
C      1  0.5630160000000  0.4542080000000  0.5263390000000 1.0
C      1  0.4896620000000  0.5275970000000  0.5719640000000 1.0
C      1  0.4434470000000  0.4721170000000  0.4444490000000 1.0
C      1  0.4651730000000  0.5102020000000  0.6000410000000 1.0
C      1  0.4368560000000  0.4297400000000  0.4323280000000 1.0
C      1  0.5193820000000  0.5772110000000  0.5679770000000 1.0
C      1  0.5185730000000  0.4206580000000  0.5143010000000 1.0
C      1  0.4604850000000  0.5362260000000  0.4377450000000 1.0
C      1  0.3999140000000  0.4621630000000  0.5275050000000 1.0
C      1  0.5405910000000  0.4088010000000  0.4826760000000 1.0
C      1  0.5881660000000  0.5517970000000  0.5215640000000 1.0
C      1  0.5436740000000  0.4946410000000  0.4516320000000 1.0
C      1  0.5360690000000  0.4859240000000  0.4893240000000 1.0
C      1  0.4577000000000  0.4910310000000  0.5022810000000 1.0
C      1  0.5741840000000  0.5504740000000  0.4701080000000 1.0
C      1  0.5738680000000  0.5797020000000  0.4549180000000 1.0
C      1  0.5503690000000  0.5383900000000  0.5822500000000 1.0
C      1  0.5809230000000  0.5219210000000  0.5558670000000 1.0
C      1  0.5011320000000  0.4686690000000  0.3918160000000 1.0
C      1  0.5272350000000  0.5247700000000  0.6031140000000 1.0
C      1  0.5206160000000  0.4928220000000  0.5930260000000 1.0
C      1  0.6051690000000  0.4372400000000  0.5046100000000 1.0
C      1  0.5491290000000  0.5660390000000  0.5696190000000 1.0
C      1  0.4987230000000  0.4032970000000  0.5489350000000 1.0
C      1  0.4638100000000  0.5370440000000  0.3979150000000 1.0
C      1  0.5212200000000  0.4533600000000  0.5094130000000 1.0
C      1  0.4392220000000  0.5258630000000  0.5586030000000 1.0
C      1  0.4944310000000  0.4324830000000  0.4828110000000 1.0
C      1  0.5347250000000  0.5377700000000  0.4005830000000 1.0
C      1  0.4874190000000  0.5792450000000  0.5794440000000 1.0
C      1  0.4863280000000  0.4088910000000  0.4477470000000 1.0
C      1  0.5045280000000  0.4473100000000  0.4143590000000 1.0
C      1  0.4921160000000  0.5980290000000  0.4805520000000 1.0
C      1  0.4870180000000  0.4333260000000  0.5140300000000 1.0
C      1  0.4441080000000  0.4771140000000  0.5389190000000 1.0
C      1  0.5196780000000  0.5978130000000  0.5454930000000 1.0
C      1  0.5319300000000  0.4485090000000  0.4433910000000 1.0
C      1  0.4850180000000  0.5073400000000  0.4902540000000 1.0
C      1  0.5405680000000  0.5655600000000  0.4032250000000 1.0
C      1  0.4709170000000  0.4756200000000  0.4247070000000 1.0
C      1  0.4591420000000  0.4310460000000  0.5630590000000 1.0
C      1  0.5320910000000  0.5972990000000  0.4806910000000 1.0
C      1  0.4049080000000  0.4951980000000  0.5812520000000 1.0
C      1  0.4747070000000  0.4514280000000  0.5401160000000 1.0
C      1  0.4883160000000  0.5373160000000  0.5051430000000 1.0
C      1  0.5302020000000  0.5752110000000  0.4308550000000 1.0
C      1  0.4393340000000  0.4438510000000  0.4628950000000 1.0
C      1  0.5511170000000  0.5696490000000  0.4861370000000 1.0
C      1  0.4419990000000  0.5645090000000  0.4170430000000 1.0
C      1  0.4539090000000  0.3996810000000  0.5265960000000 1.0
C      1  0.5548180000000  0.4367500000000  0.4209470000000 1.0
C      1  0.4870400000000  0.4607140000000  0.6052360000000 1.0
C      1  0.5235970000000  0.5961600000000  0.5113930000000 1.0
C      1  0.5199800000000  0.6249070000000  0.5291860000000 1.0
C      1  0.4773800000000  0.4368530000000  0.4305720000000 1.0
C      1  0.4479460000000  0.4824770000000  0.4005960000000 1.0
C      1  0.5658810000000  0.5677460000000  0.5417050000000 1.0
C      1  0.6173810000000  0.4916280000000  0.5225630000000 1.0
C      1  0.4027740000000  0.4933310000000  0.4833130000000 1.0
C      1  0.4463660000000  0.5556180000000  0.4618470000000 1.0
C      1  0.5756080000000  0.5910690000000  0.4956320000000 1.0
C      1  0.4148220000000  0.4918040000000  0.5297970000000 1.0
C      1  0.5178010000000  0.4904160000000  0.5319560000000 1.0
C      1  0.5891120000000  0.5056320000000  0.4775890000000 1.0
C      1  0.5992930000000  0.5201920000000  0.5204330000000 1.0
C      1  0.5233430000000  0.4739650000000  0.4243290000000 1.0
C      1  0.5470930000000  0.4511750000000  0.5990500000000 1.0
C      1  0.5016400000000  0.5267670000000  0.4678390000000 1.0
C      1  0.4900620000000  0.4240860000000  0.5670780000000 1.0
C      1  0.5667000000000  0.5082090000000  0.5012420000000 1.0
C      1  0.5642740000000  0.4680550000000  0.4302540000000 1.0
C      1  0.5522370000000  0.4378440000000  0.5529810000000 1.0
C      1  0.4378270000000  0.5091070000000  0.4727060000000 1.0
C      1  0.3947130000000  0.4527630000000  0.5013380000000 1.0
C      1  0.5277110000000  0.5459110000000  0.4445970000000 1.0
C      1  0.4637700000000  0.5881040000000  0.4719250000000 1.0
C      1  0.4790880000000  0.5144700000000  0.4480020000000 1.0
C      1  0.4816840000000  0.4043980000000  0.5258230000000 1.0
C      1  0.5690810000000  0.4220750000000  0.4700350000000 1.0
C      1  0.4967820000000  0.5740820000000  0.4360350000000 1.0
C      1  0.4440420000000  0.4061860000000  0.5524450000000 1.0
C      1  0.5751910000000  0.4872420000000  0.4543000000000 1.0
C      1  0.3974620000000  0.5323660000000  0.5124830000000 1.0
C      1  0.5823650000000  0.4912500000000  0.5262090000000 1.0
C      1  0.5190840000000  0.5130940000000  0.4423310000000 1.0
C      1  0.5158730000000  0.4793170000000  0.4631790000000 1.0
C      1  0.5489560000000  0.4912380000000  0.4126170000000 1.0
C      1  0.4584030000000  0.5413230000000  0.5217940000000 1.0
C      1  0.5461290000000  0.5158600000000  0.4765660000000 1.0
END
