TITL C-2847947-6848-145 0.00161560959758108 125000 -459.706187481444 0 0 82 (C1) n - 1
REM
REM in /home/bkarasulu/work/CARBON/AIRSS/Generating-Clusters/AIREBO/with-SteepDescent/Only-C1/SD-CG-opt/Try1-1.4A-POS3A/HFTN-CG
REM
REM
REM
REM
REM
REM ./C.cell (11c1c37f851c82e70ff6c80c92926a4b)
REM
REM compiler GCC version 9.2.1 20190827 (Red Hat 9.2.1-1)
REM options -cpp -mtune=generic -march=x86-64 -g -O0 -fpre-include=/usr/include/finclude/math-vector-fortran.h
REM seed 1840196429 862437343 166103035 1220550312 733083590 938116361 2122409675 361241345 368516176 -136332412 -110204048 -1307064829 80855718 -1815036803 755565456 1157281773 -1975962089 1470072290 604002226 1609868694 -53546984 1210156766 -2078800319 -153112411 10126380 1802512823 -797698174 -1026763972 -1727170338 1590374100 895866296 926705655 55606249
REM
CELL 1.54180   50.00000   50.00000   50.00000   90.00000   90.00000   90.00000
LATT -1
SFAC C  
C      1  0.5527100000000  0.5609310000000  0.4875490000000 1.0
C      1  0.5191010000000  0.5351030000000  0.4410590000000 1.0
C      1  0.5273960000000  0.4520150000000  0.5482330000000 1.0
C      1  0.5608020000000  0.4422010000000  0.4769030000000 1.0
C      1  0.4675900000000  0.4425720000000  0.5598360000000 1.0
C      1  0.4557000000000  0.4913680000000  0.5680890000000 1.0
C      1  0.4999420000000  0.5180590000000  0.4612220000000 1.0
C      1  0.5538620000000  0.5528570000000  0.5580850000000 1.0
C      1  0.5405960000000  0.4767360000000  0.5537350000000 1.0
C      1  0.5160910000000  0.4446070000000  0.4935260000000 1.0
C      1  0.4684400000000  0.4071760000000  0.4942050000000 1.0
C      1  0.4475480000000  0.5484680000000  0.5240610000000 1.0
C      1  0.5001570000000  0.4774640000000  0.5750880000000 1.0
C      1  0.4258120000000  0.4639370000000  0.5191770000000 1.0
C      1  0.4510130000000  0.4630800000000  0.5709910000000 1.0
C      1  0.4799470000000  0.4202060000000  0.4715040000000 1.0
C      1  0.5319860000000  0.5684680000000  0.5513720000000 1.0
C      1  0.4743870000000  0.4990160000000  0.4645870000000 1.0
C      1  0.4706970000000  0.5227950000000  0.4879250000000 1.0
C      1  0.5500090000000  0.5250840000000  0.5608010000000 1.0
C      1  0.5087440000000  0.5464820000000  0.4778960000000 1.0
C      1  0.5793470000000  0.4981150000000  0.5236040000000 1.0
C      1  0.5429330000000  0.4354620000000  0.5053340000000 1.0
C      1  0.4958200000000  0.4547390000000  0.5524010000000 1.0
C      1  0.4244300000000  0.5232310000000  0.5254030000000 1.0
C      1  0.4634290000000  0.4392620000000  0.4578620000000 1.0
C      1  0.5275580000000  0.5159530000000  0.5758630000000 1.0
C      1  0.4905070000000  0.5791370000000  0.5097410000000 1.0
C      1  0.4189400000000  0.4742470000000  0.4814100000000 1.0
C      1  0.5077270000000  0.5826480000000  0.5320640000000 1.0
C      1  0.4279180000000  0.5435870000000  0.4983920000000 1.0
C      1  0.5642280000000  0.4589810000000  0.5035010000000 1.0
C      1  0.4588030000000  0.4210980000000  0.5167480000000 1.0
C      1  0.5130000000000  0.5251620000000  0.3869460000000 1.0
C      1  0.4767320000000  0.5480670000000  0.5090110000000 1.0
C      1  0.5310720000000  0.4678910000000  0.4481390000000 1.0
C      1  0.4895080000000  0.4638400000000  0.4987620000000 1.0
C      1  0.4712670000000  0.4948460000000  0.5314670000000 1.0
C      1  0.5171070000000  0.4786460000000  0.4921280000000 1.0
C      1  0.4781660000000  0.4659480000000  0.5274860000000 1.0
C      1  0.5345110000000  0.5053110000000  0.4901360000000 1.0
C      1  0.5360450000000  0.5666460000000  0.5085080000000 1.0
C      1  0.5615060000000  0.4808970000000  0.4260010000000 1.0
C      1  0.4953700000000  0.5032850000000  0.5008760000000 1.0
C      1  0.5721390000000  0.5413270000000  0.4894100000000 1.0
C      1  0.4239340000000  0.4944950000000  0.5072060000000 1.0
C      1  0.5286010000000  0.5165080000000  0.5182470000000 1.0
C      1  0.5643300000000  0.4666470000000  0.4554490000000 1.0
C      1  0.5001060000000  0.5240410000000  0.5633750000000 1.0
C      1  0.4365080000000  0.5468350000000  0.4232430000000 1.0
C      1  0.4444480000000  0.4558610000000  0.4779970000000 1.0
C      1  0.4930130000000  0.5730760000000  0.4812280000000 1.0
C      1  0.4978870000000  0.5131770000000  0.5330490000000 1.0
C      1  0.5224700000000  0.5229050000000  0.4104840000000 1.0
C      1  0.4350830000000  0.5509940000000  0.3974060000000 1.0
C      1  0.5031150000000  0.4565260000000  0.4319400000000 1.0
C      1  0.5515660000000  0.5035220000000  0.5374250000000 1.0
C      1  0.4753730000000  0.4519010000000  0.4350550000000 1.0
C      1  0.5267030000000  0.4873330000000  0.5764030000000 1.0
C      1  0.5813840000000  0.4798580000000  0.5018570000000 1.0
C      1  0.5616060000000  0.5144660000000  0.4759690000000 1.0
C      1  0.5104490000000  0.5445670000000  0.5118330000000 1.0
C      1  0.5197440000000  0.4358880000000  0.4477910000000 1.0
C      1  0.5075190000000  0.4270920000000  0.4710820000000 1.0
C      1  0.4428070000000  0.5065670000000  0.5457740000000 1.0
C      1  0.4761320000000  0.5665200000000  0.5576860000000 1.0
C      1  0.4820530000000  0.4989560000000  0.5731570000000 1.0
C      1  0.4538350000000  0.5036280000000  0.5075870000000 1.0
C      1  0.4524570000000  0.5639130000000  0.5497160000000 1.0
C      1  0.5034840000000  0.5512580000000  0.5444590000000 1.0
C      1  0.4433810000000  0.5368580000000  0.4756820000000 1.0
C      1  0.5253960000000  0.4983710000000  0.4583650000000 1.0
C      1  0.5378240000000  0.4308430000000  0.5349160000000 1.0
C      1  0.4405080000000  0.5430880000000  0.4493060000000 1.0
C      1  0.5411040000000  0.5040750000000  0.4293650000000 1.0
C      1  0.5368560000000  0.5551770000000  0.4616810000000 1.0
C      1  0.5782280000000  0.4895540000000  0.4751600000000 1.0
C      1  0.4841550000000  0.5883800000000  0.4604900000000 1.0
C      1  0.4605950000000  0.4192990000000  0.5450110000000 1.0
C      1  0.5521930000000  0.5276320000000  0.4496470000000 1.0
C      1  0.4707240000000  0.4731880000000  0.4775710000000 1.0
C      1  0.4538370000000  0.4500480000000  0.5103530000000 1.0
END
