TITL C-2848508-1660-20 0.0116899495451512 125000 -980.490075410603 0 0 188 (C1) n - 1
REM
REM in /home/bkarasulu/work/CARBON/AIRSS/Generating-Clusters/AIREBO/with-SteepDescent/Only-C1/SD-CG-opt/Try1-1.4A-POS3A/HFTN-CG
REM
REM
REM
REM
REM
REM ./C.cell (11c1c37f851c82e70ff6c80c92926a4b)
REM
REM compiler GCC version 9.2.1 20190827 (Red Hat 9.2.1-1)
REM options -cpp -mtune=generic -march=x86-64 -g -O0 -fpre-include=/usr/include/finclude/math-vector-fortran.h
REM seed 1838252575 -2024142731 2141325340 64880849 597379060 369124304 -1764101475 138208534 -261285057 611835537 1516302116 1780715776 -947986070 851543742 -284351667 -1928102927 276022319 1579185413 -964606070 93967524 2125051156 -733062123 -430953870 1129442411 -1959522670 -2135753777 -444685343 1223041028 1158111571 -1042537435 1166340625 -1030197351 1877662894
REM
CELL 1.54180   50.00000   50.00000   50.00000   90.00000   90.00000   90.00000
LATT -1
SFAC C  
C      1  0.5843430000000  0.4523350000000  0.4427590000000 1.0
C      1  0.5267940000000  0.6100830000000  0.4833560000000 1.0
C      1  0.4406690000000  0.5767700000000  0.5136550000000 1.0
C      1  0.4250150000000  0.4706620000000  0.4461500000000 1.0
C      1  0.4969600000000  0.5839170000000  0.5440190000000 1.0
C      1  0.5366570000000  0.5372570000000  0.5391070000000 1.0
C      1  0.6095650000000  0.5334480000000  0.4410070000000 1.0
C      1  0.5616640000000  0.5560450000000  0.5803070000000 1.0
C      1  0.6066730000000  0.4554630000000  0.5314630000000 1.0
C      1  0.5656430000000  0.4972140000000  0.4132950000000 1.0
C      1  0.5599610000000  0.4537830000000  0.4735570000000 1.0
C      1  0.4745140000000  0.4844260000000  0.6043760000000 1.0
C      1  0.5172850000000  0.4886360000000  0.6091260000000 1.0
C      1  0.4661120000000  0.4524740000000  0.5676550000000 1.0
C      1  0.5157240000000  0.5125690000000  0.6211160000000 1.0
C      1  0.5934490000000  0.5091080000000  0.5514290000000 1.0
C      1  0.5062600000000  0.3934460000000  0.5409080000000 1.0
C      1  0.4677710000000  0.5423050000000  0.3895260000000 1.0
C      1  0.5772770000000  0.4616160000000  0.5155170000000 1.0
C      1  0.4155220000000  0.4844200000000  0.5488620000000 1.0
C      1  0.5432900000000  0.5009110000000  0.4974970000000 1.0
C      1  0.5417700000000  0.4038570000000  0.4582300000000 1.0
C      1  0.4866320000000  0.5755390000000  0.4860120000000 1.0
C      1  0.4692080000000  0.4934770000000  0.5658120000000 1.0
C      1  0.4315460000000  0.4799500000000  0.4975750000000 1.0
C      1  0.5624710000000  0.4155550000000  0.5072210000000 1.0
C      1  0.4168390000000  0.5602930000000  0.4860800000000 1.0
C      1  0.5249430000000  0.5826540000000  0.4354880000000 1.0
C      1  0.4069160000000  0.5187890000000  0.4756480000000 1.0
C      1  0.4814840000000  0.6107560000000  0.5321150000000 1.0
C      1  0.4248330000000  0.4526490000000  0.5505820000000 1.0
C      1  0.4651460000000  0.4530850000000  0.5350540000000 1.0
C      1  0.5407850000000  0.5815210000000  0.5355620000000 1.0
C      1  0.5035240000000  0.4118520000000  0.4536290000000 1.0
C      1  0.4615180000000  0.4122410000000  0.4613900000000 1.0
C      1  0.5051100000000  0.4382940000000  0.4237210000000 1.0
C      1  0.4366760000000  0.4397460000000  0.4531630000000 1.0
C      1  0.5081270000000  0.5484140000000  0.4473840000000 1.0
C      1  0.5594020000000  0.4760110000000  0.5656520000000 1.0
C      1  0.4537500000000  0.5564920000000  0.4170790000000 1.0
C      1  0.4919550000000  0.5465310000000  0.4110010000000 1.0
C      1  0.4058240000000  0.4517250000000  0.4859960000000 1.0
C      1  0.4384090000000  0.4420110000000  0.4870470000000 1.0
C      1  0.5891580000000  0.4789100000000  0.5491910000000 1.0
C      1  0.4840430000000  0.4648440000000  0.4205860000000 1.0
C      1  0.4703930000000  0.5125690000000  0.4881460000000 1.0
C      1  0.4349900000000  0.5100170000000  0.4459270000000 1.0
C      1  0.4969070000000  0.6000190000000  0.5075220000000 1.0
C      1  0.4480930000000  0.4792580000000  0.4025580000000 1.0
C      1  0.5732210000000  0.4915170000000  0.5219200000000 1.0
C      1  0.4927260000000  0.4175750000000  0.4849180000000 1.0
C      1  0.4790740000000  0.5076430000000  0.5365150000000 1.0
C      1  0.4784360000000  0.3989790000000  0.5221610000000 1.0
C      1  0.4489070000000  0.5208860000000  0.5280300000000 1.0
C      1  0.6105720000000  0.5181090000000  0.4862240000000 1.0
C      1  0.5308590000000  0.4779310000000  0.3946570000000 1.0
C      1  0.4849300000000  0.4943710000000  0.4037280000000 1.0
C      1  0.4905250000000  0.4534800000000  0.6023550000000 1.0
C      1  0.5206680000000  0.4371770000000  0.4605790000000 1.0
C      1  0.4461680000000  0.5069220000000  0.4139500000000 1.0
C      1  0.3884880000000  0.5159340000000  0.5265550000000 1.0
C      1  0.5599840000000  0.4686630000000  0.4056760000000 1.0
C      1  0.4058390000000  0.5407290000000  0.5393910000000 1.0
C      1  0.4669410000000  0.4372990000000  0.5049860000000 1.0
C      1  0.5038180000000  0.4252260000000  0.5527810000000 1.0
C      1  0.5313250000000  0.5289290000000  0.4876820000000 1.0
C      1  0.4386330000000  0.5816550000000  0.5460550000000 1.0
C      1  0.4969620000000  0.4968300000000  0.4826640000000 1.0
C      1  0.4995390000000  0.4571890000000  0.5635840000000 1.0
C      1  0.4822750000000  0.4146510000000  0.4326670000000 1.0
C      1  0.4403780000000  0.4080720000000  0.4863950000000 1.0
C      1  0.5535780000000  0.4582550000000  0.5876010000000 1.0
C      1  0.4230590000000  0.5403690000000  0.5677700000000 1.0
C      1  0.3987790000000  0.4745320000000  0.5048530000000 1.0
C      1  0.4547870000000  0.4744970000000  0.4355650000000 1.0
C      1  0.4947120000000  0.4242200000000  0.5855390000000 1.0
C      1  0.5270420000000  0.4267820000000  0.5855870000000 1.0
C      1  0.5025080000000  0.4566370000000  0.4721200000000 1.0
C      1  0.5033720000000  0.5334110000000  0.3832560000000 1.0
C      1  0.5389780000000  0.5696230000000  0.6007830000000 1.0
C      1  0.4050590000000  0.4835920000000  0.4278240000000 1.0
C      1  0.5126040000000  0.5159650000000  0.4437850000000 1.0
C      1  0.5397780000000  0.5114000000000  0.4594040000000 1.0
C      1  0.5992240000000  0.4481800000000  0.4988700000000 1.0
C      1  0.5093960000000  0.5904080000000  0.5723240000000 1.0
C      1  0.5691940000000  0.5025660000000  0.4455850000000 1.0
C      1  0.5346540000000  0.5612740000000  0.5621600000000 1.0
C      1  0.5710410000000  0.5559210000000  0.5473370000000 1.0
C      1  0.5857340000000  0.5259750000000  0.4308410000000 1.0
C      1  0.5398850000000  0.4957110000000  0.5272050000000 1.0
C      1  0.4934130000000  0.5722660000000  0.4281280000000 1.0
C      1  0.5858220000000  0.5575830000000  0.4746220000000 1.0
C      1  0.5289770000000  0.5111320000000  0.3853630000000 1.0
C      1  0.4178950000000  0.5426390000000  0.4606980000000 1.0
C      1  0.5672580000000  0.4351170000000  0.5542790000000 1.0
C      1  0.5117980000000  0.5077170000000  0.4125550000000 1.0
C      1  0.4640470000000  0.5251830000000  0.5692290000000 1.0
C      1  0.5659250000000  0.5243200000000  0.5505990000000 1.0
C      1  0.5125980000000  0.5134780000000  0.5355920000000 1.0
C      1  0.4969930000000  0.4345280000000  0.5207130000000 1.0
C      1  0.4857460000000  0.5377490000000  0.5523870000000 1.0
C      1  0.5529100000000  0.4045740000000  0.5330810000000 1.0
C      1  0.5047300000000  0.5375050000000  0.6147560000000 1.0
C      1  0.4727570000000  0.4650770000000  0.4862610000000 1.0
C      1  0.4337440000000  0.5866020000000  0.4481490000000 1.0
C      1  0.4607970000000  0.5119120000000  0.6002870000000 1.0
C      1  0.5920450000000  0.4425300000000  0.4726800000000 1.0
C      1  0.5232650000000  0.6120350000000  0.5537590000000 1.0
C      1  0.5640190000000  0.5257660000000  0.5904040000000 1.0
C      1  0.4830610000000  0.5378610000000  0.4980910000000 1.0
C      1  0.5395870000000  0.4683750000000  0.5428790000000 1.0
C      1  0.4807670000000  0.3874730000000  0.4745700000000 1.0
C      1  0.6078500000000  0.5402020000000  0.4681050000000 1.0
C      1  0.5577890000000  0.6021380000000  0.4896720000000 1.0
C      1  0.5633330000000  0.4469700000000  0.4239610000000 1.0
C      1  0.5224830000000  0.4577330000000  0.5980040000000 1.0
C      1  0.5287000000000  0.4577290000000  0.5059820000000 1.0
C      1  0.5105490000000  0.5349780000000  0.5090070000000 1.0
C      1  0.4301800000000  0.5119730000000  0.5853400000000 1.0
C      1  0.5536020000000  0.4435810000000  0.5243070000000 1.0
C      1  0.5501940000000  0.5052900000000  0.5720200000000 1.0
C      1  0.4208470000000  0.4913250000000  0.4705580000000 1.0
C      1  0.4667330000000  0.5183260000000  0.4548370000000 1.0
C      1  0.4755080000000  0.5211900000000  0.4223860000000 1.0
C      1  0.4526220000000  0.5568910000000  0.5646970000000 1.0
C      1  0.5067510000000  0.5629240000000  0.5922490000000 1.0
C      1  0.4476710000000  0.5590680000000  0.4607280000000 1.0
C      1  0.4532280000000  0.4974330000000  0.5077140000000 1.0
C      1  0.4030700000000  0.5259300000000  0.5024520000000 1.0
C      1  0.5878780000000  0.4947630000000  0.4912800000000 1.0
C      1  0.5199830000000  0.5085630000000  0.5684200000000 1.0
C      1  0.4306610000000  0.5399090000000  0.4302750000000 1.0
C      1  0.4772140000000  0.5622530000000  0.5393970000000 1.0
C      1  0.5252690000000  0.6072030000000  0.5201550000000 1.0
C      1  0.5332030000000  0.5513590000000  0.4675730000000 1.0
C      1  0.4652110000000  0.4201810000000  0.5436600000000 1.0
C      1  0.5228850000000  0.4804250000000  0.4841190000000 1.0
C      1  0.5331730000000  0.5522220000000  0.4239160000000 1.0
C      1  0.5634070000000  0.5915280000000  0.5144950000000 1.0
C      1  0.4988580000000  0.4859390000000  0.5806700000000 1.0
C      1  0.4293010000000  0.4527800000000  0.5179900000000 1.0
C      1  0.5611080000000  0.5619570000000  0.4557140000000 1.0
C      1  0.4683440000000  0.5621940000000  0.5113800000000 1.0
C      1  0.5430010000000  0.5894710000000  0.4617090000000 1.0
C      1  0.5310510000000  0.4843640000000  0.4280480000000 1.0
C      1  0.5768250000000  0.5477300000000  0.4998380000000 1.0
C      1  0.4342150000000  0.4480990000000  0.5803340000000 1.0
C      1  0.5409920000000  0.4774420000000  0.4581000000000 1.0
C      1  0.5156660000000  0.3873990000000  0.4738980000000 1.0
C      1  0.5067380000000  0.3877260000000  0.5070330000000 1.0
C      1  0.5161340000000  0.5615320000000  0.5270170000000 1.0
C      1  0.5074330000000  0.4647710000000  0.5315600000000 1.0
C      1  0.4965930000000  0.6047570000000  0.4744160000000 1.0
C      1  0.4586850000000  0.4354460000000  0.4295140000000 1.0
C      1  0.4579630000000  0.4570890000000  0.6003430000000 1.0
C      1  0.4334930000000  0.4245190000000  0.5335220000000 1.0
C      1  0.4648760000000  0.5836940000000  0.4347880000000 1.0
C      1  0.4467860000000  0.4007770000000  0.5144100000000 1.0
C      1  0.5746150000000  0.5652520000000  0.5218230000000 1.0
C      1  0.5022950000000  0.4834160000000  0.4424510000000 1.0
C      1  0.4720080000000  0.5639330000000  0.5912130000000 1.0
C      1  0.4128300000000  0.5121760000000  0.4202140000000 1.0
C      1  0.5102420000000  0.5389340000000  0.5687720000000 1.0
C      1  0.3931790000000  0.4877360000000  0.5291900000000 1.0
C      1  0.5477730000000  0.5257560000000  0.4083380000000 1.0
C      1  0.4654060000000  0.4454570000000  0.3997740000000 1.0
C      1  0.4308840000000  0.5121850000000  0.5513400000000 1.0
C      1  0.4707420000000  0.4110530000000  0.5701900000000 1.0
C      1  0.4393880000000  0.4811250000000  0.5743810000000 1.0
C      1  0.4796120000000  0.4782970000000  0.5174000000000 1.0
C      1  0.4670210000000  0.6017970000000  0.4636380000000 1.0
C      1  0.4740240000000  0.4437520000000  0.4587180000000 1.0
C      1  0.5178210000000  0.4194020000000  0.5028720000000 1.0
C      1  0.5693380000000  0.5213790000000  0.4964250000000 1.0
C      1  0.5801960000000  0.4794280000000  0.4640680000000 1.0
C      1  0.5657760000000  0.5488560000000  0.4262830000000 1.0
C      1  0.4224080000000  0.5861230000000  0.4777310000000 1.0
C      1  0.5425490000000  0.4263690000000  0.4837170000000 1.0
C      1  0.4796570000000  0.5485910000000  0.4660070000000 1.0
C      1  0.5945960000000  0.4357200000000  0.5541320000000 1.0
C      1  0.4765530000000  0.5391730000000  0.6074770000000 1.0
C      1  0.4493020000000  0.5960250000000  0.4866270000000 1.0
C      1  0.4289130000000  0.5448500000000  0.5138730000000 1.0
C      1  0.4751940000000  0.4854830000000  0.4591400000000 1.0
C      1  0.4697200000000  0.5119460000000  0.3821840000000 1.0
C      1  0.5366780000000  0.4278430000000  0.4333860000000 1.0
C      1  0.5376860000000  0.4219470000000  0.5566230000000 1.0
C      1  0.5121280000000  0.4517700000000  0.3954010000000 1.0
END
