TITL C-2847955-7945-67 0.000174469018340926 125000 -244.021954314262 0 0 45 (C1) n - 1
REM
REM in /home/bkarasulu/work/CARBON/AIRSS/Generating-Clusters/AIREBO/with-SteepDescent/Only-C1/SD-CG-opt/Try1-1.4A-POS3A/HFTN-CG
REM
REM
REM
REM
REM
REM ./C.cell (11c1c37f851c82e70ff6c80c92926a4b)
REM
REM compiler GCC version 9.2.1 20190827 (Red Hat 9.2.1-1)
REM options -cpp -mtune=generic -march=x86-64 -g -O0 -fpre-include=/usr/include/finclude/math-vector-fortran.h
REM seed 1960853818 588061129 1799556431 -372238843 1630694128 1966472647 1306475206 -587601850 -233198880 943761305 -527438104 1895298685 -963056989 -1829349610 -205221164 241904539 117559087 308685227 -414266228 -698020830 777749654 -212737108 -644066901 -828371656 -226065981 -512375703 -595147426 1516066646 -215455246 1096124155 -1996036737 927686904 -1688579077
REM
CELL 1.54180   50.00000   50.00000   50.00000   90.00000   90.00000   90.00000
LATT -1
SFAC C  
C      1  0.5463260000000  0.5351510000000  0.5070210000000 1.0
C      1  0.5017420000000  0.5292780000000  0.5336110000000 1.0
C      1  0.4934150000000  0.4262580000000  0.4483150000000 1.0
C      1  0.6290760000000  0.5362620000000  0.5102810000000 1.0
C      1  0.5310380000000  0.5136820000000  0.4899580000000 1.0
C      1  0.5315560000000  0.5290690000000  0.4413230000000 1.0
C      1  0.4513100000000  0.4799620000000  0.4894890000000 1.0
C      1  0.5744450000000  0.4542900000000  0.5784460000000 1.0
C      1  0.4990880000000  0.4796400000000  0.5577340000000 1.0
C      1  0.5530880000000  0.4671070000000  0.5702870000000 1.0
C      1  0.4812220000000  0.5157640000000  0.5113070000000 1.0
C      1  0.4398010000000  0.5228370000000  0.4691590000000 1.0
C      1  0.4430230000000  0.5228090000000  0.4416800000000 1.0
C      1  0.5270890000000  0.5076600000000  0.4238830000000 1.0
C      1  0.6028680000000  0.5361440000000  0.5105140000000 1.0
C      1  0.4528370000000  0.4685740000000  0.5341260000000 1.0
C      1  0.4813010000000  0.4216100000000  0.5394730000000 1.0
C      1  0.5331180000000  0.5314990000000  0.5337020000000 1.0
C      1  0.5458340000000  0.5492370000000  0.4575630000000 1.0
C      1  0.4693240000000  0.4850940000000  0.5492920000000 1.0
C      1  0.4881290000000  0.4443900000000  0.4656020000000 1.0
C      1  0.5180940000000  0.5073680000000  0.5527080000000 1.0
C      1  0.4904910000000  0.4513280000000  0.5467130000000 1.0
C      1  0.5051250000000  0.4946350000000  0.4994360000000 1.0
C      1  0.4700760000000  0.4466770000000  0.5194330000000 1.0
C      1  0.5765740000000  0.5369680000000  0.5083560000000 1.0
C      1  0.4374340000000  0.5312560000000  0.4973040000000 1.0
C      1  0.4941530000000  0.4746820000000  0.4778240000000 1.0
C      1  0.4278770000000  0.5117600000000  0.5173430000000 1.0
C      1  0.5345120000000  0.5534640000000  0.4835310000000 1.0
C      1  0.4702470000000  0.4552900000000  0.4909970000000 1.0
C      1  0.4388210000000  0.5208100000000  0.5425460000000 1.0
C      1  0.4885310000000  0.5019800000000  0.4583440000000 1.0
C      1  0.4674400000000  0.5126310000000  0.4338870000000 1.0
C      1  0.5362490000000  0.4842630000000  0.5018450000000 1.0
C      1  0.5077990000000  0.4898580000000  0.4330820000000 1.0
C      1  0.4656640000000  0.5112350000000  0.5412060000000 1.0
C      1  0.5123170000000  0.5249200000000  0.4666560000000 1.0
C      1  0.4652510000000  0.5065540000000  0.4827140000000 1.0
C      1  0.5005270000000  0.4067560000000  0.4323140000000 1.0
C      1  0.5327500000000  0.4788850000000  0.5599530000000 1.0
C      1  0.4800780000000  0.5618610000000  0.4918230000000 1.0
C      1  0.4633530000000  0.5430070000000  0.5041270000000 1.0
C      1  0.5044290000000  0.5541380000000  0.4813390000000 1.0
C      1  0.4365790000000  0.4833540000000  0.5137550000000 1.0
END
