TITL C-2847957-7266-170 -0.00122642197784281 125000 -976.4146933123 0 0 179 (C1) n - 1
REM
REM in /home/bkarasulu/work/CARBON/AIRSS/Generating-Clusters/AIREBO/with-SteepDescent/Only-C1/SD-CG-opt/Try1-1.4A-POS3A/HFTN-CG
REM
REM
REM
REM
REM
REM ./C.cell (11c1c37f851c82e70ff6c80c92926a4b)
REM
REM compiler GCC version 9.2.1 20190827 (Red Hat 9.2.1-1)
REM options -cpp -mtune=generic -march=x86-64 -g -O0 -fpre-include=/usr/include/finclude/math-vector-fortran.h
REM seed 1235355062 -2109501599 -694206330 170465977 1805249995 -1681589043 -952839492 -51875964 -737048125 1831330985 -1678452219 -12018568 263306049 1869229464 -287141491 1990824234 -169693889 1665947884 -1696965218 1128723896 -1165314755 -866657732 -1514905614 -126590539 -1233638707 1540317937 -1025657311 1906828786 -1591612272 -1974520565 1235537448 1978224238 -106660430
REM
CELL 1.54180   50.00000   50.00000   50.00000   90.00000   90.00000   90.00000
LATT -1
SFAC C  
C      1  0.4639520000000  0.5415420000000  0.5782090000000 1.0
C      1  0.4259410000000  0.5664890000000  0.5337030000000 1.0
C      1  0.5512620000000  0.5688570000000  0.5479980000000 1.0
C      1  0.4885520000000  0.5398110000000  0.4091050000000 1.0
C      1  0.4608280000000  0.5282140000000  0.4099560000000 1.0
C      1  0.5138650000000  0.4543120000000  0.5338400000000 1.0
C      1  0.5744560000000  0.4866670000000  0.5080070000000 1.0
C      1  0.4165920000000  0.5270650000000  0.4339700000000 1.0
C      1  0.4369970000000  0.5076770000000  0.4675550000000 1.0
C      1  0.5799680000000  0.5686320000000  0.5053350000000 1.0
C      1  0.4679430000000  0.5284620000000  0.5318600000000 1.0
C      1  0.4199970000000  0.5195530000000  0.5570170000000 1.0
C      1  0.5274890000000  0.5975110000000  0.4742300000000 1.0
C      1  0.5550670000000  0.4402390000000  0.5088040000000 1.0
C      1  0.5076530000000  0.6195710000000  0.4795210000000 1.0
C      1  0.4275480000000  0.5365810000000  0.5078910000000 1.0
C      1  0.4445790000000  0.5393520000000  0.4326010000000 1.0
C      1  0.4880090000000  0.4992350000000  0.5882080000000 1.0
C      1  0.5304440000000  0.5316540000000  0.5891930000000 1.0
C      1  0.4775150000000  0.6117110000000  0.4931160000000 1.0
C      1  0.4138420000000  0.4390860000000  0.5005390000000 1.0
C      1  0.4718430000000  0.5663020000000  0.4759070000000 1.0
C      1  0.4467430000000  0.4948870000000  0.4931690000000 1.0
C      1  0.4457940000000  0.4895730000000  0.5595650000000 1.0
C      1  0.5708240000000  0.5512470000000  0.4283790000000 1.0
C      1  0.5547090000000  0.4317940000000  0.4455350000000 1.0
C      1  0.5078150000000  0.5223940000000  0.4832350000000 1.0
C      1  0.5180820000000  0.4062600000000  0.4465720000000 1.0
C      1  0.4887090000000  0.4812500000000  0.4163090000000 1.0
C      1  0.4659220000000  0.4982260000000  0.3975880000000 1.0
C      1  0.4505040000000  0.5797340000000  0.5059380000000 1.0
C      1  0.4442180000000  0.6087030000000  0.4994000000000 1.0
C      1  0.5192030000000  0.6032170000000  0.5311650000000 1.0
C      1  0.4879850000000  0.4354390000000  0.4232030000000 1.0
C      1  0.4749630000000  0.4705910000000  0.4786910000000 1.0
C      1  0.4521760000000  0.4772950000000  0.5896010000000 1.0
C      1  0.4488430000000  0.5502480000000  0.4890020000000 1.0
C      1  0.4565090000000  0.5110000000000  0.5914340000000 1.0
C      1  0.4958350000000  0.5891800000000  0.5108240000000 1.0
C      1  0.5145250000000  0.4773880000000  0.4596160000000 1.0
C      1  0.5094090000000  0.5384370000000  0.5306670000000 1.0
C      1  0.5275910000000  0.5305430000000  0.5575860000000 1.0
C      1  0.4826690000000  0.5330090000000  0.5015330000000 1.0
C      1  0.4376030000000  0.4091860000000  0.5121420000000 1.0
C      1  0.4696200000000  0.5813110000000  0.4242680000000 1.0
C      1  0.4859330000000  0.5879360000000  0.4460120000000 1.0
C      1  0.5331210000000  0.4751700000000  0.4880040000000 1.0
C      1  0.5146740000000  0.4743330000000  0.6145940000000 1.0
C      1  0.4631440000000  0.5953490000000  0.4670000000000 1.0
C      1  0.5493190000000  0.4694700000000  0.5173720000000 1.0
C      1  0.5075210000000  0.5080730000000  0.5204760000000 1.0
C      1  0.5632830000000  0.5847950000000  0.5286560000000 1.0
C      1  0.5337860000000  0.5128010000000  0.5029710000000 1.0
C      1  0.5235120000000  0.4274100000000  0.5647630000000 1.0
C      1  0.3928280000000  0.4792360000000  0.4709590000000 1.0
C      1  0.5124080000000  0.5038510000000  0.5503090000000 1.0
C      1  0.5285320000000  0.5776430000000  0.5661100000000 1.0
C      1  0.6041490000000  0.4625350000000  0.4973370000000 1.0
C      1  0.5444400000000  0.5611410000000  0.4263290000000 1.0
C      1  0.5545410000000  0.4968640000000  0.4729450000000 1.0
C      1  0.4764920000000  0.5784640000000  0.5710750000000 1.0
C      1  0.6052650000000  0.5139180000000  0.4796200000000 1.0
C      1  0.5846140000000  0.5572310000000  0.4749680000000 1.0
C      1  0.4609950000000  0.4501250000000  0.5020300000000 1.0
C      1  0.5966710000000  0.5197000000000  0.5062270000000 1.0
C      1  0.5492220000000  0.5394290000000  0.5329040000000 1.0
C      1  0.3957060000000  0.4668110000000  0.4969630000000 1.0
C      1  0.4138220000000  0.5646110000000  0.5016630000000 1.0
C      1  0.5363420000000  0.4799860000000  0.4351820000000 1.0
C      1  0.5385470000000  0.4843100000000  0.5957250000000 1.0
C      1  0.5011170000000  0.4290540000000  0.4995830000000 1.0
C      1  0.5869770000000  0.5650430000000  0.4485850000000 1.0
C      1  0.5177570000000  0.5594730000000  0.5894870000000 1.0
C      1  0.5307370000000  0.4501630000000  0.4197730000000 1.0
C      1  0.4268030000000  0.4339940000000  0.5315820000000 1.0
C      1  0.4446950000000  0.5695230000000  0.4319990000000 1.0
C      1  0.4856110000000  0.5558290000000  0.5374440000000 1.0
C      1  0.5286670000000  0.5518440000000  0.5085810000000 1.0
C      1  0.4694890000000  0.4478500000000  0.5899070000000 1.0
C      1  0.4339530000000  0.5812270000000  0.4565180000000 1.0
C      1  0.4437920000000  0.4447200000000  0.4235260000000 1.0
C      1  0.4278010000000  0.5236140000000  0.5834580000000 1.0
C      1  0.4844230000000  0.4385620000000  0.4722910000000 1.0
C      1  0.5785380000000  0.4731260000000  0.4770750000000 1.0
C      1  0.4623980000000  0.4225470000000  0.4212190000000 1.0
C      1  0.5686060000000  0.4405940000000  0.4815590000000 1.0
C      1  0.5037940000000  0.4817920000000  0.5038990000000 1.0
C      1  0.4021990000000  0.4879710000000  0.5203820000000 1.0
C      1  0.5580950000000  0.4931320000000  0.5789920000000 1.0
C      1  0.5650910000000  0.4943920000000  0.4240860000000 1.0
C      1  0.4638130000000  0.5787200000000  0.5333550000000 1.0
C      1  0.5000970000000  0.4039380000000  0.5703880000000 1.0
C      1  0.4732190000000  0.6095910000000  0.5267890000000 1.0
C      1  0.5269350000000  0.4775330000000  0.5534170000000 1.0
C      1  0.5878730000000  0.5488410000000  0.5318830000000 1.0
C      1  0.5558140000000  0.6128360000000  0.4920850000000 1.0
C      1  0.4481160000000  0.5651820000000  0.5595000000000 1.0
C      1  0.5177180000000  0.4727390000000  0.4007270000000 1.0
C      1  0.4974610000000  0.4565560000000  0.5995720000000 1.0
C      1  0.5475130000000  0.5457930000000  0.4842620000000 1.0
C      1  0.6002040000000  0.5174310000000  0.5361020000000 1.0
C      1  0.4433990000000  0.4511110000000  0.5683400000000 1.0
C      1  0.5733850000000  0.5251420000000  0.4743680000000 1.0
C      1  0.5635490000000  0.5159270000000  0.5129160000000 1.0
C      1  0.4863700000000  0.4532430000000  0.4447020000000 1.0
C      1  0.5777860000000  0.5224040000000  0.4261190000000 1.0
C      1  0.4999640000000  0.3914600000000  0.5171260000000 1.0
C      1  0.5224640000000  0.4221200000000  0.4745740000000 1.0
C      1  0.4148640000000  0.4548830000000  0.5532650000000 1.0
C      1  0.4506010000000  0.4926530000000  0.4410320000000 1.0
C      1  0.5349790000000  0.5212610000000  0.4643230000000 1.0
C      1  0.5501890000000  0.4013350000000  0.4548490000000 1.0
C      1  0.4601270000000  0.4198530000000  0.4978140000000 1.0
C      1  0.5725960000000  0.4479240000000  0.5508650000000 1.0
C      1  0.4848790000000  0.4481290000000  0.5465130000000 1.0
C      1  0.5255100000000  0.5122130000000  0.4346430000000 1.0
C      1  0.5643520000000  0.4546290000000  0.4222540000000 1.0
C      1  0.5861160000000  0.4420430000000  0.4531600000000 1.0
C      1  0.5513200000000  0.4269050000000  0.5461540000000 1.0
C      1  0.5041510000000  0.5364590000000  0.4343570000000 1.0
C      1  0.5598210000000  0.5215270000000  0.5792880000000 1.0
C      1  0.4902550000000  0.3951600000000  0.4579960000000 1.0
C      1  0.5269450000000  0.4268060000000  0.5224030000000 1.0
C      1  0.4025130000000  0.5420140000000  0.4570800000000 1.0
C      1  0.5096650000000  0.5752910000000  0.4634310000000 1.0
C      1  0.4501560000000  0.4658570000000  0.5384330000000 1.0
C      1  0.5835630000000  0.4733160000000  0.4434380000000 1.0
C      1  0.4058630000000  0.4748880000000  0.4449860000000 1.0
C      1  0.5195800000000  0.4008740000000  0.5431370000000 1.0
C      1  0.5581060000000  0.4079140000000  0.4856590000000 1.0
C      1  0.5523050000000  0.5791910000000  0.4885790000000 1.0
C      1  0.4728410000000  0.5002420000000  0.5480310000000 1.0
C      1  0.3876050000000  0.5079460000000  0.4977810000000 1.0
C      1  0.5153600000000  0.5066680000000  0.6025090000000 1.0
C      1  0.4301180000000  0.4592830000000  0.4785440000000 1.0
C      1  0.4562060000000  0.4712710000000  0.4158920000000 1.0
C      1  0.4210440000000  0.5088720000000  0.5041470000000 1.0
C      1  0.5337630000000  0.4497530000000  0.4644190000000 1.0
C      1  0.4798890000000  0.4008630000000  0.5431810000000 1.0
C      1  0.5875290000000  0.4596050000000  0.5239080000000 1.0
C      1  0.4880550000000  0.5198030000000  0.4568760000000 1.0
C      1  0.4949150000000  0.5155270000000  0.3936490000000 1.0
C      1  0.5229260000000  0.6111240000000  0.5641910000000 1.0
C      1  0.5470330000000  0.6045640000000  0.5190360000000 1.0
C      1  0.5213980000000  0.5597940000000  0.4401720000000 1.0
C      1  0.4792490000000  0.4691850000000  0.5211330000000 1.0
C      1  0.5716630000000  0.5341300000000  0.5579050000000 1.0
C      1  0.4134910000000  0.5656270000000  0.4709460000000 1.0
C      1  0.4888890000000  0.4756520000000  0.5655330000000 1.0
C      1  0.4138480000000  0.4873190000000  0.5481150000000 1.0
C      1  0.4892270000000  0.5599520000000  0.5917890000000 1.0
C      1  0.5139140000000  0.4539760000000  0.5733620000000 1.0
C      1  0.4365530000000  0.4702850000000  0.5100280000000 1.0
C      1  0.4588660000000  0.4270550000000  0.5405630000000 1.0
C      1  0.4187770000000  0.4980670000000  0.4335990000000 1.0
C      1  0.4999840000000  0.5609400000000  0.4927260000000 1.0
C      1  0.4240700000000  0.4489530000000  0.4463490000000 1.0
C      1  0.4287130000000  0.4269990000000  0.4718930000000 1.0
C      1  0.5142540000000  0.4254150000000  0.4227830000000 1.0
C      1  0.4891260000000  0.5236250000000  0.5652740000000 1.0
C      1  0.4709650000000  0.4201460000000  0.5712830000000 1.0
C      1  0.4039900000000  0.5112860000000  0.4682950000000 1.0
C      1  0.4773080000000  0.4999340000000  0.4957400000000 1.0
C      1  0.5955700000000  0.5211570000000  0.4489060000000 1.0
C      1  0.5188880000000  0.5039180000000  0.4036230000000 1.0
C      1  0.5971360000000  0.4524680000000  0.5705610000000 1.0
C      1  0.4578240000000  0.5319800000000  0.4616940000000 1.0
C      1  0.5604310000000  0.4795410000000  0.5479050000000 1.0
C      1  0.5515030000000  0.4761650000000  0.3987850000000 1.0
C      1  0.4865930000000  0.4004650000000  0.4882780000000 1.0
C      1  0.5286520000000  0.4009160000000  0.5004310000000 1.0
C      1  0.6071360000000  0.4782300000000  0.5668320000000 1.0
C      1  0.5624530000000  0.4088010000000  0.5194430000000 1.0
C      1  0.4583880000000  0.4176580000000  0.4658730000000 1.0
C      1  0.4371630000000  0.5345440000000  0.5368850000000 1.0
C      1  0.5911840000000  0.4941460000000  0.5489640000000 1.0
C      1  0.4640160000000  0.4001310000000  0.4407560000000 1.0
C      1  0.4998920000000  0.5824650000000  0.5499450000000 1.0
C      1  0.4834550000000  0.4867840000000  0.4494560000000 1.0
END
