TITL C-2848504-8560-198 -0.000232187581483386 125000 -697.99145995948 0 0 134 (C1) n - 1
REM
REM in /home/bkarasulu/work/CARBON/AIRSS/Generating-Clusters/AIREBO/with-SteepDescent/Only-C1/SD-CG-opt/Try1-1.4A-POS3A/HFTN-CG
REM
REM
REM
REM
REM
REM ./C.cell (11c1c37f851c82e70ff6c80c92926a4b)
REM
REM compiler GCC version 9.2.1 20190827 (Red Hat 9.2.1-1)
REM options -cpp -mtune=generic -march=x86-64 -g -O0 -fpre-include=/usr/include/finclude/math-vector-fortran.h
REM seed 1002340546 -359463729 -1746306944 -1893355358 485643151 685226965 1282106980 381488575 -1773247409 -1319269773 1175243506 -93371316 -135164129 -1414913150 -1087992406 -1500834198 610172636 1159772783 -172191047 481776759 -474756280 2128977893 509220805 1230569075 2013943907 -332060354 -1121720438 -1166949253 1928398482 -676799196 -712069386 275288526 612370871
REM
CELL 1.54180   50.00000   50.00000   50.00000   90.00000   90.00000   90.00000
LATT -1
SFAC C  
C      1  0.4447100000000  0.5815340000000  0.5546870000000 1.0
C      1  0.5044110000000  0.5239220000000  0.5041140000000 1.0
C      1  0.4952420000000  0.4715350000000  0.5863090000000 1.0
C      1  0.5151630000000  0.5180790000000  0.4723660000000 1.0
C      1  0.5392870000000  0.4021320000000  0.5337660000000 1.0
C      1  0.5568360000000  0.4439850000000  0.4675080000000 1.0
C      1  0.5051610000000  0.4085800000000  0.4737150000000 1.0
C      1  0.4792000000000  0.4531810000000  0.4734080000000 1.0
C      1  0.4661300000000  0.5547580000000  0.4623270000000 1.0
C      1  0.5447470000000  0.4812780000000  0.5048510000000 1.0
C      1  0.5633020000000  0.5101240000000  0.3952210000000 1.0
C      1  0.4479130000000  0.4228990000000  0.5397480000000 1.0
C      1  0.4430630000000  0.5052680000000  0.5529770000000 1.0
C      1  0.5396380000000  0.5844340000000  0.4252280000000 1.0
C      1  0.4945440000000  0.5327550000000  0.4412210000000 1.0
C      1  0.4999720000000  0.4935930000000  0.5326730000000 1.0
C      1  0.4939500000000  0.5847010000000  0.4715480000000 1.0
C      1  0.4230760000000  0.5058130000000  0.4936300000000 1.0
C      1  0.5118730000000  0.5643090000000  0.4923110000000 1.0
C      1  0.4508620000000  0.5314440000000  0.4448450000000 1.0
C      1  0.5134730000000  0.4407410000000  0.4120330000000 1.0
C      1  0.4645980000000  0.4491470000000  0.4429660000000 1.0
C      1  0.4805250000000  0.5533280000000  0.4920730000000 1.0
C      1  0.6002650000000  0.4857570000000  0.4525370000000 1.0
C      1  0.5471890000000  0.5152180000000  0.4613060000000 1.0
C      1  0.4933120000000  0.5011340000000  0.5807870000000 1.0
C      1  0.5347090000000  0.4525060000000  0.5199540000000 1.0
C      1  0.5576510000000  0.3945180000000  0.4841500000000 1.0
C      1  0.5715520000000  0.5346450000000  0.4363240000000 1.0
C      1  0.4645100000000  0.5683980000000  0.5138360000000 1.0
C      1  0.4733760000000  0.5819730000000  0.5501620000000 1.0
C      1  0.5047840000000  0.4607360000000  0.3937700000000 1.0
C      1  0.5732720000000  0.5443980000000  0.4934420000000 1.0
C      1  0.5118420000000  0.5632340000000  0.5730480000000 1.0
C      1  0.4446190000000  0.5879420000000  0.4949310000000 1.0
C      1  0.4306070000000  0.5352610000000  0.5622160000000 1.0
C      1  0.4761680000000  0.5991470000000  0.4922120000000 1.0
C      1  0.5564370000000  0.5438570000000  0.5224790000000 1.0
C      1  0.5510890000000  0.4892060000000  0.4412510000000 1.0
C      1  0.5065860000000  0.5444680000000  0.5313330000000 1.0
C      1  0.4976910000000  0.4892190000000  0.4019150000000 1.0
C      1  0.5511440000000  0.4181150000000  0.5079010000000 1.0
C      1  0.4448380000000  0.5377870000000  0.4834890000000 1.0
C      1  0.4782760000000  0.5762800000000  0.4425700000000 1.0
C      1  0.5093870000000  0.4407430000000  0.4635020000000 1.0
C      1  0.4380170000000  0.4649550000000  0.5799840000000 1.0
C      1  0.4333410000000  0.4513230000000  0.4394810000000 1.0
C      1  0.4170150000000  0.5492200000000  0.5211190000000 1.0
C      1  0.4485190000000  0.4516320000000  0.5514990000000 1.0
C      1  0.5004020000000  0.4843040000000  0.4604790000000 1.0
C      1  0.4761600000000  0.4584910000000  0.5700870000000 1.0
C      1  0.4769270000000  0.5081500000000  0.5517990000000 1.0
C      1  0.5278020000000  0.5316100000000  0.5545900000000 1.0
C      1  0.5744700000000  0.4367730000000  0.5216580000000 1.0
C      1  0.4329850000000  0.4525560000000  0.4992030000000 1.0
C      1  0.5872940000000  0.4923290000000  0.4767900000000 1.0
C      1  0.5820020000000  0.4813690000000  0.4322220000000 1.0
C      1  0.4724330000000  0.5203050000000  0.4930530000000 1.0
C      1  0.4502970000000  0.4706070000000  0.4779640000000 1.0
C      1  0.4265270000000  0.4780420000000  0.4548120000000 1.0
C      1  0.5110470000000  0.4239480000000  0.5625380000000 1.0
C      1  0.5164480000000  0.5761580000000  0.5238630000000 1.0
C      1  0.4220250000000  0.5278150000000  0.4603320000000 1.0
C      1  0.4778740000000  0.4147660000000  0.5364170000000 1.0
C      1  0.5059030000000  0.4044680000000  0.5044870000000 1.0
C      1  0.4465620000000  0.5521310000000  0.5377010000000 1.0
C      1  0.5686030000000  0.4708610000000  0.4847070000000 1.0
C      1  0.5108580000000  0.4763210000000  0.4300260000000 1.0
C      1  0.5328270000000  0.4628170000000  0.4525000000000 1.0
C      1  0.5374820000000  0.4321000000000  0.5780690000000 1.0
C      1  0.5269160000000  0.4361970000000  0.4923000000000 1.0
C      1  0.5251240000000  0.5127740000000  0.5804940000000 1.0
C      1  0.5346940000000  0.4536050000000  0.5505350000000 1.0
C      1  0.4472460000000  0.5234830000000  0.5880200000000 1.0
C      1  0.5391020000000  0.4148500000000  0.4699470000000 1.0
C      1  0.3860480000000  0.4775690000000  0.4943880000000 1.0
C      1  0.4769190000000  0.5642010000000  0.4125100000000 1.0
C      1  0.4833350000000  0.5367570000000  0.4125520000000 1.0
C      1  0.5617270000000  0.4559150000000  0.5710290000000 1.0
C      1  0.5608890000000  0.5943160000000  0.4953530000000 1.0
C      1  0.4737090000000  0.5136320000000  0.4597080000000 1.0
C      1  0.3981030000000  0.5239700000000  0.5186620000000 1.0
C      1  0.5396590000000  0.5450360000000  0.4882240000000 1.0
C      1  0.4874910000000  0.4436420000000  0.5212490000000 1.0
C      1  0.4948710000000  0.5264530000000  0.6020910000000 1.0
C      1  0.5559290000000  0.5671110000000  0.5603790000000 1.0
C      1  0.5140910000000  0.5079600000000  0.4402530000000 1.0
C      1  0.4697690000000  0.5356600000000  0.5695950000000 1.0
C      1  0.3959830000000  0.4940520000000  0.5205980000000 1.0
C      1  0.4588840000000  0.4033880000000  0.5138140000000 1.0
C      1  0.4846170000000  0.4664820000000  0.5432740000000 1.0
C      1  0.5794560000000  0.4418930000000  0.4928590000000 1.0
C      1  0.4873000000000  0.5565740000000  0.5571300000000 1.0
C      1  0.5933920000000  0.5321950000000  0.5410970000000 1.0
C      1  0.5237950000000  0.4630490000000  0.5813270000000 1.0
C      1  0.4492740000000  0.4753180000000  0.5273710000000 1.0
C      1  0.5331970000000  0.5661240000000  0.4425180000000 1.0
C      1  0.4643010000000  0.4393630000000  0.4981800000000 1.0
C      1  0.5170890000000  0.5437880000000  0.5919290000000 1.0
C      1  0.4721670000000  0.4820880000000  0.4466980000000 1.0
C      1  0.4169010000000  0.4708330000000  0.5186540000000 1.0
C      1  0.4302650000000  0.5039350000000  0.4388390000000 1.0
C      1  0.5408650000000  0.5961910000000  0.5134040000000 1.0
C      1  0.5618120000000  0.5345030000000  0.5527570000000 1.0
C      1  0.5451830000000  0.4872430000000  0.5796370000000 1.0
C      1  0.4581450000000  0.4986840000000  0.4236900000000 1.0
C      1  0.4715060000000  0.4171870000000  0.4523450000000 1.0
C      1  0.5742400000000  0.5173530000000  0.4771270000000 1.0
C      1  0.4675080000000  0.4875880000000  0.5010590000000 1.0
C      1  0.5298940000000  0.5744780000000  0.5551300000000 1.0
C      1  0.5731970000000  0.4571440000000  0.5407200000000 1.0
C      1  0.5371210000000  0.5146380000000  0.5034050000000 1.0
C      1  0.5206360000000  0.4742340000000  0.4821380000000 1.0
C      1  0.4961720000000  0.4732000000000  0.5057340000000 1.0
C      1  0.4291860000000  0.5611440000000  0.4972100000000 1.0
C      1  0.5537310000000  0.5014730000000  0.5523930000000 1.0
C      1  0.4385890000000  0.4918520000000  0.5816540000000 1.0
C      1  0.4118600000000  0.4833050000000  0.4810270000000 1.0
C      1  0.5974170000000  0.5387380000000  0.5167140000000 1.0
C      1  0.5786530000000  0.5756100000000  0.4863550000000 1.0
C      1  0.5611970000000  0.5138990000000  0.4222460000000 1.0
C      1  0.5154870000000  0.4259600000000  0.5290330000000 1.0
C      1  0.5264640000000  0.5070170000000  0.5328460000000 1.0
C      1  0.5646910000000  0.4823050000000  0.5312390000000 1.0
C      1  0.4771870000000  0.5087430000000  0.4057660000000 1.0
C      1  0.4725570000000  0.4105790000000  0.4834680000000 1.0
C      1  0.5517710000000  0.5486380000000  0.4570430000000 1.0
C      1  0.4868400000000  0.5923880000000  0.5236630000000 1.0
C      1  0.4635010000000  0.5254620000000  0.5254630000000 1.0
C      1  0.5382970000000  0.4440950000000  0.4246370000000 1.0
C      1  0.4950850000000  0.4329990000000  0.4336290000000 1.0
C      1  0.4369740000000  0.5053150000000  0.5195250000000 1.0
C      1  0.5060230000000  0.5598610000000  0.4515900000000 1.0
C      1  0.4051650000000  0.5308240000000  0.4877530000000 1.0
END
