TITL C-2848500-1637-352 0.000675137652995123 125000 -317.040472417995 0 0 59 (C1) n - 1
REM
REM in /home/bkarasulu/work/CARBON/AIRSS/Generating-Clusters/AIREBO/with-SteepDescent/Only-C1/SD-CG-opt/Try1-1.4A-POS3A/HFTN-CG
REM
REM
REM
REM
REM
REM ./C.cell (11c1c37f851c82e70ff6c80c92926a4b)
REM
REM compiler GCC version 9.2.1 20190827 (Red Hat 9.2.1-1)
REM options -cpp -mtune=generic -march=x86-64 -g -O0 -fpre-include=/usr/include/finclude/math-vector-fortran.h
REM seed -1184176279 216123513 -781865517 1342797808 -1450646047 -1172898926 -772130440 -115175530 599655857 1269269802 1313468399 -1426433490 -1105360776 -361114619 -1264793390 1411060524 1846867034 1312597392 1385806706 -964656405 -1721400269 -1622792610 1098899667 1098892031 -92173836 -1425665744 140147010 -1305285719 -1577025455 2012205552 -355039517 1270812094 176169490
REM
CELL 1.54180   50.00000   50.00000   50.00000   90.00000   90.00000   90.00000
LATT -1
SFAC C  
C      1  0.5558030000000  0.5174460000000  0.5205260000000 1.0
C      1  0.4614060000000  0.4796660000000  0.4475440000000 1.0
C      1  0.5024060000000  0.4752710000000  0.4662820000000 1.0
C      1  0.5029100000000  0.5151870000000  0.4695250000000 1.0
C      1  0.4485870000000  0.4734200000000  0.5340180000000 1.0
C      1  0.5045770000000  0.5734760000000  0.5218560000000 1.0
C      1  0.5027110000000  0.4235600000000  0.4922890000000 1.0
C      1  0.4626680000000  0.4539760000000  0.4630750000000 1.0
C      1  0.5599240000000  0.5442110000000  0.5200370000000 1.0
C      1  0.5262650000000  0.5108100000000  0.4273930000000 1.0
C      1  0.5548510000000  0.4662220000000  0.4627670000000 1.0
C      1  0.4538340000000  0.5073220000000  0.4920450000000 1.0
C      1  0.5234180000000  0.5595790000000  0.4743810000000 1.0
C      1  0.4783850000000  0.5466990000000  0.5082010000000 1.0
C      1  0.4812580000000  0.5192420000000  0.5245190000000 1.0
C      1  0.5242590000000  0.4274350000000  0.4674200000000 1.0
C      1  0.5440520000000  0.4385150000000  0.5183660000000 1.0
C      1  0.5076910000000  0.4637630000000  0.4347210000000 1.0
C      1  0.4909570000000  0.5271270000000  0.5538760000000 1.0
C      1  0.5075100000000  0.5199380000000  0.5029020000000 1.0
C      1  0.5179080000000  0.5303960000000  0.5570310000000 1.0
C      1  0.4452320000000  0.5287300000000  0.5409100000000 1.0
C      1  0.4780330000000  0.4337210000000  0.5394150000000 1.0
C      1  0.4936740000000  0.4424190000000  0.4654810000000 1.0
C      1  0.5312270000000  0.4529760000000  0.4498960000000 1.0
C      1  0.5193670000000  0.5506440000000  0.5032310000000 1.0
C      1  0.4460280000000  0.5362600000000  0.5084860000000 1.0
C      1  0.4338720000000  0.4573730000000  0.5155000000000 1.0
C      1  0.4816860000000  0.5398570000000  0.4596170000000 1.0
C      1  0.5564180000000  0.4983810000000  0.4996670000000 1.0
C      1  0.4474470000000  0.5697440000000  0.5019820000000 1.0
C      1  0.4935560000000  0.4449670000000  0.5117310000000 1.0
C      1  0.4726670000000  0.5639150000000  0.4802490000000 1.0
C      1  0.5292390000000  0.5353170000000  0.4618760000000 1.0
C      1  0.4765090000000  0.5796420000000  0.5165960000000 1.0
C      1  0.5368960000000  0.5652370000000  0.5284610000000 1.0
C      1  0.4771410000000  0.4636430000000  0.4948420000000 1.0
C      1  0.4633040000000  0.5349180000000  0.5603050000000 1.0
C      1  0.5280010000000  0.4954010000000  0.4578800000000 1.0
C      1  0.4975230000000  0.5095660000000  0.4364180000000 1.0
C      1  0.5246000000000  0.4914840000000  0.5742720000000 1.0
C      1  0.4571430000000  0.5264400000000  0.4470060000000 1.0
C      1  0.5032950000000  0.4645490000000  0.5377660000000 1.0
C      1  0.4465870000000  0.4552470000000  0.4919180000000 1.0
C      1  0.5355780000000  0.4539440000000  0.5389270000000 1.0
C      1  0.4847450000000  0.4844090000000  0.4317290000000 1.0
C      1  0.4809250000000  0.4932240000000  0.4834180000000 1.0
C      1  0.4525830000000  0.5009270000000  0.5252300000000 1.0
C      1  0.5085340000000  0.4721640000000  0.5704870000000 1.0
C      1  0.4988940000000  0.5692130000000  0.4623950000000 1.0
C      1  0.5377680000000  0.4767710000000  0.5062220000000 1.0
C      1  0.5414550000000  0.4481890000000  0.4881790000000 1.0
C      1  0.5562170000000  0.4945970000000  0.4710870000000 1.0
C      1  0.5515710000000  0.4747470000000  0.5478170000000 1.0
C      1  0.5365510000000  0.5051690000000  0.5455270000000 1.0
C      1  0.4701540000000  0.4621510000000  0.5468700000000 1.0
C      1  0.5142030000000  0.4931490000000  0.5228770000000 1.0
C      1  0.5297110000000  0.5547670000000  0.5572770000000 1.0
C      1  0.4502860000000  0.5028870000000  0.4596790000000 1.0
END
