TITL C-2848496-4490-498 -0.000474444446130872 125000 -992.453361821157 0 0 184 (C1) n - 1
REM
REM in /home/bkarasulu/work/CARBON/AIRSS/Generating-Clusters/AIREBO/with-SteepDescent/Only-C1/SD-CG-opt/Try1-1.4A-POS3A/HFTN-CG
REM
REM
REM
REM
REM
REM ./C.cell (11c1c37f851c82e70ff6c80c92926a4b)
REM
REM compiler GCC version 9.2.1 20190827 (Red Hat 9.2.1-1)
REM options -cpp -mtune=generic -march=x86-64 -g -O0 -fpre-include=/usr/include/finclude/math-vector-fortran.h
REM seed -1929564055 -38378017 -413716272 2127367006 1336914766 1273948916 -914785986 218069481 -1744791681 -1143529653 -1162940719 431953080 349541388 -2099942094 -1372768369 732403200 -35356463 276384022 -768423109 -934357607 -1721296318 -1403345626 930934922 1672715331 -1855698739 -1102702156 310592424 1194230520 -1470444071 798846370 -1105621128 477623829 1591415120
REM
CELL 1.54180   50.00000   50.00000   50.00000   90.00000   90.00000   90.00000
LATT -1
SFAC C  
C      1  0.5256610000000  0.5452310000000  0.4331380000000 1.0
C      1  0.4885630000000  0.5316060000000  0.4212950000000 1.0
C      1  0.4502240000000  0.5310620000000  0.4671230000000 1.0
C      1  0.5196100000000  0.4374630000000  0.5568970000000 1.0
C      1  0.5653060000000  0.5611630000000  0.5137640000000 1.0
C      1  0.4505060000000  0.5504970000000  0.5882460000000 1.0
C      1  0.4782140000000  0.5695260000000  0.5432950000000 1.0
C      1  0.4280290000000  0.4954060000000  0.5663830000000 1.0
C      1  0.4902360000000  0.5149730000000  0.6027430000000 1.0
C      1  0.5431650000000  0.5132050000000  0.4014080000000 1.0
C      1  0.4337880000000  0.5044440000000  0.4730420000000 1.0
C      1  0.5505220000000  0.4667020000000  0.3926400000000 1.0
C      1  0.5763420000000  0.4716310000000  0.5898390000000 1.0
C      1  0.4996500000000  0.5175950000000  0.3923660000000 1.0
C      1  0.5114740000000  0.4496820000000  0.4970670000000 1.0
C      1  0.3924530000000  0.5328790000000  0.5585560000000 1.0
C      1  0.5191190000000  0.5276610000000  0.6130020000000 1.0
C      1  0.5066570000000  0.3934430000000  0.5526830000000 1.0
C      1  0.4847430000000  0.4734680000000  0.6037650000000 1.0
C      1  0.5127760000000  0.5749190000000  0.4808800000000 1.0
C      1  0.6037280000000  0.5243650000000  0.5170600000000 1.0
C      1  0.4686030000000  0.4350750000000  0.4233740000000 1.0
C      1  0.4558240000000  0.4757950000000  0.5646170000000 1.0
C      1  0.5469950000000  0.4997870000000  0.4469480000000 1.0
C      1  0.5368940000000  0.5831450000000  0.4382650000000 1.0
C      1  0.4663890000000  0.5316370000000  0.5540180000000 1.0
C      1  0.5805380000000  0.5555480000000  0.4483980000000 1.0
C      1  0.4321070000000  0.4399250000000  0.5426450000000 1.0
C      1  0.4754170000000  0.4102830000000  0.4538570000000 1.0
C      1  0.5853140000000  0.4782400000000  0.4968610000000 1.0
C      1  0.4648670000000  0.4964880000000  0.4041820000000 1.0
C      1  0.4284320000000  0.5233510000000  0.5223240000000 1.0
C      1  0.5083850000000  0.5483130000000  0.5904740000000 1.0
C      1  0.3932990000000  0.5360160000000  0.4900500000000 1.0
C      1  0.4567130000000  0.4351050000000  0.5213300000000 1.0
C      1  0.5070960000000  0.4758770000000  0.5183210000000 1.0
C      1  0.4465990000000  0.5211290000000  0.5786100000000 1.0
C      1  0.5178380000000  0.5203810000000  0.5162190000000 1.0
C      1  0.4761490000000  0.5895820000000  0.4848030000000 1.0
C      1  0.4239820000000  0.5745350000000  0.4644240000000 1.0
C      1  0.4100450000000  0.4847030000000  0.5864520000000 1.0
C      1  0.5115670000000  0.5811110000000  0.4156970000000 1.0
C      1  0.5082770000000  0.4375640000000  0.5291500000000 1.0
C      1  0.4592550000000  0.4816710000000  0.4408370000000 1.0
C      1  0.5942750000000  0.4664700000000  0.5690750000000 1.0
C      1  0.5036260000000  0.4463030000000  0.4082880000000 1.0
C      1  0.5396560000000  0.4688400000000  0.5176630000000 1.0
C      1  0.6035560000000  0.5332570000000  0.5459560000000 1.0
C      1  0.4904750000000  0.3795440000000  0.4573280000000 1.0
C      1  0.5537610000000  0.4458440000000  0.4563800000000 1.0
C      1  0.4762770000000  0.4624080000000  0.5176310000000 1.0
C      1  0.5600430000000  0.5762470000000  0.4606900000000 1.0
C      1  0.5437360000000  0.4152390000000  0.5602250000000 1.0
C      1  0.5676760000000  0.5409410000000  0.4246940000000 1.0
C      1  0.4267230000000  0.4412600000000  0.5091000000000 1.0
C      1  0.4088380000000  0.4701150000000  0.4570610000000 1.0
C      1  0.4028090000000  0.5038640000000  0.4604900000000 1.0
C      1  0.5145010000000  0.5111120000000  0.4837240000000 1.0
C      1  0.5494570000000  0.5527830000000  0.5736740000000 1.0
C      1  0.5170590000000  0.4727610000000  0.6015800000000 1.0
C      1  0.5693790000000  0.5097640000000  0.4825850000000 1.0
C      1  0.5519350000000  0.6071190000000  0.4664230000000 1.0
C      1  0.4278910000000  0.4727100000000  0.5084870000000 1.0
C      1  0.5133820000000  0.4939400000000  0.5607970000000 1.0
C      1  0.4368780000000  0.5070880000000  0.4204100000000 1.0
C      1  0.5511290000000  0.4108560000000  0.5108830000000 1.0
C      1  0.4389750000000  0.5351070000000  0.4352930000000 1.0
C      1  0.5474270000000  0.5090280000000  0.5242320000000 1.0
C      1  0.5183720000000  0.5883350000000  0.5119290000000 1.0
C      1  0.5464640000000  0.3993890000000  0.4382730000000 1.0
C      1  0.5470460000000  0.5629020000000  0.4132230000000 1.0
C      1  0.4379660000000  0.5703100000000  0.5725900000000 1.0
C      1  0.3954930000000  0.5342870000000  0.4611240000000 1.0
C      1  0.4856380000000  0.4932660000000  0.4814420000000 1.0
C      1  0.4286490000000  0.4762350000000  0.4316600000000 1.0
C      1  0.5240350000000  0.5483950000000  0.4628240000000 1.0
C      1  0.5372560000000  0.4681490000000  0.4391610000000 1.0
C      1  0.5295200000000  0.4022600000000  0.5321580000000 1.0
C      1  0.5082100000000  0.4728020000000  0.4723380000000 1.0
C      1  0.4422740000000  0.3953440000000  0.5148680000000 1.0
C      1  0.5562710000000  0.5469200000000  0.5408690000000 1.0
C      1  0.4155190000000  0.5511310000000  0.4499240000000 1.0
C      1  0.5004890000000  0.5079060000000  0.4529040000000 1.0
C      1  0.4473260000000  0.4733570000000  0.4704140000000 1.0
C      1  0.5948840000000  0.5328130000000  0.4660930000000 1.0
C      1  0.5879870000000  0.5424580000000  0.4973980000000 1.0
C      1  0.5293460000000  0.4224640000000  0.4507940000000 1.0
C      1  0.4470590000000  0.5974920000000  0.4744360000000 1.0
C      1  0.4578950000000  0.5124620000000  0.5177720000000 1.0
C      1  0.4294570000000  0.5683150000000  0.4949770000000 1.0
C      1  0.5594180000000  0.4411660000000  0.5177800000000 1.0
C      1  0.5252080000000  0.5413210000000  0.5394400000000 1.0
C      1  0.5334090000000  0.4831910000000  0.4892290000000 1.0
C      1  0.4698460000000  0.5439490000000  0.5224970000000 1.0
C      1  0.4130900000000  0.5199430000000  0.5494480000000 1.0
C      1  0.5534680000000  0.4678420000000  0.5465580000000 1.0
C      1  0.4184670000000  0.5546240000000  0.5303570000000 1.0
C      1  0.4853450000000  0.4692710000000  0.4057880000000 1.0
C      1  0.4589620000000  0.4840510000000  0.5005290000000 1.0
C      1  0.4999580000000  0.4443390000000  0.5940690000000 1.0
C      1  0.5156410000000  0.5276750000000  0.5643860000000 1.0
C      1  0.3755070000000  0.4746770000000  0.4985520000000 1.0
C      1  0.4839660000000  0.4233710000000  0.5138980000000 1.0
C      1  0.5371830000000  0.5774180000000  0.5575100000000 1.0
C      1  0.5243180000000  0.5137980000000  0.4293710000000 1.0
C      1  0.4411350000000  0.4494650000000  0.5667640000000 1.0
C      1  0.4463330000000  0.6063080000000  0.5052990000000 1.0
C      1  0.4396140000000  0.4444310000000  0.4245870000000 1.0
C      1  0.5787300000000  0.5318950000000  0.5565540000000 1.0
C      1  0.4932250000000  0.5725330000000  0.5725490000000 1.0
C      1  0.5044340000000  0.6078780000000  0.4800980000000 1.0
C      1  0.6028890000000  0.5039970000000  0.4823100000000 1.0
C      1  0.5166670000000  0.3945220000000  0.4993700000000 1.0
C      1  0.4326130000000  0.4458040000000  0.4569640000000 1.0
C      1  0.5702530000000  0.4293740000000  0.4811430000000 1.0
C      1  0.5300980000000  0.4660950000000  0.5708900000000 1.0
C      1  0.5655220000000  0.5008810000000  0.5980230000000 1.0
C      1  0.5315340000000  0.5001080000000  0.5974210000000 1.0
C      1  0.5673510000000  0.5094070000000  0.5679070000000 1.0
C      1  0.4824390000000  0.4487990000000  0.5481820000000 1.0
C      1  0.4460290000000  0.4194740000000  0.4683450000000 1.0
C      1  0.4781000000000  0.4583350000000  0.4434700000000 1.0
C      1  0.4688920000000  0.6187060000000  0.5144570000000 1.0
C      1  0.5794240000000  0.4594910000000  0.4387180000000 1.0
C      1  0.5964630000000  0.4543920000000  0.5117600000000 1.0
C      1  0.4498280000000  0.5460300000000  0.4950700000000 1.0
C      1  0.5304130000000  0.4301600000000  0.5882970000000 1.0
C      1  0.5482280000000  0.5302160000000  0.5958930000000 1.0
C      1  0.5094700000000  0.5524760000000  0.4044130000000 1.0
C      1  0.4739670000000  0.5064810000000  0.4353890000000 1.0
C      1  0.4959290000000  0.5390220000000  0.4769890000000 1.0
C      1  0.5743260000000  0.4900790000000  0.4302670000000 1.0
C      1  0.4323440000000  0.5850250000000  0.5235670000000 1.0
C      1  0.4731560000000  0.5743240000000  0.4362920000000 1.0
C      1  0.5438800000000  0.5231440000000  0.4715240000000 1.0
C      1  0.5104280000000  0.5698840000000  0.5375000000000 1.0
C      1  0.4991710000000  0.4257250000000  0.4349890000000 1.0
C      1  0.4549540000000  0.5983790000000  0.4436180000000 1.0
C      1  0.4521520000000  0.4328850000000  0.5864580000000 1.0
C      1  0.4590360000000  0.4927650000000  0.5914770000000 1.0
C      1  0.5815910000000  0.4501040000000  0.5420420000000 1.0
C      1  0.4485490000000  0.5778800000000  0.5488240000000 1.0
C      1  0.5866350000000  0.5187230000000  0.4361090000000 1.0
C      1  0.5590070000000  0.5518010000000  0.4818650000000 1.0
C      1  0.4948940000000  0.6129170000000  0.5111360000000 1.0
C      1  0.5052310000000  0.4074440000000  0.4699900000000 1.0
C      1  0.4852350000000  0.4823790000000  0.5510360000000 1.0
C      1  0.4724650000000  0.4505420000000  0.4726510000000 1.0
C      1  0.5047270000000  0.4927590000000  0.4140120000000 1.0
C      1  0.5303030000000  0.6195710000000  0.4685380000000 1.0
C      1  0.4031980000000  0.4835610000000  0.4877830000000 1.0
C      1  0.5387010000000  0.4360550000000  0.4919200000000 1.0
C      1  0.5931730000000  0.4322010000000  0.4951410000000 1.0
C      1  0.4864340000000  0.5608980000000  0.4981200000000 1.0
C      1  0.4721110000000  0.4984280000000  0.6221480000000 1.0
C      1  0.5720130000000  0.4209690000000  0.5567290000000 1.0
C      1  0.5595390000000  0.4697950000000  0.4798260000000 1.0
C      1  0.4222170000000  0.4828360000000  0.5353230000000 1.0
C      1  0.4621210000000  0.3960570000000  0.5329260000000 1.0
C      1  0.5058120000000  0.4706910000000  0.4398890000000 1.0
C      1  0.5044460000000  0.5800850000000  0.4483140000000 1.0
C      1  0.4696340000000  0.5216030000000  0.3845230000000 1.0
C      1  0.5306090000000  0.4562800000000  0.4098140000000 1.0
C      1  0.5373640000000  0.5393470000000  0.3918590000000 1.0
C      1  0.3996430000000  0.5590320000000  0.5043780000000 1.0
C      1  0.4769530000000  0.5434900000000  0.4501650000000 1.0
C      1  0.4896690000000  0.5031890000000  0.5244690000000 1.0
C      1  0.4358340000000  0.4141900000000  0.4945790000000 1.0
C      1  0.5463940000000  0.5831380000000  0.5274490000000 1.0
C      1  0.6282180000000  0.5101690000000  0.5006410000000 1.0
C      1  0.5608200000000  0.4915260000000  0.4018020000000 1.0
C      1  0.5459460000000  0.4972780000000  0.5516040000000 1.0
C      1  0.4782410000000  0.4264810000000  0.5821620000000 1.0
C      1  0.5553710000000  0.4530940000000  0.5896040000000 1.0
C      1  0.4925380000000  0.3923960000000  0.5217660000000 1.0
C      1  0.4764170000000  0.5570930000000  0.5948030000000 1.0
C      1  0.5774760000000  0.5071300000000  0.5129830000000 1.0
C      1  0.4861480000000  0.5195130000000  0.5747520000000 1.0
C      1  0.4894290000000  0.4310720000000  0.4851110000000 1.0
C      1  0.4574050000000  0.5459320000000  0.3921320000000 1.0
C      1  0.5462030000000  0.3821980000000  0.4989600000000 1.0
C      1  0.4554700000000  0.5538370000000  0.4181550000000 1.0
C      1  0.4128390000000  0.5143120000000  0.4981270000000 1.0
C      1  0.4821940000000  0.4151060000000  0.5529750000000 1.0
END
