TITL C-2848496-4490-367 -0.00730023853497222 125000 -962.118427784181 0 0 178 (C1) n - 1
REM
REM in /home/bkarasulu/work/CARBON/AIRSS/Generating-Clusters/AIREBO/with-SteepDescent/Only-C1/SD-CG-opt/Try1-1.4A-POS3A/HFTN-CG
REM
REM
REM
REM
REM
REM ./C.cell (11c1c37f851c82e70ff6c80c92926a4b)
REM
REM compiler GCC version 9.2.1 20190827 (Red Hat 9.2.1-1)
REM options -cpp -mtune=generic -march=x86-64 -g -O0 -fpre-include=/usr/include/finclude/math-vector-fortran.h
REM seed 1484710234 -2104878153 781599933 370713571 -1962424224 -1127838105 1744760230 1789100428 1259481879 -219966457 1756267125 -660525964 -2016868035 -993962053 2039321570 9934885 1751607585 -1833799173 518406578 1172523050 2035369507 -1964439502 -1998628320 92456268 -1196699415 -134012998 -921025180 -578819471 -274597093 793098378 -2100162909 2131537800 -554231749
REM
CELL 1.54180   50.00000   50.00000   50.00000   90.00000   90.00000   90.00000
LATT -1
SFAC C  
C      1  0.4474110000000  0.5934900000000  0.4852830000000 1.0
C      1  0.4337960000000  0.4616930000000  0.5436400000000 1.0
C      1  0.6064550000000  0.5348240000000  0.4900400000000 1.0
C      1  0.4949790000000  0.5737010000000  0.4814370000000 1.0
C      1  0.4649980000000  0.5534870000000  0.4275410000000 1.0
C      1  0.4907410000000  0.4656380000000  0.6130400000000 1.0
C      1  0.4531050000000  0.4047940000000  0.5129770000000 1.0
C      1  0.4985800000000  0.4351310000000  0.4365100000000 1.0
C      1  0.5160360000000  0.4531190000000  0.4595510000000 1.0
C      1  0.4495970000000  0.5257930000000  0.4829630000000 1.0
C      1  0.4653280000000  0.5923530000000  0.4360470000000 1.0
C      1  0.5986510000000  0.4433450000000  0.4958080000000 1.0
C      1  0.5888990000000  0.5015590000000  0.5538720000000 1.0
C      1  0.4257760000000  0.4744450000000  0.4992240000000 1.0
C      1  0.5244320000000  0.5246160000000  0.5815800000000 1.0
C      1  0.5008700000000  0.5398210000000  0.4617240000000 1.0
C      1  0.5481320000000  0.4510980000000  0.4182600000000 1.0
C      1  0.5116280000000  0.4035380000000  0.5466080000000 1.0
C      1  0.5666810000000  0.5841660000000  0.5176780000000 1.0
C      1  0.4327620000000  0.4462550000000  0.5844440000000 1.0
C      1  0.5882420000000  0.5194170000000  0.4705460000000 1.0
C      1  0.5521030000000  0.5203310000000  0.4238950000000 1.0
C      1  0.5236480000000  0.4794470000000  0.4052950000000 1.0
C      1  0.4106340000000  0.4591760000000  0.4418810000000 1.0
C      1  0.5671710000000  0.4202110000000  0.4464340000000 1.0
C      1  0.5006730000000  0.5860180000000  0.5118940000000 1.0
C      1  0.4938240000000  0.5379590000000  0.5124390000000 1.0
C      1  0.5417630000000  0.4680130000000  0.5482980000000 1.0
C      1  0.5944280000000  0.4553680000000  0.4683540000000 1.0
C      1  0.5142360000000  0.5340160000000  0.6074530000000 1.0
C      1  0.6079080000000  0.4853640000000  0.4658230000000 1.0
C      1  0.4774590000000  0.4477340000000  0.5130100000000 1.0
C      1  0.5285660000000  0.4744120000000  0.4829420000000 1.0
C      1  0.5337050000000  0.5375000000000  0.4703200000000 1.0
C      1  0.5143550000000  0.5065380000000  0.3913360000000 1.0
C      1  0.5441350000000  0.4352220000000  0.4664430000000 1.0
C      1  0.4058500000000  0.4678790000000  0.5255920000000 1.0
C      1  0.4300440000000  0.5502970000000  0.5780230000000 1.0
C      1  0.4841100000000  0.4033890000000  0.4749710000000 1.0
C      1  0.4219500000000  0.4870510000000  0.4691460000000 1.0
C      1  0.4665520000000  0.4465330000000  0.4378020000000 1.0
C      1  0.4843520000000  0.4947210000000  0.5675370000000 1.0
C      1  0.5740440000000  0.5526240000000  0.5558230000000 1.0
C      1  0.5533110000000  0.4758430000000  0.4381620000000 1.0
C      1  0.4628740000000  0.4440480000000  0.5435160000000 1.0
C      1  0.6000910000000  0.5313430000000  0.5185290000000 1.0
C      1  0.4623410000000  0.5882450000000  0.5228910000000 1.0
C      1  0.5428440000000  0.4087570000000  0.5340270000000 1.0
C      1  0.5672430000000  0.4246020000000  0.5321890000000 1.0
C      1  0.4477680000000  0.5597100000000  0.4813620000000 1.0
C      1  0.4851370000000  0.4168860000000  0.4104420000000 1.0
C      1  0.5324160000000  0.5826470000000  0.4707350000000 1.0
C      1  0.5484900000000  0.4257960000000  0.4969960000000 1.0
C      1  0.5342640000000  0.5290230000000  0.3984680000000 1.0
C      1  0.4685430000000  0.4952560000000  0.5198010000000 1.0
C      1  0.5092760000000  0.4764830000000  0.4359660000000 1.0
C      1  0.4921570000000  0.5070260000000  0.4168290000000 1.0
C      1  0.4406800000000  0.5040100000000  0.5071990000000 1.0
C      1  0.4806800000000  0.5298980000000  0.4845470000000 1.0
C      1  0.5246890000000  0.5596760000000  0.4367330000000 1.0
C      1  0.5492960000000  0.5729300000000  0.5440580000000 1.0
C      1  0.4504360000000  0.4524260000000  0.4963580000000 1.0
C      1  0.5634870000000  0.5711500000000  0.4712020000000 1.0
C      1  0.5373140000000  0.5153360000000  0.5514520000000 1.0
C      1  0.5007780000000  0.6062210000000  0.4747620000000 1.0
C      1  0.5331230000000  0.5745210000000  0.5739290000000 1.0
C      1  0.4561770000000  0.3971570000000  0.4836130000000 1.0
C      1  0.5615160000000  0.5296890000000  0.5697700000000 1.0
C      1  0.5040030000000  0.5364340000000  0.5570840000000 1.0
C      1  0.5425260000000  0.5244340000000  0.5224020000000 1.0
C      1  0.4399940000000  0.4243840000000  0.5278110000000 1.0
C      1  0.5091730000000  0.5880680000000  0.4472340000000 1.0
C      1  0.4293930000000  0.5302190000000  0.5257170000000 1.0
C      1  0.4137840000000  0.5545200000000  0.4783630000000 1.0
C      1  0.5016590000000  0.4086410000000  0.4551230000000 1.0
C      1  0.5934200000000  0.5284870000000  0.5459170000000 1.0
C      1  0.4448170000000  0.5896290000000  0.4543540000000 1.0
C      1  0.4343950000000  0.5525790000000  0.4297950000000 1.0
C      1  0.4984780000000  0.4980140000000  0.6137170000000 1.0
C      1  0.4504420000000  0.4892340000000  0.5878100000000 1.0
C      1  0.4846960000000  0.4741180000000  0.4124900000000 1.0
C      1  0.4059790000000  0.4484560000000  0.4887700000000 1.0
C      1  0.4906220000000  0.5741140000000  0.4223890000000 1.0
C      1  0.5799620000000  0.4242660000000  0.5040530000000 1.0
C      1  0.5700730000000  0.4497760000000  0.5437480000000 1.0
C      1  0.5188880000000  0.4464530000000  0.4116870000000 1.0
C      1  0.4371200000000  0.5124580000000  0.4595140000000 1.0
C      1  0.3949020000000  0.4860760000000  0.4485640000000 1.0
C      1  0.5506500000000  0.5037120000000  0.5872050000000 1.0
C      1  0.4095090000000  0.5270500000000  0.4983070000000 1.0
C      1  0.4254590000000  0.5694630000000  0.4497690000000 1.0
C      1  0.4029990000000  0.4394020000000  0.4623680000000 1.0
C      1  0.5677350000000  0.4921490000000  0.5108850000000 1.0
C      1  0.4822870000000  0.5161580000000  0.5919370000000 1.0
C      1  0.5506170000000  0.5991510000000  0.5018240000000 1.0
C      1  0.4534080000000  0.4779190000000  0.4135700000000 1.0
C      1  0.5168210000000  0.5138770000000  0.5071620000000 1.0
C      1  0.4176140000000  0.4372410000000  0.5166930000000 1.0
C      1  0.5283420000000  0.4057970000000  0.4600440000000 1.0
C      1  0.4739810000000  0.5602350000000  0.4596340000000 1.0
C      1  0.4971650000000  0.5867830000000  0.5515140000000 1.0
C      1  0.4756490000000  0.6042280000000  0.4977550000000 1.0
C      1  0.4530810000000  0.5485350000000  0.6029830000000 1.0
C      1  0.5309660000000  0.5007580000000  0.4419630000000 1.0
C      1  0.5432590000000  0.4748180000000  0.5136160000000 1.0
C      1  0.4838600000000  0.4150500000000  0.5060490000000 1.0
C      1  0.5052250000000  0.5595650000000  0.5327850000000 1.0
C      1  0.4427120000000  0.5197820000000  0.5880770000000 1.0
C      1  0.5075440000000  0.4888030000000  0.5237220000000 1.0
C      1  0.4918410000000  0.4534270000000  0.4827300000000 1.0
C      1  0.5717950000000  0.5338950000000  0.4371950000000 1.0
C      1  0.5647130000000  0.4836070000000  0.5679780000000 1.0
C      1  0.4781070000000  0.4987860000000  0.4466780000000 1.0
C      1  0.4661970000000  0.4867680000000  0.6140730000000 1.0
C      1  0.4817320000000  0.4253580000000  0.5859250000000 1.0
C      1  0.5121720000000  0.5280970000000  0.4344990000000 1.0
C      1  0.5142610000000  0.5555700000000  0.4057500000000 1.0
C      1  0.5778510000000  0.4898190000000  0.4224430000000 1.0
C      1  0.4186970000000  0.5810530000000  0.4985890000000 1.0
C      1  0.4848290000000  0.5491830000000  0.5996270000000 1.0
C      1  0.5625390000000  0.4638050000000  0.4648600000000 1.0
C      1  0.5641670000000  0.5397160000000  0.4650560000000 1.0
C      1  0.4869640000000  0.4832350000000  0.4972290000000 1.0
C      1  0.4499630000000  0.5034450000000  0.4299710000000 1.0
C      1  0.5128990000000  0.4953210000000  0.5523740000000 1.0
C      1  0.5762700000000  0.5588860000000  0.5002350000000 1.0
C      1  0.4706330000000  0.5294430000000  0.4077800000000 1.0
C      1  0.4775660000000  0.4689050000000  0.4591060000000 1.0
C      1  0.4256480000000  0.4760310000000  0.5724840000000 1.0
C      1  0.5900360000000  0.4603350000000  0.4349900000000 1.0
C      1  0.4889990000000  0.4452970000000  0.3990670000000 1.0
C      1  0.5731830000000  0.4390200000000  0.4257680000000 1.0
C      1  0.5325120000000  0.6139130000000  0.4842520000000 1.0
C      1  0.4187890000000  0.4984250000000  0.5473860000000 1.0
C      1  0.4945530000000  0.4553650000000  0.5841340000000 1.0
C      1  0.5710420000000  0.5256500000000  0.5060600000000 1.0
C      1  0.4671980000000  0.4664870000000  0.5687220000000 1.0
C      1  0.5981470000000  0.5042770000000  0.4417550000000 1.0
C      1  0.5337130000000  0.3981940000000  0.5041190000000 1.0
C      1  0.4028570000000  0.5013310000000  0.5196090000000 1.0
C      1  0.6058650000000  0.5637180000000  0.4841940000000 1.0
C      1  0.5860740000000  0.4774890000000  0.5322540000000 1.0
C      1  0.6074660000000  0.4603020000000  0.5155870000000 1.0
C      1  0.4383690000000  0.4105930000000  0.4663720000000 1.0
C      1  0.4509950000000  0.4303800000000  0.5895400000000 1.0
C      1  0.5231260000000  0.5591660000000  0.4919130000000 1.0
C      1  0.5198010000000  0.4420870000000  0.5468260000000 1.0
C      1  0.4359740000000  0.4555900000000  0.4259340000000 1.0
C      1  0.5074880000000  0.4005690000000  0.5176100000000 1.0
C      1  0.5253520000000  0.4889910000000  0.5995390000000 1.0
C      1  0.4904020000000  0.4275170000000  0.5557430000000 1.0
C      1  0.4491960000000  0.4901970000000  0.5435850000000 1.0
C      1  0.5549250000000  0.5699650000000  0.4406350000000 1.0
C      1  0.4217460000000  0.5692830000000  0.5270090000000 1.0
C      1  0.4117740000000  0.4127550000000  0.4584420000000 1.0
C      1  0.4942490000000  0.4039580000000  0.6029930000000 1.0
C      1  0.5195200000000  0.4714910000000  0.5738060000000 1.0
C      1  0.4502030000000  0.5621790000000  0.5137950000000 1.0
C      1  0.4265910000000  0.5261630000000  0.4318150000000 1.0
C      1  0.4457410000000  0.4703010000000  0.4614820000000 1.0
C      1  0.4175170000000  0.5494770000000  0.5493700000000 1.0
C      1  0.4625480000000  0.5347090000000  0.5196490000000 1.0
C      1  0.4691010000000  0.5870850000000  0.5499670000000 1.0
C      1  0.5061770000000  0.4586030000000  0.5219160000000 1.0
C      1  0.5788220000000  0.4612690000000  0.5843580000000 1.0
C      1  0.3942950000000  0.5050960000000  0.4772580000000 1.0
C      1  0.5346840000000  0.5538730000000  0.5203870000000 1.0
C      1  0.5236250000000  0.5064580000000  0.4746780000000 1.0
C      1  0.5095070000000  0.5614550000000  0.5794410000000 1.0
C      1  0.5516060000000  0.4975300000000  0.4017700000000 1.0
C      1  0.4506260000000  0.4380030000000  0.4666480000000 1.0
C      1  0.5781210000000  0.4890030000000  0.4818870000000 1.0
C      1  0.4795400000000  0.5172080000000  0.5433400000000 1.0
C      1  0.4563890000000  0.5667940000000  0.5642450000000 1.0
C      1  0.5351570000000  0.4438500000000  0.5165420000000 1.0
C      1  0.4911910000000  0.5032050000000  0.4742990000000 1.0
C      1  0.5243820000000  0.5944290000000  0.5354480000000 1.0
C      1  0.4652360000000  0.5350070000000  0.5678530000000 1.0
END
