TITL C-2847952-8118-159 0.0199218838122896 125000 -154.618797913521 0 0 28 (C1) n - 1
REM
REM in /home/bkarasulu/work/CARBON/AIRSS/Generating-Clusters/AIREBO/with-SteepDescent/Only-C1/SD-CG-opt/Try1-1.4A-POS3A/HFTN-CG
REM
REM
REM
REM
REM
REM ./C.cell (11c1c37f851c82e70ff6c80c92926a4b)
REM
REM compiler GCC version 9.2.1 20190827 (Red Hat 9.2.1-1)
REM options -cpp -mtune=generic -march=x86-64 -g -O0 -fpre-include=/usr/include/finclude/math-vector-fortran.h
REM seed 1510686392 -2119440174 -1345923557 573550403 -743742491 -161855545 1871422551 -1418312961 2131404142 1919981071 -338524443 -1399841190 1314629230 -526473092 562446198 638142797 -1080440556 676145934 -2114316371 -2133732084 444604304 1583292878 -1859589891 -2054346568 -1579762999 2046117046 -1167746186 1002716325 2109218604 1971049171 -420857436 -162714914 -2034132885
REM
CELL 1.54180   50.00000   50.00000   50.00000   90.00000   90.00000   90.00000
LATT -1
SFAC C  
C      1  0.4967730000000  0.5125840000000  0.4899880000000 1.0
C      1  0.5250290000000  0.4723210000000  0.5561920000000 1.0
C      1  0.5266500000000  0.5125280000000  0.4844710000000 1.0
C      1  0.4352500000000  0.4900360000000  0.5292420000000 1.0
C      1  0.4597400000000  0.4963540000000  0.4348110000000 1.0
C      1  0.5365260000000  0.5548040000000  0.5602200000000 1.0
C      1  0.4902570000000  0.5237920000000  0.5185790000000 1.0
C      1  0.5408180000000  0.4645610000000  0.5042890000000 1.0
C      1  0.5546890000000  0.5707000000000  0.4368710000000 1.0
C      1  0.4719660000000  0.5193300000000  0.4430600000000 1.0
C      1  0.5382340000000  0.4852880000000  0.5301320000000 1.0
C      1  0.4835040000000  0.4846130000000  0.4941360000000 1.0
C      1  0.4423590000000  0.4653040000000  0.5118340000000 1.0
C      1  0.4680260000000  0.4847900000000  0.5210760000000 1.0
C      1  0.4635590000000  0.4709710000000  0.4437470000000 1.0
C      1  0.5367400000000  0.5315040000000  0.4673280000000 1.0
C      1  0.4687180000000  0.4605690000000  0.4712770000000 1.0
C      1  0.4809020000000  0.5268990000000  0.4674370000000 1.0
C      1  0.5016510000000  0.4804220000000  0.5622010000000 1.0
C      1  0.4982620000000  0.4573030000000  0.4834620000000 1.0
C      1  0.4874190000000  0.4992210000000  0.5400560000000 1.0
C      1  0.5282500000000  0.5314010000000  0.5518030000000 1.0
C      1  0.4457780000000  0.4512700000000  0.4894010000000 1.0
C      1  0.4883520000000  0.5489820000000  0.5249180000000 1.0
C      1  0.5197780000000  0.5089380000000  0.5409770000000 1.0
C      1  0.5419680000000  0.4950520000000  0.4982880000000 1.0
C      1  0.5467390000000  0.5514800000000  0.4528180000000 1.0
C      1  0.5220610000000  0.4489820000000  0.4913870000000 1.0
END
