TITL C-2847958-8115-768 0.159968730102039 125000 -337.66174570907 0 0 63 (C1) n - 1
REM
REM in /home/bkarasulu/work/CARBON/AIRSS/Generating-Clusters/AIREBO/with-SteepDescent/Only-C1/SD-CG-opt/Try1-1.4A-POS3A/HFTN-CG
REM
REM
REM
REM
REM
REM ./C.cell (11c1c37f851c82e70ff6c80c92926a4b)
REM
REM compiler GCC version 9.2.1 20190827 (Red Hat 9.2.1-1)
REM options -cpp -mtune=generic -march=x86-64 -g -O0 -fpre-include=/usr/include/finclude/math-vector-fortran.h
REM seed -361695815 -803623799 -955572958 -835256780 1381930247 1548957167 1707904794 -445388701 2004180906 -1918036435 -41975452 -440188326 -1154183135 -592242452 -1082753513 251371146 1138972127 1279390078 1884288185 110160166 -1207321991 -1741398585 -370667867 -687176674 -1333421438 -746370734 607869104 -952696583 1909120937 829428202 493109555 1085206968 -851603258
REM
CELL 1.54180   50.00000   50.00000   50.00000   90.00000   90.00000   90.00000
LATT -1
SFAC C  
C      1  0.4982330000000  0.5290190000000  0.5170200000000 1.0
C      1  0.4817620000000  0.5616840000000  0.4577700000000 1.0
C      1  0.5464350000000  0.4377580000000  0.4657080000000 1.0
C      1  0.5179130000000  0.5183920000000  0.5763060000000 1.0
C      1  0.4531470000000  0.5068840000000  0.4797030000000 1.0
C      1  0.5055900000000  0.4617460000000  0.4578020000000 1.0
C      1  0.5813150000000  0.4867700000000  0.4770500000000 1.0
C      1  0.4221480000000  0.4999570000000  0.4854780000000 1.0
C      1  0.4526550000000  0.4997100000000  0.4462750000000 1.0
C      1  0.5052800000000  0.5602290000000  0.5285800000000 1.0
C      1  0.4711420000000  0.5102910000000  0.5085650000000 1.0
C      1  0.5983810000000  0.4668020000000  0.4854450000000 1.0
C      1  0.5625960000000  0.4337950000000  0.4893940000000 1.0
C      1  0.5434060000000  0.5536240000000  0.4712780000000 1.0
C      1  0.4900250000000  0.4812850000000  0.4685490000000 1.0
C      1  0.5554450000000  0.4931150000000  0.5223120000000 1.0
C      1  0.4575230000000  0.5546840000000  0.5275080000000 1.0
C      1  0.5503330000000  0.5358040000000  0.5409760000000 1.0
C      1  0.4294320000000  0.4786550000000  0.5316750000000 1.0
C      1  0.4428330000000  0.4297420000000  0.5124710000000 1.0
C      1  0.5245290000000  0.5762720000000  0.4982530000000 1.0
C      1  0.5179060000000  0.5133780000000  0.4939700000000 1.0
C      1  0.4894530000000  0.5191030000000  0.5483530000000 1.0
C      1  0.5449440000000  0.4661700000000  0.4523800000000 1.0
C      1  0.5140940000000  0.5284920000000  0.4442310000000 1.0
C      1  0.4809720000000  0.5697030000000  0.5372630000000 1.0
C      1  0.4565360000000  0.4962010000000  0.5423460000000 1.0
C      1  0.4794940000000  0.5050170000000  0.4344330000000 1.0
C      1  0.5171280000000  0.5530760000000  0.4412150000000 1.0
C      1  0.5203110000000  0.4568220000000  0.5071470000000 1.0
C      1  0.4305600000000  0.5358860000000  0.4995450000000 1.0
C      1  0.4234750000000  0.4930410000000  0.4568750000000 1.0
C      1  0.4671120000000  0.4211010000000  0.5007590000000 1.0
C      1  0.4424980000000  0.5266500000000  0.5364900000000 1.0
C      1  0.4930710000000  0.4364430000000  0.5068960000000 1.0
C      1  0.4557490000000  0.5400540000000  0.4821090000000 1.0
C      1  0.5020400000000  0.4987930000000  0.5803770000000 1.0
C      1  0.5198190000000  0.5754060000000  0.4642500000000 1.0
C      1  0.5193040000000  0.4455870000000  0.4750690000000 1.0
C      1  0.5021060000000  0.4923760000000  0.4229250000000 1.0
C      1  0.5010260000000  0.5094800000000  0.4678340000000 1.0
C      1  0.4683590000000  0.4782770000000  0.4856740000000 1.0
C      1  0.4775290000000  0.5510580000000  0.5014230000000 1.0
C      1  0.5535670000000  0.4840290000000  0.4732570000000 1.0
C      1  0.5351370000000  0.4864880000000  0.4986770000000 1.0
C      1  0.5469980000000  0.4374660000000  0.5130040000000 1.0
C      1  0.5509680000000  0.4267380000000  0.5377960000000 1.0
C      1  0.4357840000000  0.4543210000000  0.5226520000000 1.0
C      1  0.5366280000000  0.5384900000000  0.4930320000000 1.0
C      1  0.4904580000000  0.4476730000000  0.5535700000000 1.0
C      1  0.4219850000000  0.5078730000000  0.5169180000000 1.0
C      1  0.4763180000000  0.5301320000000  0.4569130000000 1.0
C      1  0.5200510000000  0.4729500000000  0.4346860000000 1.0
C      1  0.5092800000000  0.4674520000000  0.5376270000000 1.0
C      1  0.4724640000000  0.4783690000000  0.5181680000000 1.0
C      1  0.4874270000000  0.4875010000000  0.5538650000000 1.0
C      1  0.5899390000000  0.4406580000000  0.4883620000000 1.0
C      1  0.4751340000000  0.4500360000000  0.5270350000000 1.0
C      1  0.4939870000000  0.5725330000000  0.4861720000000 1.0
C      1  0.5663270000000  0.5149190000000  0.5346360000000 1.0
C      1  0.5365730000000  0.5545020000000  0.5198730000000 1.0
C      1  0.5214150000000  0.5280860000000  0.5454460000000 1.0
C      1  0.4659490000000  0.5314490000000  0.5586300000000 1.0
END
