TITL C-2847956-8218-727 -0.00119422209669393 125000 -974.421555306942 0 0 181 (C1) n - 1
REM
REM in /home/bkarasulu/work/CARBON/AIRSS/Generating-Clusters/AIREBO/with-SteepDescent/Only-C1/SD-CG-opt/Try1-1.4A-POS3A/HFTN-CG
REM
REM
REM
REM
REM
REM ./C.cell (11c1c37f851c82e70ff6c80c92926a4b)
REM
REM compiler GCC version 9.2.1 20190827 (Red Hat 9.2.1-1)
REM options -cpp -mtune=generic -march=x86-64 -g -O0 -fpre-include=/usr/include/finclude/math-vector-fortran.h
REM seed -1874087304 -1271818642 -1314760419 1920689920 1356722601 -1988784929 2040715556 1438422678 1253107690 -928459352 1686703647 342928200 -28586372 1940066477 468190249 652654691 -810910060 -262723848 -1514749657 -643234673 120390131 -333485400 1647455622 -2081797736 -1344343552 -1803343503 83493269 -924603731 1504077220 976700862 -866397876 237141210 -1201242932
REM
CELL 1.54180   50.00000   50.00000   50.00000   90.00000   90.00000   90.00000
LATT -1
SFAC C  
C      1  0.4526020000000  0.4590410000000  0.5607280000000 1.0
C      1  0.4303070000000  0.4693640000000  0.5098590000000 1.0
C      1  0.4231780000000  0.5159560000000  0.4885880000000 1.0
C      1  0.4697890000000  0.4860530000000  0.5845920000000 1.0
C      1  0.4476540000000  0.5758900000000  0.5426360000000 1.0
C      1  0.5316100000000  0.5420190000000  0.4785720000000 1.0
C      1  0.4885950000000  0.5268600000000  0.3906120000000 1.0
C      1  0.5928000000000  0.4499380000000  0.4852930000000 1.0
C      1  0.3834230000000  0.5473800000000  0.4674460000000 1.0
C      1  0.4234180000000  0.4972080000000  0.5884810000000 1.0
C      1  0.4420280000000  0.5780540000000  0.4576300000000 1.0
C      1  0.5223550000000  0.5370550000000  0.6086890000000 1.0
C      1  0.5569910000000  0.4309010000000  0.5500650000000 1.0
C      1  0.4556680000000  0.5513760000000  0.4682540000000 1.0
C      1  0.5043620000000  0.5191900000000  0.4963480000000 1.0
C      1  0.5921680000000  0.5074200000000  0.5106940000000 1.0
C      1  0.5111890000000  0.5748680000000  0.5457370000000 1.0
C      1  0.4439420000000  0.5266630000000  0.5418040000000 1.0
C      1  0.4245850000000  0.5960520000000  0.5057430000000 1.0
C      1  0.4370610000000  0.5563220000000  0.4319440000000 1.0
C      1  0.5320700000000  0.5241780000000  0.4302020000000 1.0
C      1  0.5740600000000  0.5585230000000  0.4491880000000 1.0
C      1  0.5382110000000  0.4932670000000  0.5174470000000 1.0
C      1  0.4854600000000  0.5439770000000  0.4416310000000 1.0
C      1  0.4971390000000  0.5891450000000  0.4660260000000 1.0
C      1  0.4423760000000  0.4739550000000  0.5898820000000 1.0
C      1  0.5803900000000  0.5535480000000  0.4801750000000 1.0
C      1  0.4821690000000  0.4474730000000  0.5616960000000 1.0
C      1  0.4213480000000  0.5044460000000  0.4560800000000 1.0
C      1  0.5185000000000  0.5505290000000  0.5667980000000 1.0
C      1  0.4977020000000  0.5236540000000  0.5673380000000 1.0
C      1  0.4920860000000  0.4644350000000  0.5339360000000 1.0
C      1  0.5896660000000  0.5303130000000  0.5688440000000 1.0
C      1  0.4385690000000  0.5228220000000  0.4250090000000 1.0
C      1  0.5802860000000  0.5509430000000  0.5364850000000 1.0
C      1  0.5976710000000  0.4999880000000  0.5631550000000 1.0
C      1  0.5140030000000  0.4774910000000  0.5995330000000 1.0
C      1  0.4805700000000  0.3895330000000  0.5330560000000 1.0
C      1  0.4513870000000  0.5515860000000  0.5010070000000 1.0
C      1  0.4683410000000  0.5640800000000  0.4310480000000 1.0
C      1  0.4039610000000  0.5507380000000  0.4921680000000 1.0
C      1  0.4839710000000  0.5640080000000  0.4822360000000 1.0
C      1  0.4500960000000  0.5190320000000  0.5092200000000 1.0
C      1  0.5562310000000  0.4479330000000  0.4443430000000 1.0
C      1  0.4764700000000  0.5093840000000  0.4241870000000 1.0
C      1  0.5600010000000  0.5305780000000  0.4899410000000 1.0
C      1  0.4434450000000  0.4078120000000  0.5572000000000 1.0
C      1  0.5277400000000  0.5711460000000  0.5207710000000 1.0
C      1  0.5096730000000  0.4274120000000  0.5287400000000 1.0
C      1  0.4039130000000  0.5254750000000  0.5149370000000 1.0
C      1  0.5096680000000  0.5213990000000  0.5355880000000 1.0
C      1  0.5653210000000  0.4951190000000  0.5980890000000 1.0
C      1  0.4675650000000  0.4812750000000  0.4404280000000 1.0
C      1  0.5328830000000  0.4397270000000  0.4263640000000 1.0
C      1  0.5647580000000  0.5742420000000  0.5554860000000 1.0
C      1  0.4762480000000  0.4237880000000  0.4525560000000 1.0
C      1  0.5454980000000  0.5222520000000  0.6035720000000 1.0
C      1  0.4694830000000  0.3981660000000  0.5584410000000 1.0
C      1  0.5355350000000  0.5832710000000  0.4274480000000 1.0
C      1  0.5276650000000  0.5382520000000  0.5121630000000 1.0
C      1  0.5487120000000  0.4810480000000  0.4907840000000 1.0
C      1  0.5590530000000  0.4328410000000  0.4723180000000 1.0
C      1  0.5429880000000  0.5667320000000  0.4048870000000 1.0
C      1  0.4477450000000  0.5260400000000  0.4555350000000 1.0
C      1  0.4034880000000  0.5497640000000  0.5347620000000 1.0
C      1  0.4326240000000  0.4327010000000  0.5686800000000 1.0
C      1  0.5225140000000  0.5913590000000  0.4968380000000 1.0
C      1  0.4840400000000  0.4157570000000  0.5116930000000 1.0
C      1  0.4698240000000  0.4467030000000  0.4204930000000 1.0
C      1  0.5865940000000  0.5345500000000  0.4287450000000 1.0
C      1  0.4548980000000  0.4050860000000  0.4669220000000 1.0
C      1  0.5733060000000  0.4567230000000  0.5650030000000 1.0
C      1  0.4534390000000  0.4555200000000  0.4891250000000 1.0
C      1  0.4593530000000  0.5270330000000  0.4007000000000 1.0
C      1  0.3906320000000  0.5157880000000  0.4787160000000 1.0
C      1  0.5479190000000  0.4068950000000  0.4738430000000 1.0
C      1  0.4076050000000  0.4398060000000  0.5236060000000 1.0
C      1  0.5253460000000  0.5705810000000  0.4710860000000 1.0
C      1  0.5825380000000  0.4823000000000  0.5772890000000 1.0
C      1  0.5669290000000  0.4786540000000  0.4470440000000 1.0
C      1  0.4309960000000  0.4897280000000  0.4269860000000 1.0
C      1  0.5228060000000  0.4627200000000  0.4785410000000 1.0
C      1  0.4521890000000  0.4430480000000  0.4574810000000 1.0
C      1  0.3805480000000  0.5626480000000  0.5417450000000 1.0
C      1  0.4925470000000  0.5358600000000  0.4728950000000 1.0
C      1  0.5227540000000  0.5893890000000  0.5740680000000 1.0
C      1  0.4613570000000  0.4907080000000  0.5519780000000 1.0
C      1  0.5172440000000  0.4667720000000  0.5567200000000 1.0
C      1  0.4670350000000  0.4968640000000  0.4897530000000 1.0
C      1  0.4732700000000  0.5130880000000  0.4638650000000 1.0
C      1  0.5888680000000  0.5025500000000  0.4394140000000 1.0
C      1  0.5934410000000  0.4292970000000  0.5123490000000 1.0
C      1  0.4997280000000  0.5032440000000  0.4482210000000 1.0
C      1  0.4845380000000  0.4169720000000  0.4215050000000 1.0
C      1  0.4195500000000  0.4958350000000  0.5207790000000 1.0
C      1  0.4890970000000  0.4658430000000  0.4572520000000 1.0
C      1  0.4742100000000  0.5044480000000  0.5282850000000 1.0
C      1  0.4465770000000  0.5977010000000  0.5239050000000 1.0
C      1  0.5007720000000  0.3982130000000  0.4878520000000 1.0
C      1  0.5643490000000  0.5027120000000  0.4709380000000 1.0
C      1  0.4114200000000  0.4775940000000  0.5648490000000 1.0
C      1  0.5754510000000  0.4609830000000  0.5312840000000 1.0
C      1  0.5468270000000  0.4017720000000  0.5252080000000 1.0
C      1  0.4727140000000  0.6032320000000  0.5087390000000 1.0
C      1  0.4954300000000  0.4176470000000  0.5571480000000 1.0
C      1  0.4934840000000  0.4754890000000  0.4901240000000 1.0
C      1  0.5301240000000  0.4425810000000  0.5062100000000 1.0
C      1  0.5249430000000  0.5152260000000  0.4622250000000 1.0
C      1  0.5028470000000  0.5305630000000  0.4195190000000 1.0
C      1  0.5360790000000  0.4448560000000  0.5729590000000 1.0
C      1  0.5127170000000  0.4170980000000  0.4379990000000 1.0
C      1  0.5307270000000  0.4091110000000  0.5001740000000 1.0
C      1  0.4698330000000  0.3880440000000  0.4868250000000 1.0
C      1  0.5418210000000  0.4732770000000  0.3929500000000 1.0
C      1  0.4815020000000  0.5599390000000  0.5785340000000 1.0
C      1  0.5998370000000  0.5299640000000  0.4872250000000 1.0
C      1  0.4983500000000  0.5224030000000  0.6007060000000 1.0
C      1  0.6015990000000  0.4795010000000  0.4967670000000 1.0
C      1  0.5154370000000  0.4880460000000  0.3899490000000 1.0
C      1  0.5205320000000  0.4004110000000  0.4627870000000 1.0
C      1  0.5427700000000  0.4465100000000  0.3976660000000 1.0
C      1  0.5447690000000  0.5059260000000  0.5751800000000 1.0
C      1  0.4176810000000  0.4750080000000  0.4727590000000 1.0
C      1  0.4356060000000  0.4215090000000  0.5297890000000 1.0
C      1  0.5616730000000  0.5195970000000  0.5527610000000 1.0
C      1  0.4509600000000  0.4102220000000  0.5060610000000 1.0
C      1  0.5007390000000  0.5066320000000  0.3756230000000 1.0
C      1  0.5165840000000  0.4507130000000  0.5958280000000 1.0
C      1  0.5286550000000  0.4120870000000  0.5515900000000 1.0
C      1  0.4645010000000  0.5330820000000  0.5681380000000 1.0
C      1  0.4904220000000  0.4946100000000  0.6012720000000 1.0
C      1  0.5522900000000  0.5417960000000  0.4096760000000 1.0
C      1  0.4834430000000  0.5856650000000  0.4207400000000 1.0
C      1  0.5066540000000  0.4837830000000  0.4212740000000 1.0
C      1  0.5051710000000  0.4374680000000  0.4641150000000 1.0
C      1  0.5607350000000  0.5745810000000  0.5221270000000 1.0
C      1  0.5339210000000  0.4832650000000  0.4537800000000 1.0
C      1  0.4658210000000  0.5965040000000  0.4549720000000 1.0
C      1  0.4124060000000  0.5518740000000  0.4500980000000 1.0
C      1  0.5395970000000  0.4921960000000  0.4214400000000 1.0
C      1  0.5669290000000  0.5110310000000  0.4140280000000 1.0
C      1  0.4123950000000  0.4507390000000  0.5541290000000 1.0
C      1  0.5739340000000  0.4173260000000  0.5266500000000 1.0
C      1  0.4795330000000  0.4490490000000  0.5063290000000 1.0
C      1  0.4962780000000  0.6086820000000  0.4938440000000 1.0
C      1  0.5983390000000  0.5221360000000  0.5371010000000 1.0
C      1  0.4299030000000  0.4979840000000  0.5491720000000 1.0
C      1  0.5313590000000  0.4656710000000  0.5292350000000 1.0
C      1  0.4794570000000  0.5651510000000  0.5449960000000 1.0
C      1  0.4557730000000  0.4749280000000  0.4091700000000 1.0
C      1  0.4381220000000  0.4562490000000  0.4314330000000 1.0
C      1  0.4147670000000  0.4460150000000  0.4906380000000 1.0
C      1  0.5645760000000  0.4327880000000  0.5875180000000 1.0
C      1  0.5041980000000  0.4925550000000  0.5175190000000 1.0
C      1  0.3896100000000  0.4866160000000  0.4748830000000 1.0
C      1  0.5480490000000  0.5478280000000  0.5614120000000 1.0
C      1  0.4370680000000  0.5228050000000  0.5855210000000 1.0
C      1  0.5551960000000  0.5825840000000  0.4474430000000 1.0
C      1  0.5600300000000  0.5284120000000  0.4490940000000 1.0
C      1  0.5685730000000  0.4941400000000  0.5312860000000 1.0
C      1  0.6076500000000  0.4571340000000  0.5210440000000 1.0
C      1  0.5089540000000  0.5906110000000  0.4341720000000 1.0
C      1  0.5500250000000  0.5952920000000  0.5723910000000 1.0
C      1  0.5500970000000  0.5928970000000  0.4769240000000 1.0
C      1  0.5579280000000  0.5311530000000  0.5209960000000 1.0
C      1  0.4816230000000  0.5359160000000  0.5324870000000 1.0
C      1  0.5715350000000  0.5794670000000  0.4945030000000 1.0
C      1  0.4297030000000  0.5542640000000  0.5430630000000 1.0
C      1  0.5021090000000  0.4542000000000  0.4280770000000 1.0
C      1  0.5887580000000  0.4481440000000  0.4542630000000 1.0
C      1  0.4446680000000  0.4515920000000  0.5306290000000 1.0
C      1  0.4508150000000  0.4804660000000  0.4674040000000 1.0
C      1  0.4268160000000  0.5708100000000  0.4874430000000 1.0
C      1  0.5624470000000  0.4515140000000  0.5005470000000 1.0
C      1  0.4314040000000  0.4212110000000  0.4812960000000 1.0
C      1  0.4742830000000  0.5714330000000  0.5122050000000 1.0
C      1  0.3952760000000  0.5238050000000  0.4460030000000 1.0
C      1  0.5168080000000  0.4957780000000  0.5712680000000 1.0
C      1  0.5101470000000  0.5657820000000  0.5951700000000 1.0
C      1  0.5985550000000  0.5010140000000  0.4719710000000 1.0
C      1  0.4929580000000  0.4380450000000  0.5909370000000 1.0
END
