TITL C-2847957-7266-729 0.00191432712673112 125000 -393.947424372596 0 0 77 (C1) n - 1
REM
REM in /home/bkarasulu/work/CARBON/AIRSS/Generating-Clusters/AIREBO/with-SteepDescent/Only-C1/SD-CG-opt/Try1-1.4A-POS3A/HFTN-CG
REM
REM
REM
REM
REM
REM ./C.cell (11c1c37f851c82e70ff6c80c92926a4b)
REM
REM compiler GCC version 9.2.1 20190827 (Red Hat 9.2.1-1)
REM options -cpp -mtune=generic -march=x86-64 -g -O0 -fpre-include=/usr/include/finclude/math-vector-fortran.h
REM seed -345960060 -624493348 615095422 447777921 1717336927 521649307 954115111 1199113790 1015189610 1373957463 -1862587021 1962326222 1913333956 1636699640 -705281742 395669593 -656614403 1854738852 -161701683 -958917594 -206673972 -1155535186 1645099142 1848962334 -306548994 -1595248641 751952205 120979379 -2100605202 -1512595383 -601653782 -971569349 692668418
REM
CELL 1.54180   50.00000   50.00000   50.00000   90.00000   90.00000   90.00000
LATT -1
SFAC C  
C      1  0.4132900000000  0.5472210000000  0.4700930000000 1.0
C      1  0.5554330000000  0.4725310000000  0.5530090000000 1.0
C      1  0.4242910000000  0.5297320000000  0.5200700000000 1.0
C      1  0.5730810000000  0.5071360000000  0.4779100000000 1.0
C      1  0.4747880000000  0.4719150000000  0.5237030000000 1.0
C      1  0.5118920000000  0.4439120000000  0.4491680000000 1.0
C      1  0.5721960000000  0.4930130000000  0.5195530000000 1.0
C      1  0.5584940000000  0.5018950000000  0.4476360000000 1.0
C      1  0.5316960000000  0.5153160000000  0.4309400000000 1.0
C      1  0.5394620000000  0.4960290000000  0.5561830000000 1.0
C      1  0.5421850000000  0.4841070000000  0.4707570000000 1.0
C      1  0.4444400000000  0.5313010000000  0.5460340000000 1.0
C      1  0.5228990000000  0.4120110000000  0.4898260000000 1.0
C      1  0.4896160000000  0.4578120000000  0.4360300000000 1.0
C      1  0.5262530000000  0.5103800000000  0.5283230000000 1.0
C      1  0.5193720000000  0.4415700000000  0.4819490000000 1.0
C      1  0.4820190000000  0.4336020000000  0.5315580000000 1.0
C      1  0.4625020000000  0.4446040000000  0.4426150000000 1.0
C      1  0.4172870000000  0.5209560000000  0.4913790000000 1.0
C      1  0.5022270000000  0.5516910000000  0.5027490000000 1.0
C      1  0.4747930000000  0.5383170000000  0.5066470000000 1.0
C      1  0.4434750000000  0.5369580000000  0.4767470000000 1.0
C      1  0.4439360000000  0.4658260000000  0.4518320000000 1.0
C      1  0.5144210000000  0.4968450000000  0.4775290000000 1.0
C      1  0.5563250000000  0.5345710000000  0.4443110000000 1.0
C      1  0.5774490000000  0.4511060000000  0.4888150000000 1.0
C      1  0.4738800000000  0.4959830000000  0.5828410000000 1.0
C      1  0.4791740000000  0.4695900000000  0.5742670000000 1.0
C      1  0.5218770000000  0.5474680000000  0.4289490000000 1.0
C      1  0.5689460000000  0.5687650000000  0.4949640000000 1.0
C      1  0.5725320000000  0.5360260000000  0.4854520000000 1.0
C      1  0.4519750000000  0.5459030000000  0.5194400000000 1.0
C      1  0.4951730000000  0.5228750000000  0.5772350000000 1.0
C      1  0.5088210000000  0.4876780000000  0.5098120000000 1.0
C      1  0.4714360000000  0.4542100000000  0.5505320000000 1.0
C      1  0.5093690000000  0.4614370000000  0.5609180000000 1.0
C      1  0.4702660000000  0.5517910000000  0.4623640000000 1.0
C      1  0.4268230000000  0.4911410000000  0.4525890000000 1.0
C      1  0.4739310000000  0.4486980000000  0.4715370000000 1.0
C      1  0.5449240000000  0.4580700000000  0.4881480000000 1.0
C      1  0.5452360000000  0.5469810000000  0.4712710000000 1.0
C      1  0.4853580000000  0.4861580000000  0.4330860000000 1.0
C      1  0.4253690000000  0.4748620000000  0.5332650000000 1.0
C      1  0.5145500000000  0.4788660000000  0.5900370000000 1.0
C      1  0.4811750000000  0.5071500000000  0.5060600000000 1.0
C      1  0.5673220000000  0.5457620000000  0.5176100000000 1.0
C      1  0.5765350000000  0.4753450000000  0.4710320000000 1.0
C      1  0.5197500000000  0.5349730000000  0.5600080000000 1.0
C      1  0.4934210000000  0.5270520000000  0.4621330000000 1.0
C      1  0.4196890000000  0.4693650000000  0.4944550000000 1.0
C      1  0.4145120000000  0.4928350000000  0.4783900000000 1.0
C      1  0.5235970000000  0.4647880000000  0.5302010000000 1.0
C      1  0.5592480000000  0.5165050000000  0.5284730000000 1.0
C      1  0.4341440000000  0.4414860000000  0.4981100000000 1.0
C      1  0.4967100000000  0.4567700000000  0.5023470000000 1.0
C      1  0.4977420000000  0.6084660000000  0.5099930000000 1.0
C      1  0.4971770000000  0.5655530000000  0.4720970000000 1.0
C      1  0.5446470000000  0.5510370000000  0.5417460000000 1.0
C      1  0.4665030000000  0.5139190000000  0.4761180000000 1.0
C      1  0.5096550000000  0.4338270000000  0.5323260000000 1.0
C      1  0.4857340000000  0.4793730000000  0.4722270000000 1.0
C      1  0.4580700000000  0.5024050000000  0.4452400000000 1.0
C      1  0.4543710000000  0.4823970000000  0.4800520000000 1.0
C      1  0.5523040000000  0.5251430000000  0.5617730000000 1.0
C      1  0.4487210000000  0.4760320000000  0.5108480000000 1.0
C      1  0.5188030000000  0.5309610000000  0.4816560000000 1.0
C      1  0.5828780000000  0.4424430000000  0.5165870000000 1.0
C      1  0.4585080000000  0.5340460000000  0.4397950000000 1.0
C      1  0.5156940000000  0.5420720000000  0.5277530000000 1.0
C      1  0.5073270000000  0.5040680000000  0.4450570000000 1.0
C      1  0.4677960000000  0.4388530000000  0.5023820000000 1.0
C      1  0.5073440000000  0.4953800000000  0.5611950000000 1.0
C      1  0.4666360000000  0.5182910000000  0.5593190000000 1.0
C      1  0.4834570000000  0.4983060000000  0.5386630000000 1.0
C      1  0.5209510000000  0.5599800000000  0.4542920000000 1.0
C      1  0.5000180000000  0.5854920000000  0.4996390000000 1.0
C      1  0.5561020000000  0.4630670000000  0.5203530000000 1.0
END
