TITL C-2847954-6904-667 -0.000620905252569876 125000 -590.188964896006 0 0 108 (C1) n - 1
REM
REM in /home/bkarasulu/work/CARBON/AIRSS/Generating-Clusters/AIREBO/with-SteepDescent/Only-C1/SD-CG-opt/Try1-1.4A-POS3A/HFTN-CG
REM
REM
REM
REM
REM
REM ./C.cell (11c1c37f851c82e70ff6c80c92926a4b)
REM
REM compiler GCC version 9.2.1 20190827 (Red Hat 9.2.1-1)
REM options -cpp -mtune=generic -march=x86-64 -g -O0 -fpre-include=/usr/include/finclude/math-vector-fortran.h
REM seed -914553082 955478280 -1488136423 1090364724 945875273 -1513318146 -1255630173 -865869262 -1500460497 -1954174369 -897557153 1626720538 2121024932 -1457536822 -1325755390 -1302080093 -1972874394 -710840018 1067378503 564790702 -665274697 719913666 -1372059822 -1226615076 2081049907 1201616772 473146101 1459682517 -70824998 -992972987 245976131 -1814776250 -1594732911
REM
CELL 1.54180   50.00000   50.00000   50.00000   90.00000   90.00000   90.00000
LATT -1
SFAC C  
C      1  0.5576960000000  0.4753430000000  0.5548150000000 1.0
C      1  0.4023120000000  0.4326170000000  0.5451790000000 1.0
C      1  0.4614450000000  0.5361120000000  0.5317150000000 1.0
C      1  0.5365670000000  0.5204550000000  0.5677230000000 1.0
C      1  0.4922470000000  0.4705870000000  0.5599340000000 1.0
C      1  0.4899170000000  0.5123170000000  0.4024520000000 1.0
C      1  0.4846030000000  0.4516730000000  0.4696610000000 1.0
C      1  0.5222350000000  0.5079700000000  0.5394570000000 1.0
C      1  0.5117230000000  0.5863120000000  0.5392850000000 1.0
C      1  0.4217970000000  0.5496820000000  0.5930350000000 1.0
C      1  0.4719620000000  0.4968820000000  0.5820350000000 1.0
C      1  0.5930160000000  0.5131450000000  0.5113130000000 1.0
C      1  0.4470390000000  0.5090900000000  0.4089310000000 1.0
C      1  0.4851820000000  0.4863330000000  0.5092200000000 1.0
C      1  0.4607470000000  0.5876320000000  0.4997310000000 1.0
C      1  0.5385810000000  0.4565070000000  0.5635480000000 1.0
C      1  0.4519700000000  0.4807300000000  0.4512460000000 1.0
C      1  0.4932870000000  0.4336420000000  0.5468440000000 1.0
C      1  0.4214730000000  0.5109210000000  0.4829210000000 1.0
C      1  0.5040930000000  0.4080270000000  0.5443510000000 1.0
C      1  0.4705680000000  0.5238250000000  0.4262630000000 1.0
C      1  0.5056500000000  0.5421450000000  0.5113800000000 1.0
C      1  0.5000790000000  0.4950290000000  0.5901910000000 1.0
C      1  0.5360830000000  0.4926680000000  0.4054480000000 1.0
C      1  0.5206430000000  0.5180990000000  0.4156020000000 1.0
C      1  0.4427800000000  0.5227410000000  0.5066310000000 1.0
C      1  0.5464300000000  0.4048530000000  0.4939460000000 1.0
C      1  0.4609400000000  0.4228190000000  0.4840640000000 1.0
C      1  0.5385920000000  0.5661700000000  0.5339540000000 1.0
C      1  0.4940790000000  0.5751050000000  0.4621010000000 1.0
C      1  0.5073920000000  0.5725910000000  0.5098070000000 1.0
C      1  0.5575660000000  0.4884310000000  0.4247380000000 1.0
C      1  0.5258670000000  0.4834770000000  0.5200300000000 1.0
C      1  0.5061290000000  0.4500050000000  0.4433860000000 1.0
C      1  0.5192950000000  0.4961170000000  0.4911680000000 1.0
C      1  0.5457370000000  0.5487940000000  0.5053830000000 1.0
C      1  0.5062220000000  0.5736260000000  0.5844180000000 1.0
C      1  0.4588810000000  0.5211920000000  0.5621830000000 1.0
C      1  0.4386820000000  0.5366740000000  0.5790120000000 1.0
C      1  0.4663460000000  0.4504800000000  0.5561680000000 1.0
C      1  0.4335190000000  0.5080280000000  0.4566580000000 1.0
C      1  0.4180710000000  0.4531680000000  0.5384780000000 1.0
C      1  0.4279680000000  0.4991590000000  0.5497760000000 1.0
C      1  0.4556010000000  0.4658280000000  0.4803950000000 1.0
C      1  0.5341880000000  0.5935730000000  0.5145390000000 1.0
C      1  0.4992550000000  0.4569870000000  0.4992830000000 1.0
C      1  0.4104690000000  0.4805600000000  0.5354930000000 1.0
C      1  0.5931430000000  0.5206880000000  0.5386640000000 1.0
C      1  0.4978250000000  0.5668210000000  0.4311300000000 1.0
C      1  0.4722300000000  0.5630740000000  0.5494070000000 1.0
C      1  0.5696720000000  0.5316690000000  0.5484320000000 1.0
C      1  0.4888740000000  0.5852610000000  0.4904580000000 1.0
C      1  0.5351920000000  0.4465830000000  0.4493160000000 1.0
C      1  0.5171840000000  0.5173560000000  0.5915100000000 1.0
C      1  0.5455050000000  0.5274520000000  0.5297550000000 1.0
C      1  0.4281510000000  0.4523830000000  0.4654860000000 1.0
C      1  0.5237810000000  0.5281690000000  0.4911340000000 1.0
C      1  0.5108130000000  0.4145990000000  0.4927170000000 1.0
C      1  0.5163790000000  0.4740340000000  0.3961270000000 1.0
C      1  0.4672500000000  0.4404800000000  0.4356170000000 1.0
C      1  0.4387690000000  0.5601300000000  0.4456450000000 1.0
C      1  0.5688250000000  0.5448330000000  0.4831070000000 1.0
C      1  0.5254080000000  0.5823360000000  0.4552660000000 1.0
C      1  0.4671370000000  0.5544670000000  0.5036520000000 1.0
C      1  0.4539210000000  0.4764380000000  0.5126100000000 1.0
C      1  0.5675370000000  0.4263440000000  0.5041100000000 1.0
C      1  0.5459130000000  0.5717500000000  0.4463140000000 1.0
C      1  0.5462020000000  0.5516310000000  0.5613900000000 1.0
C      1  0.5090720000000  0.5266750000000  0.4605090000000 1.0
C      1  0.4249570000000  0.4938710000000  0.5103040000000 1.0
C      1  0.5592530000000  0.5033370000000  0.4820010000000 1.0
C      1  0.5303140000000  0.4558560000000  0.4885770000000 1.0
C      1  0.4324930000000  0.4933290000000  0.4271860000000 1.0
C      1  0.5415790000000  0.5173000000000  0.4571100000000 1.0
C      1  0.5331060000000  0.5673090000000  0.5851100000000 1.0
C      1  0.4503790000000  0.4328820000000  0.4586240000000 1.0
C      1  0.5595180000000  0.5446650000000  0.4516590000000 1.0
C      1  0.4934390000000  0.5760370000000  0.5595050000000 1.0
C      1  0.4820690000000  0.4277150000000  0.5014460000000 1.0
C      1  0.5001370000000  0.5381810000000  0.4304510000000 1.0
C      1  0.5393930000000  0.4800290000000  0.4708120000000 1.0
C      1  0.4806460000000  0.4717430000000  0.4353420000000 1.0
C      1  0.5597920000000  0.4986630000000  0.5685970000000 1.0
C      1  0.5333480000000  0.4347100000000  0.5392370000000 1.0
C      1  0.5584910000000  0.4769830000000  0.5233800000000 1.0
C      1  0.4368200000000  0.5681850000000  0.4957610000000 1.0
C      1  0.4462530000000  0.4523300000000  0.5335800000000 1.0
C      1  0.5157440000000  0.4674050000000  0.5779770000000 1.0
C      1  0.4909150000000  0.4211290000000  0.4338560000000 1.0
C      1  0.4590460000000  0.4969320000000  0.5392580000000 1.0
C      1  0.4971690000000  0.4957050000000  0.4530050000000 1.0
C      1  0.4868440000000  0.5021370000000  0.4825820000000 1.0
C      1  0.4913550000000  0.4974780000000  0.5471070000000 1.0
C      1  0.4898920000000  0.4820550000000  0.4049040000000 1.0
C      1  0.4522990000000  0.5334580000000  0.4496110000000 1.0
C      1  0.4861930000000  0.5460060000000  0.4766300000000 1.0
C      1  0.5498240000000  0.4487510000000  0.5130120000000 1.0
C      1  0.5109020000000  0.4552780000000  0.5288740000000 1.0
C      1  0.5512740000000  0.4704450000000  0.4440820000000 1.0
C      1  0.5260240000000  0.4072360000000  0.5204970000000 1.0
C      1  0.5744810000000  0.4931690000000  0.5034200000000 1.0
C      1  0.4621900000000  0.5226430000000  0.4803150000000 1.0
C      1  0.4957970000000  0.4188560000000  0.4652250000000 1.0
C      1  0.5526540000000  0.5223890000000  0.4263070000000 1.0
C      1  0.4586690000000  0.4723440000000  0.5810530000000 1.0
C      1  0.5925410000000  0.5348700000000  0.4924970000000 1.0
C      1  0.5424540000000  0.4292640000000  0.4732660000000 1.0
C      1  0.4880430000000  0.5180320000000  0.5215880000000 1.0
END
