TITL C-2848504-8560-552 0.000376297068562684 125000 -1049.63756403755 0 0 191 (C1) n - 1
REM
REM in /home/bkarasulu/work/CARBON/AIRSS/Generating-Clusters/AIREBO/with-SteepDescent/Only-C1/SD-CG-opt/Try1-1.4A-POS3A/HFTN-CG
REM
REM
REM
REM
REM
REM ./C.cell (11c1c37f851c82e70ff6c80c92926a4b)
REM
REM compiler GCC version 9.2.1 20190827 (Red Hat 9.2.1-1)
REM options -cpp -mtune=generic -march=x86-64 -g -O0 -fpre-include=/usr/include/finclude/math-vector-fortran.h
REM seed -1959752669 -746525460 -1422955740 -1574393380 -903963782 487482245 1892795992 753447909 -1404799235 230816891 1595742854 -609185574 1372971247 -1135491956 1204981725 1438600073 963136953 1180387880 1441915253 -1481602113 1372476950 1249408587 -255664325 324547128 -1563589685 -937482970 275915794 -1737368995 1951929746 1483511142 1748844106 -1216702671 487279496
REM
CELL 1.54180   50.00000   50.00000   50.00000   90.00000   90.00000   90.00000
LATT -1
SFAC C  
C      1  0.5183620000000  0.4758140000000  0.5465850000000 1.0
C      1  0.5824350000000  0.5220610000000  0.4290710000000 1.0
C      1  0.5270260000000  0.4322100000000  0.4943100000000 1.0
C      1  0.4979960000000  0.4289270000000  0.4768890000000 1.0
C      1  0.4950420000000  0.4002670000000  0.5781040000000 1.0
C      1  0.4229730000000  0.4400090000000  0.4604320000000 1.0
C      1  0.4547140000000  0.5514610000000  0.5009890000000 1.0
C      1  0.4368650000000  0.4928090000000  0.5967670000000 1.0
C      1  0.5685630000000  0.6079070000000  0.4929940000000 1.0
C      1  0.5230570000000  0.4925030000000  0.5201000000000 1.0
C      1  0.4898230000000  0.5880300000000  0.5108960000000 1.0
C      1  0.3867680000000  0.5021440000000  0.5626430000000 1.0
C      1  0.4584480000000  0.4965330000000  0.5046910000000 1.0
C      1  0.5551430000000  0.4403510000000  0.5115430000000 1.0
C      1  0.5565490000000  0.5333490000000  0.5593130000000 1.0
C      1  0.5308810000000  0.4027850000000  0.4676850000000 1.0
C      1  0.5348970000000  0.5587910000000  0.4494270000000 1.0
C      1  0.6117620000000  0.4528650000000  0.4773160000000 1.0
C      1  0.4653140000000  0.5525540000000  0.4713920000000 1.0
C      1  0.4431710000000  0.5929890000000  0.5308840000000 1.0
C      1  0.4978370000000  0.4297170000000  0.4145950000000 1.0
C      1  0.5536340000000  0.4875060000000  0.4048920000000 1.0
C      1  0.4825440000000  0.4512620000000  0.5685600000000 1.0
C      1  0.4084660000000  0.5191900000000  0.4831240000000 1.0
C      1  0.4517880000000  0.5986910000000  0.5049070000000 1.0
C      1  0.5639310000000  0.5209160000000  0.5900890000000 1.0
C      1  0.5392040000000  0.5634040000000  0.5091130000000 1.0
C      1  0.5414430000000  0.4578030000000  0.4094430000000 1.0
C      1  0.6033630000000  0.4310980000000  0.4942250000000 1.0
C      1  0.4802930000000  0.5000740000000  0.4829720000000 1.0
C      1  0.5429880000000  0.4053300000000  0.5581200000000 1.0
C      1  0.4278900000000  0.4576540000000  0.5508730000000 1.0
C      1  0.4723010000000  0.4061770000000  0.5607730000000 1.0
C      1  0.4596660000000  0.4815700000000  0.5351980000000 1.0
C      1  0.5627470000000  0.5896960000000  0.5451710000000 1.0
C      1  0.3778890000000  0.4632920000000  0.5209050000000 1.0
C      1  0.4056510000000  0.5268360000000  0.4527480000000 1.0
C      1  0.5262740000000  0.4473820000000  0.4363260000000 1.0
C      1  0.5335360000000  0.5433310000000  0.4072220000000 1.0
C      1  0.5457560000000  0.5115670000000  0.5154130000000 1.0
C      1  0.4481760000000  0.4051850000000  0.5023660000000 1.0
C      1  0.5558620000000  0.4957710000000  0.4908010000000 1.0
C      1  0.4905530000000  0.5305560000000  0.4425980000000 1.0
C      1  0.4705490000000  0.4376240000000  0.4214880000000 1.0
C      1  0.5842920000000  0.4340060000000  0.4349390000000 1.0
C      1  0.6029690000000  0.5199540000000  0.4969200000000 1.0
C      1  0.5394170000000  0.5908130000000  0.4936210000000 1.0
C      1  0.5683290000000  0.4222340000000  0.5442670000000 1.0
C      1  0.5304900000000  0.4532070000000  0.5293170000000 1.0
C      1  0.4580110000000  0.4628600000000  0.4999730000000 1.0
C      1  0.4943730000000  0.5347710000000  0.5728860000000 1.0
C      1  0.5776020000000  0.4900440000000  0.4577610000000 1.0
C      1  0.5470940000000  0.4466510000000  0.6111050000000 1.0
C      1  0.5542210000000  0.6075580000000  0.5230360000000 1.0
C      1  0.5446060000000  0.5887080000000  0.4540360000000 1.0
C      1  0.4920690000000  0.5644260000000  0.4887130000000 1.0
C      1  0.4598370000000  0.3926930000000  0.4687650000000 1.0
C      1  0.4216040000000  0.5591860000000  0.5004360000000 1.0
C      1  0.5380390000000  0.5388420000000  0.5943310000000 1.0
C      1  0.4954610000000  0.4269560000000  0.5485870000000 1.0
C      1  0.4482130000000  0.5865590000000  0.4594920000000 1.0
C      1  0.5691150000000  0.5167510000000  0.5324210000000 1.0
C      1  0.3696810000000  0.5207120000000  0.4923660000000 1.0
C      1  0.5925580000000  0.5135370000000  0.4726640000000 1.0
C      1  0.5132060000000  0.4166770000000  0.4421580000000 1.0
C      1  0.5099140000000  0.5623920000000  0.4166440000000 1.0
C      1  0.4853830000000  0.5837840000000  0.4236070000000 1.0
C      1  0.4440440000000  0.4243160000000  0.5252100000000 1.0
C      1  0.5807390000000  0.5383800000000  0.4588600000000 1.0
C      1  0.5315470000000  0.3993520000000  0.5017890000000 1.0
C      1  0.5997270000000  0.4631450000000  0.5321940000000 1.0
C      1  0.4919310000000  0.3999910000000  0.4628200000000 1.0
C      1  0.5051870000000  0.5365100000000  0.4985250000000 1.0
C      1  0.4572900000000  0.5687600000000  0.4319590000000 1.0
C      1  0.5707170000000  0.5896520000000  0.4689200000000 1.0
C      1  0.5005570000000  0.4788300000000  0.3806470000000 1.0
C      1  0.5489010000000  0.3997530000000  0.5266870000000 1.0
C      1  0.5399270000000  0.5140320000000  0.4093540000000 1.0
C      1  0.4468390000000  0.4144070000000  0.5554720000000 1.0
C      1  0.5806690000000  0.4913260000000  0.4149970000000 1.0
C      1  0.5195480000000  0.4617420000000  0.4833530000000 1.0
C      1  0.4586520000000  0.4989950000000  0.4015560000000 1.0
C      1  0.5058830000000  0.4348730000000  0.5216800000000 1.0
C      1  0.4188300000000  0.5089530000000  0.4306730000000 1.0
C      1  0.5337200000000  0.4667500000000  0.4582300000000 1.0
C      1  0.5201290000000  0.4197860000000  0.5701840000000 1.0
C      1  0.3985730000000  0.5536960000000  0.5323730000000 1.0
C      1  0.4735060000000  0.5566520000000  0.5988430000000 1.0
C      1  0.4914620000000  0.4797670000000  0.4134340000000 1.0
C      1  0.4325550000000  0.4621590000000  0.4364410000000 1.0
C      1  0.4207560000000  0.5737780000000  0.5310810000000 1.0
C      1  0.5897320000000  0.5403810000000  0.5569710000000 1.0
C      1  0.4091970000000  0.4974500000000  0.5389690000000 1.0
C      1  0.5278360000000  0.4953940000000  0.4491220000000 1.0
C      1  0.5701110000000  0.4892900000000  0.5987850000000 1.0
C      1  0.4744380000000  0.5236410000000  0.5980850000000 1.0
C      1  0.5877110000000  0.5329390000000  0.5155530000000 1.0
C      1  0.5728590000000  0.5587250000000  0.5065670000000 1.0
C      1  0.4753160000000  0.3874690000000  0.4969060000000 1.0
C      1  0.5570170000000  0.5449180000000  0.4276410000000 1.0
C      1  0.4386130000000  0.5216010000000  0.4986710000000 1.0
C      1  0.4172720000000  0.4784970000000  0.5729490000000 1.0
C      1  0.4577990000000  0.4477740000000  0.5888400000000 1.0
C      1  0.4378490000000  0.5453050000000  0.5633780000000 1.0
C      1  0.4576240000000  0.5285120000000  0.5330910000000 1.0
C      1  0.5810600000000  0.5645770000000  0.4772490000000 1.0
C      1  0.4139850000000  0.5119890000000  0.5804910000000 1.0
C      1  0.5012650000000  0.4854550000000  0.3561870000000 1.0
C      1  0.5107560000000  0.4548750000000  0.4006150000000 1.0
C      1  0.5282720000000  0.6241330000000  0.5147060000000 1.0
C      1  0.5092940000000  0.4968190000000  0.5685780000000 1.0
C      1  0.4438710000000  0.5187520000000  0.4166390000000 1.0
C      1  0.5177080000000  0.6004140000000  0.4692350000000 1.0
C      1  0.4902080000000  0.5380350000000  0.4033130000000 1.0
C      1  0.4597230000000  0.4686810000000  0.4169180000000 1.0
C      1  0.5698930000000  0.4453250000000  0.4087880000000 1.0
C      1  0.4074620000000  0.5553870000000  0.4463590000000 1.0
C      1  0.4094320000000  0.4786590000000  0.4243270000000 1.0
C      1  0.5110530000000  0.5288690000000  0.5307860000000 1.0
C      1  0.4262350000000  0.5236090000000  0.5288840000000 1.0
C      1  0.5281610000000  0.5043900000000  0.4775320000000 1.0
C      1  0.4861000000000  0.5276280000000  0.4749100000000 1.0
C      1  0.4842550000000  0.5187470000000  0.5464940000000 1.0
C      1  0.5587570000000  0.4701350000000  0.5377370000000 1.0
C      1  0.5133800000000  0.5229030000000  0.5984630000000 1.0
C      1  0.4088020000000  0.5340200000000  0.5551100000000 1.0
C      1  0.5367230000000  0.5332840000000  0.4935300000000 1.0
C      1  0.4911580000000  0.4900250000000  0.5316050000000 1.0
C      1  0.4299220000000  0.4541720000000  0.5170890000000 1.0
C      1  0.4653660000000  0.4798100000000  0.5954970000000 1.0
C      1  0.5488250000000  0.4311180000000  0.4682180000000 1.0
C      1  0.4821450000000  0.5866340000000  0.4572470000000 1.0
C      1  0.3747160000000  0.4979780000000  0.4821910000000 1.0
C      1  0.5760290000000  0.4209410000000  0.4570460000000 1.0
C      1  0.5511240000000  0.5404020000000  0.4668150000000 1.0
C      1  0.4688020000000  0.4358280000000  0.4506650000000 1.0
C      1  0.5304570000000  0.5150910000000  0.5520810000000 1.0
C      1  0.4372640000000  0.5836960000000  0.4850050000000 1.0
C      1  0.5035320000000  0.4694970000000  0.5855900000000 1.0
C      1  0.4801590000000  0.5817150000000  0.5407800000000 1.0
C      1  0.4516940000000  0.5716130000000  0.5559770000000 1.0
C      1  0.5868170000000  0.4368940000000  0.5197860000000 1.0
C      1  0.5871170000000  0.4888000000000  0.5396780000000 1.0
C      1  0.4657590000000  0.5389460000000  0.4242180000000 1.0
C      1  0.5591370000000  0.4484930000000  0.5639660000000 1.0
C      1  0.4796060000000  0.5718700000000  0.5739370000000 1.0
C      1  0.4793670000000  0.5522380000000  0.5244770000000 1.0
C      1  0.5060490000000  0.4883580000000  0.4945560000000 1.0
C      1  0.3926200000000  0.4363760000000  0.4714860000000 1.0
C      1  0.4021580000000  0.4724540000000  0.5242510000000 1.0
C      1  0.4391890000000  0.5485120000000  0.4521490000000 1.0
C      1  0.4403960000000  0.4186000000000  0.4720630000000 1.0
C      1  0.4999520000000  0.4998370000000  0.4375310000000 1.0
C      1  0.4938200000000  0.4958020000000  0.6051500000000 1.0
C      1  0.5660510000000  0.4695390000000  0.5037770000000 1.0
C      1  0.5045440000000  0.3864310000000  0.4913490000000 1.0
C      1  0.5507210000000  0.5851840000000  0.5695380000000 1.0
C      1  0.4396470000000  0.4957350000000  0.5540150000000 1.0
C      1  0.4440440000000  0.5193910000000  0.4654400000000 1.0
C      1  0.5537930000000  0.5070720000000  0.4396240000000 1.0
C      1  0.5071260000000  0.6135040000000  0.4987870000000 1.0
C      1  0.5628240000000  0.4622590000000  0.4707100000000 1.0
C      1  0.4817770000000  0.5133520000000  0.3898430000000 1.0
C      1  0.5120000000000  0.5605940000000  0.5295770000000 1.0
C      1  0.5290080000000  0.4471650000000  0.5823180000000 1.0
C      1  0.5085700000000  0.5618450000000  0.5626220000000 1.0
C      1  0.3931290000000  0.5407100000000  0.5037620000000 1.0
C      1  0.4760750000000  0.4954030000000  0.5698220000000 1.0
C      1  0.4306150000000  0.4899130000000  0.4562600000000 1.0
C      1  0.5933380000000  0.4648920000000  0.4239680000000 1.0
C      1  0.5931180000000  0.4108930000000  0.4771810000000 1.0
C      1  0.4600560000000  0.4499430000000  0.5429880000000 1.0
C      1  0.4915030000000  0.4593530000000  0.5047170000000 1.0
C      1  0.4534520000000  0.5206980000000  0.5719250000000 1.0
C      1  0.5856620000000  0.5079140000000  0.5673940000000 1.0
C      1  0.4554680000000  0.4727810000000  0.4682150000000 1.0
C      1  0.4971990000000  0.4518840000000  0.4518150000000 1.0
C      1  0.4119290000000  0.4567390000000  0.4883270000000 1.0
C      1  0.5998850000000  0.4649210000000  0.4564550000000 1.0
C      1  0.4842000000000  0.4795980000000  0.4568590000000 1.0
C      1  0.5023850000000  0.5592410000000  0.4567140000000 1.0
C      1  0.4666670000000  0.4347470000000  0.4836250000000 1.0
C      1  0.5810160000000  0.5670190000000  0.5363310000000 1.0
C      1  0.5157720000000  0.5907820000000  0.4361260000000 1.0
C      1  0.5345930000000  0.5635020000000  0.5788490000000 1.0
C      1  0.5634150000000  0.4639600000000  0.5930220000000 1.0
C      1  0.4058220000000  0.4855880000000  0.4785210000000 1.0
C      1  0.4373400000000  0.4353760000000  0.5723510000000 1.0
C      1  0.6109060000000  0.5638470000000  0.5522260000000 1.0
C      1  0.4779490000000  0.6051630000000  0.4841710000000 1.0
C      1  0.5551450000000  0.4938660000000  0.5620730000000 1.0
END
