TITL C-2847954-6904-114 0.00160389204669974 125000 -913.601119147497 0 0 170 (C1) n - 1
REM
REM in /home/bkarasulu/work/CARBON/AIRSS/Generating-Clusters/AIREBO/with-SteepDescent/Only-C1/SD-CG-opt/Try1-1.4A-POS3A/HFTN-CG
REM
REM
REM
REM
REM
REM ./C.cell (11c1c37f851c82e70ff6c80c92926a4b)
REM
REM compiler GCC version 9.2.1 20190827 (Red Hat 9.2.1-1)
REM options -cpp -mtune=generic -march=x86-64 -g -O0 -fpre-include=/usr/include/finclude/math-vector-fortran.h
REM seed 2110520671 -1147704172 -865640395 -936468145 2025705979 -39194559 294243688 -257669222 795958260 381197819 429655629 -365330236 1489064709 -1879331597 1988196521 -1641421815 1327648381 446369324 2140213251 -746773868 1218992883 -927657882 -1688580824 -1922065924 783852086 612128153 -522616017 -282268001 -132008056 1414033201 6096088 -4080287 -913817051
REM
CELL 1.54180   50.00000   50.00000   50.00000   90.00000   90.00000   90.00000
LATT -1
SFAC C  
C      1  0.4564220000000  0.4790740000000  0.5797580000000 1.0
C      1  0.4139200000000  0.4412890000000  0.4301560000000 1.0
C      1  0.4373640000000  0.5102160000000  0.4054130000000 1.0
C      1  0.6106310000000  0.4868660000000  0.4780320000000 1.0
C      1  0.4223500000000  0.4284100000000  0.5386220000000 1.0
C      1  0.5699930000000  0.5929550000000  0.5272400000000 1.0
C      1  0.5062150000000  0.5578330000000  0.4767370000000 1.0
C      1  0.4637770000000  0.3999320000000  0.5173050000000 1.0
C      1  0.5322840000000  0.4978220000000  0.5218340000000 1.0
C      1  0.5359930000000  0.5570610000000  0.5123980000000 1.0
C      1  0.4419590000000  0.5713790000000  0.5353710000000 1.0
C      1  0.5706870000000  0.4363270000000  0.4443330000000 1.0
C      1  0.4494300000000  0.5086160000000  0.5949670000000 1.0
C      1  0.5977040000000  0.5403960000000  0.4610530000000 1.0
C      1  0.5757420000000  0.4502940000000  0.4723310000000 1.0
C      1  0.5077410000000  0.6009990000000  0.5175220000000 1.0
C      1  0.5191250000000  0.5295440000000  0.5016740000000 1.0
C      1  0.5295220000000  0.4794500000000  0.4722310000000 1.0
C      1  0.4774730000000  0.4659280000000  0.6021990000000 1.0
C      1  0.4807210000000  0.5221330000000  0.4411630000000 1.0
C      1  0.4380300000000  0.4424560000000  0.5576640000000 1.0
C      1  0.4428330000000  0.4709390000000  0.4832480000000 1.0
C      1  0.4612650000000  0.4830800000000  0.4222040000000 1.0
C      1  0.5439320000000  0.4486470000000  0.5134180000000 1.0
C      1  0.5115630000000  0.4970890000000  0.4948690000000 1.0
C      1  0.3956710000000  0.5451030000000  0.5101850000000 1.0
C      1  0.4659180000000  0.5037380000000  0.3959880000000 1.0
C      1  0.5077180000000  0.5691450000000  0.5208300000000 1.0
C      1  0.4905420000000  0.5649600000000  0.5460880000000 1.0
C      1  0.5029610000000  0.4258200000000  0.4971360000000 1.0
C      1  0.4886030000000  0.3892000000000  0.5301440000000 1.0
C      1  0.5834770000000  0.4968970000000  0.5660060000000 1.0
C      1  0.4810280000000  0.4467280000000  0.4998100000000 1.0
C      1  0.4755050000000  0.4722240000000  0.4489760000000 1.0
C      1  0.5355300000000  0.5210890000000  0.4025550000000 1.0
C      1  0.5530430000000  0.5935000000000  0.4991120000000 1.0
C      1  0.4604440000000  0.5959050000000  0.5233380000000 1.0
C      1  0.3926280000000  0.4890640000000  0.5405940000000 1.0
C      1  0.5207960000000  0.4312460000000  0.5226500000000 1.0
C      1  0.4995540000000  0.5142090000000  0.6012620000000 1.0
C      1  0.5946920000000  0.5691680000000  0.4772860000000 1.0
C      1  0.4598030000000  0.4510000000000  0.4168230000000 1.0
C      1  0.4868320000000  0.4414540000000  0.5745570000000 1.0
C      1  0.5200880000000  0.5677300000000  0.4351690000000 1.0
C      1  0.4298090000000  0.4442050000000  0.5099620000000 1.0
C      1  0.4919010000000  0.5984780000000  0.4687160000000 1.0
C      1  0.4534890000000  0.4977410000000  0.4717850000000 1.0
C      1  0.4170820000000  0.5286870000000  0.5288330000000 1.0
C      1  0.5209760000000  0.4357790000000  0.4334440000000 1.0
C      1  0.5212260000000  0.5644850000000  0.5878250000000 1.0
C      1  0.4277320000000  0.5446960000000  0.4481900000000 1.0
C      1  0.5783600000000  0.5205270000000  0.4807300000000 1.0
C      1  0.5582050000000  0.5422630000000  0.4638190000000 1.0
C      1  0.4668120000000  0.4435870000000  0.5479690000000 1.0
C      1  0.5311510000000  0.6112940000000  0.5030490000000 1.0
C      1  0.5247320000000  0.5030680000000  0.5926330000000 1.0
C      1  0.4501950000000  0.5310060000000  0.4290880000000 1.0
C      1  0.4407300000000  0.4987670000000  0.5400190000000 1.0
C      1  0.4908600000000  0.5109700000000  0.4717120000000 1.0
C      1  0.4361680000000  0.4062700000000  0.4992730000000 1.0
C      1  0.4360830000000  0.5707250000000  0.4613440000000 1.0
C      1  0.5513520000000  0.5247440000000  0.5300880000000 1.0
C      1  0.5735710000000  0.4390590000000  0.5024960000000 1.0
C      1  0.5481640000000  0.5321370000000  0.5598640000000 1.0
C      1  0.4895340000000  0.5404980000000  0.5840100000000 1.0
C      1  0.5768160000000  0.4569470000000  0.5571790000000 1.0
C      1  0.5580200000000  0.5361550000000  0.4179050000000 1.0
C      1  0.5453140000000  0.5659390000000  0.4817130000000 1.0
C      1  0.4575070000000  0.4055850000000  0.5558510000000 1.0
C      1  0.5228960000000  0.5848030000000  0.4644440000000 1.0
C      1  0.4668130000000  0.5603560000000  0.4245650000000 1.0
C      1  0.5739700000000  0.4930270000000  0.4484000000000 1.0
C      1  0.4660460000000  0.5263140000000  0.4891980000000 1.0
C      1  0.4368030000000  0.4316680000000  0.4791230000000 1.0
C      1  0.5426160000000  0.5947880000000  0.5477860000000 1.0
C      1  0.5110040000000  0.5641230000000  0.4025980000000 1.0
C      1  0.5298150000000  0.4070230000000  0.5530950000000 1.0
C      1  0.4168430000000  0.4428980000000  0.4572050000000 1.0
C      1  0.5984350000000  0.4818090000000  0.5181960000000 1.0
C      1  0.4609100000000  0.4337770000000  0.5189360000000 1.0
C      1  0.4319260000000  0.4660280000000  0.5696520000000 1.0
C      1  0.5327950000000  0.4565890000000  0.5986230000000 1.0
C      1  0.4140280000000  0.4720220000000  0.4672890000000 1.0
C      1  0.4920690000000  0.4402900000000  0.4173690000000 1.0
C      1  0.6050800000000  0.5162380000000  0.5559180000000 1.0
C      1  0.5118740000000  0.5398690000000  0.3899240000000 1.0
C      1  0.5734150000000  0.5254500000000  0.5794210000000 1.0
C      1  0.5485280000000  0.4278220000000  0.5512620000000 1.0
C      1  0.4779180000000  0.4109420000000  0.5733850000000 1.0
C      1  0.5976450000000  0.5292230000000  0.5292960000000 1.0
C      1  0.4734560000000  0.5687320000000  0.5752440000000 1.0
C      1  0.4375400000000  0.5648960000000  0.4920340000000 1.0
C      1  0.5368780000000  0.4588410000000  0.5589370000000 1.0
C      1  0.5601920000000  0.4644030000000  0.5830630000000 1.0
C      1  0.4799930000000  0.4009360000000  0.4547580000000 1.0
C      1  0.5893400000000  0.4768040000000  0.4653980000000 1.0
C      1  0.5071530000000  0.5153230000000  0.4205120000000 1.0
C      1  0.4321780000000  0.4778690000000  0.5142840000000 1.0
C      1  0.4624830000000  0.5458240000000  0.5444110000000 1.0
C      1  0.4894450000000  0.5461290000000  0.5039180000000 1.0
C      1  0.4880650000000  0.5275380000000  0.5323730000000 1.0
C      1  0.5236560000000  0.4304250000000  0.4729390000000 1.0
C      1  0.5400800000000  0.6078380000000  0.4572440000000 1.0
C      1  0.5271110000000  0.5412980000000  0.4562450000000 1.0
C      1  0.5167730000000  0.3985670000000  0.5244420000000 1.0
C      1  0.4424380000000  0.5692690000000  0.5692830000000 1.0
C      1  0.4681740000000  0.4949470000000  0.5023280000000 1.0
C      1  0.5203190000000  0.5362390000000  0.5708250000000 1.0
C      1  0.5084580000000  0.4447520000000  0.5482040000000 1.0
C      1  0.4247440000000  0.5428180000000  0.5573000000000 1.0
C      1  0.4829850000000  0.5972430000000  0.4977650000000 1.0
C      1  0.5740680000000  0.5440190000000  0.5123740000000 1.0
C      1  0.5051360000000  0.4687720000000  0.4176120000000 1.0
C      1  0.4875000000000  0.5201570000000  0.3936940000000 1.0
C      1  0.4877380000000  0.4681710000000  0.5407140000000 1.0
C      1  0.5120850000000  0.5948860000000  0.5507430000000 1.0
C      1  0.4997610000000  0.3966620000000  0.5601220000000 1.0
C      1  0.5548400000000  0.5656850000000  0.5393960000000 1.0
C      1  0.3956220000000  0.4760810000000  0.4918310000000 1.0
C      1  0.4070190000000  0.5006860000000  0.5123530000000 1.0
C      1  0.5568750000000  0.4968980000000  0.5876320000000 1.0
C      1  0.4898260000000  0.5811510000000  0.4395300000000 1.0
C      1  0.4766780000000  0.4985850000000  0.6076290000000 1.0
C      1  0.5474710000000  0.4799470000000  0.4451950000000 1.0
C      1  0.4180580000000  0.5664250000000  0.5157000000000 1.0
C      1  0.5513720000000  0.5630270000000  0.4227100000000 1.0
C      1  0.5473180000000  0.4739290000000  0.5303180000000 1.0
C      1  0.4438770000000  0.5161390000000  0.5128970000000 1.0
C      1  0.5471410000000  0.4504020000000  0.4283390000000 1.0
C      1  0.5756300000000  0.5236690000000  0.4413090000000 1.0
C      1  0.4348170000000  0.5350470000000  0.4789050000000 1.0
C      1  0.4165520000000  0.4833750000000  0.5540120000000 1.0
C      1  0.5429000000000  0.4527670000000  0.4811830000000 1.0
C      1  0.5792360000000  0.5719690000000  0.5016980000000 1.0
C      1  0.4221930000000  0.4872050000000  0.4149930000000 1.0
C      1  0.5514240000000  0.5233550000000  0.4978300000000 1.0
C      1  0.4652660000000  0.4484680000000  0.4710460000000 1.0
C      1  0.4602590000000  0.5759660000000  0.4511420000000 1.0
C      1  0.4948490000000  0.4023150000000  0.4750230000000 1.0
C      1  0.4812500000000  0.5164030000000  0.5637770000000 1.0
C      1  0.6037920000000  0.5105660000000  0.5014330000000 1.0
C      1  0.3968060000000  0.4508040000000  0.5051280000000 1.0
C      1  0.4065330000000  0.5233910000000  0.4868260000000 1.0
C      1  0.4945340000000  0.4380530000000  0.4571720000000 1.0
C      1  0.4895130000000  0.4759100000000  0.5102050000000 1.0
C      1  0.5323240000000  0.4864800000000  0.4203060000000 1.0
C      1  0.5699910000000  0.4260680000000  0.5336780000000 1.0
C      1  0.5172510000000  0.5134470000000  0.4512430000000 1.0
C      1  0.4888710000000  0.4839620000000  0.5708050000000 1.0
C      1  0.4652820000000  0.5699810000000  0.5020650000000 1.0
C      1  0.5066360000000  0.4617900000000  0.5901530000000 1.0
C      1  0.3945190000000  0.5140240000000  0.4598100000000 1.0
C      1  0.5754690000000  0.4833720000000  0.5389730000000 1.0
C      1  0.4698440000000  0.4264480000000  0.4374340000000 1.0
C      1  0.5248780000000  0.4091010000000  0.4495260000000 1.0
C      1  0.4294460000000  0.4592260000000  0.4137700000000 1.0
C      1  0.5778670000000  0.5451520000000  0.5519350000000 1.0
C      1  0.4454480000000  0.5009300000000  0.4442280000000 1.0
C      1  0.5156840000000  0.5151130000000  0.5443690000000 1.0
C      1  0.5055880000000  0.4815650000000  0.4491320000000 1.0
C      1  0.5216370000000  0.4889520000000  0.5631860000000 1.0
C      1  0.5032720000000  0.5838390000000  0.5781500000000 1.0
C      1  0.5453090000000  0.4923890000000  0.3901130000000 1.0
C      1  0.4335130000000  0.3993620000000  0.5328080000000 1.0
C      1  0.4128800000000  0.4936840000000  0.4449850000000 1.0
C      1  0.5203960000000  0.4694300000000  0.3872280000000 1.0
C      1  0.6229630000000  0.5303020000000  0.4814530000000 1.0
C      1  0.5502950000000  0.4589630000000  0.3980880000000 1.0
C      1  0.4489170000000  0.5195410000000  0.5627670000000 1.0
C      1  0.5935940000000  0.4497230000000  0.5283840000000 1.0
END
