TITL C-2847946-5639-29 0.00260523953257744 125000 -816.152191293635 0 0 158 (C1) n - 1
REM
REM in /home/bkarasulu/work/CARBON/AIRSS/Generating-Clusters/AIREBO/with-SteepDescent/Only-C1/SD-CG-opt/Try1-1.4A-POS3A/HFTN-CG
REM
REM
REM
REM
REM
REM ./C.cell (11c1c37f851c82e70ff6c80c92926a4b)
REM
REM compiler GCC version 9.2.1 20190827 (Red Hat 9.2.1-1)
REM options -cpp -mtune=generic -march=x86-64 -g -O0 -fpre-include=/usr/include/finclude/math-vector-fortran.h
REM seed 638386644 -931695179 342837487 -288910053 -1155747859 -370439423 1308934249 1527240355 -1509226912 1577039543 -1416617226 -234075845 -517099167 -632704363 -774278659 -652230692 997082491 1990228337 1871026188 1965512000 2053148334 -110204819 686674916 -1434910011 -755009315 -896700160 1416492280 155743921 1997530792 119166641 -1690008885 -1676845035 2020202193
REM
CELL 1.54180   50.00000   50.00000   50.00000   90.00000   90.00000   90.00000
LATT -1
SFAC C  
C      1  0.4044050000000  0.4198020000000  0.5271460000000 1.0
C      1  0.4481260000000  0.5958480000000  0.4710740000000 1.0
C      1  0.4267890000000  0.5511530000000  0.4563760000000 1.0
C      1  0.4059030000000  0.5316450000000  0.4657510000000 1.0
C      1  0.4516530000000  0.5349220000000  0.4247500000000 1.0
C      1  0.5269340000000  0.5105630000000  0.6116570000000 1.0
C      1  0.4854270000000  0.4652780000000  0.5652320000000 1.0
C      1  0.5257680000000  0.4853170000000  0.4874140000000 1.0
C      1  0.5529240000000  0.5115350000000  0.5303990000000 1.0
C      1  0.5484640000000  0.5482240000000  0.4496840000000 1.0
C      1  0.4588000000000  0.5397240000000  0.4576560000000 1.0
C      1  0.5836920000000  0.4978030000000  0.5540410000000 1.0
C      1  0.4738130000000  0.5097430000000  0.4519390000000 1.0
C      1  0.4043440000000  0.5132200000000  0.5131660000000 1.0
C      1  0.4631380000000  0.4989330000000  0.5179900000000 1.0
C      1  0.5844650000000  0.4214670000000  0.4979900000000 1.0
C      1  0.5266850000000  0.4039060000000  0.5379010000000 1.0
C      1  0.4716180000000  0.3714740000000  0.5146480000000 1.0
C      1  0.4493920000000  0.4287770000000  0.4343050000000 1.0
C      1  0.4977650000000  0.4158770000000  0.5359430000000 1.0
C      1  0.4443100000000  0.4555070000000  0.5010110000000 1.0
C      1  0.5757660000000  0.5485470000000  0.5016220000000 1.0
C      1  0.5275160000000  0.5497870000000  0.5337210000000 1.0
C      1  0.5342210000000  0.4225130000000  0.4570950000000 1.0
C      1  0.4287460000000  0.5116190000000  0.4618740000000 1.0
C      1  0.5354660000000  0.5162980000000  0.4845080000000 1.0
C      1  0.5290370000000  0.4112490000000  0.4269550000000 1.0
C      1  0.4272490000000  0.4693190000000  0.5269930000000 1.0
C      1  0.5299110000000  0.4445190000000  0.4338900000000 1.0
C      1  0.4447360000000  0.4944530000000  0.5838820000000 1.0
C      1  0.5080890000000  0.4858640000000  0.5326690000000 1.0
C      1  0.4714560000000  0.5882890000000  0.4550500000000 1.0
C      1  0.4797160000000  0.4839150000000  0.4306170000000 1.0
C      1  0.4586710000000  0.4691190000000  0.4083790000000 1.0
C      1  0.5101220000000  0.5147100000000  0.4002420000000 1.0
C      1  0.5413830000000  0.4453100000000  0.5605610000000 1.0
C      1  0.5654290000000  0.5051230000000  0.4804920000000 1.0
C      1  0.5095970000000  0.4821730000000  0.4230030000000 1.0
C      1  0.4607090000000  0.4086310000000  0.4518730000000 1.0
C      1  0.6090090000000  0.4883450000000  0.5329820000000 1.0
C      1  0.5969270000000  0.4735550000000  0.4585590000000 1.0
C      1  0.5252890000000  0.3873640000000  0.4730950000000 1.0
C      1  0.5758670000000  0.5278150000000  0.5789350000000 1.0
C      1  0.4060310000000  0.5601430000000  0.5148160000000 1.0
C      1  0.4953070000000  0.5055390000000  0.6083320000000 1.0
C      1  0.4189150000000  0.4379540000000  0.5168190000000 1.0
C      1  0.5695770000000  0.5522960000000  0.4233440000000 1.0
C      1  0.4683370000000  0.5061740000000  0.5876360000000 1.0
C      1  0.5958850000000  0.4962990000000  0.4747660000000 1.0
C      1  0.5561400000000  0.4602340000000  0.4248180000000 1.0
C      1  0.4896420000000  0.5244140000000  0.4256520000000 1.0
C      1  0.4963990000000  0.5114020000000  0.4734600000000 1.0
C      1  0.5556520000000  0.4483360000000  0.5029010000000 1.0
C      1  0.3968780000000  0.5101090000000  0.4858620000000 1.0
C      1  0.4650600000000  0.4880570000000  0.5501540000000 1.0
C      1  0.4155320000000  0.4701520000000  0.4400300000000 1.0
C      1  0.4269280000000  0.4724030000000  0.4782890000000 1.0
C      1  0.5700060000000  0.5595510000000  0.5332850000000 1.0
C      1  0.5176040000000  0.5639360000000  0.3961280000000 1.0
C      1  0.5106670000000  0.4177180000000  0.4777010000000 1.0
C      1  0.4256740000000  0.5780430000000  0.4695970000000 1.0
C      1  0.4528420000000  0.5013220000000  0.4191080000000 1.0
C      1  0.4162070000000  0.4813840000000  0.5846810000000 1.0
C      1  0.5053460000000  0.4564060000000  0.4694010000000 1.0
C      1  0.4771460000000  0.4617660000000  0.4562870000000 1.0
C      1  0.4921260000000  0.5451740000000  0.4524730000000 1.0
C      1  0.5524690000000  0.4537980000000  0.5881610000000 1.0
C      1  0.4312140000000  0.4454450000000  0.4573540000000 1.0
C      1  0.5678850000000  0.5903340000000  0.5173450000000 1.0
C      1  0.4790380000000  0.4046870000000  0.5120530000000 1.0
C      1  0.5466060000000  0.4011050000000  0.4883550000000 1.0
C      1  0.4299020000000  0.5017200000000  0.5262560000000 1.0
C      1  0.4648770000000  0.5667240000000  0.5728210000000 1.0
C      1  0.5792930000000  0.4411460000000  0.5199930000000 1.0
C      1  0.5423440000000  0.5091090000000  0.4078050000000 1.0
C      1  0.4938170000000  0.5181600000000  0.5704340000000 1.0
C      1  0.5266360000000  0.5225350000000  0.5162960000000 1.0
C      1  0.4711640000000  0.4708990000000  0.5070970000000 1.0
C      1  0.5867490000000  0.5386010000000  0.4476380000000 1.0
C      1  0.4918740000000  0.5376110000000  0.4946460000000 1.0
C      1  0.5499380000000  0.4781270000000  0.4045010000000 1.0
C      1  0.4922180000000  0.4563390000000  0.5269500000000 1.0
C      1  0.4939730000000  0.5132860000000  0.5183320000000 1.0
C      1  0.5290860000000  0.4657540000000  0.5150250000000 1.0
C      1  0.4788760000000  0.4160010000000  0.4801280000000 1.0
C      1  0.5425610000000  0.5792790000000  0.5371640000000 1.0
C      1  0.4245990000000  0.5611810000000  0.4949350000000 1.0
C      1  0.4625360000000  0.5657640000000  0.4360890000000 1.0
C      1  0.4349360000000  0.4763770000000  0.5567490000000 1.0
C      1  0.5492030000000  0.5732150000000  0.4680300000000 1.0
C      1  0.4417670000000  0.3997530000000  0.4737050000000 1.0
C      1  0.5608140000000  0.5165230000000  0.4499270000000 1.0
C      1  0.5497400000000  0.5950400000000  0.4940670000000 1.0
C      1  0.5163330000000  0.4801180000000  0.5858140000000 1.0
C      1  0.5861260000000  0.5114340000000  0.5229820000000 1.0
C      1  0.5675720000000  0.4564240000000  0.4573420000000 1.0
C      1  0.4515050000000  0.3926470000000  0.5575720000000 1.0
C      1  0.4912710000000  0.5785360000000  0.5564490000000 1.0
C      1  0.5423700000000  0.4775940000000  0.5954350000000 1.0
C      1  0.3872070000000  0.4735840000000  0.4501300000000 1.0
C      1  0.5142770000000  0.5708750000000  0.5764480000000 1.0
C      1  0.4487340000000  0.5496530000000  0.5588070000000 1.0
C      1  0.5106680000000  0.5417140000000  0.5862020000000 1.0
C      1  0.4890060000000  0.4739390000000  0.5973670000000 1.0
C      1  0.4746850000000  0.5670500000000  0.4920960000000 1.0
C      1  0.4691880000000  0.4415280000000  0.5471130000000 1.0
C      1  0.4494810000000  0.5097060000000  0.4887690000000 1.0
C      1  0.4528130000000  0.4432930000000  0.4107420000000 1.0
C      1  0.4522810000000  0.5418180000000  0.4909820000000 1.0
C      1  0.5950970000000  0.5467880000000  0.4734230000000 1.0
C      1  0.4927000000000  0.4820320000000  0.4870320000000 1.0
C      1  0.5637030000000  0.4252740000000  0.4713270000000 1.0
C      1  0.5208460000000  0.5465770000000  0.4356800000000 1.0
C      1  0.5153740000000  0.4972130000000  0.5610410000000 1.0
C      1  0.4194510000000  0.4184670000000  0.4731000000000 1.0
C      1  0.4854310000000  0.5378450000000  0.6042010000000 1.0
C      1  0.5120950000000  0.5946370000000  0.5343150000000 1.0
C      1  0.4895900000000  0.6034950000000  0.5103680000000 1.0
C      1  0.5079330000000  0.5610020000000  0.5133850000000 1.0
C      1  0.4602150000000  0.4414160000000  0.4746480000000 1.0
C      1  0.5817030000000  0.5325390000000  0.5492800000000 1.0
C      1  0.4568880000000  0.4844770000000  0.4677250000000 1.0
C      1  0.4954500000000  0.5980550000000  0.4772130000000 1.0
C      1  0.5974300000000  0.5229700000000  0.4958550000000 1.0
C      1  0.5166890000000  0.5502370000000  0.4751270000000 1.0
C      1  0.5392130000000  0.5814330000000  0.5697570000000 1.0
C      1  0.5354560000000  0.4675950000000  0.4582450000000 1.0
C      1  0.5280530000000  0.6000720000000  0.4677480000000 1.0
C      1  0.4539570000000  0.3887860000000  0.4954920000000 1.0
C      1  0.4804260000000  0.5274440000000  0.5453450000000 1.0
C      1  0.3997880000000  0.4842040000000  0.4751450000000 1.0
C      1  0.5195910000000  0.5824810000000  0.4955870000000 1.0
C      1  0.5412490000000  0.5625460000000  0.4135900000000 1.0
C      1  0.5471950000000  0.5478440000000  0.4893590000000 1.0
C      1  0.4685730000000  0.5587440000000  0.6002500000000 1.0
C      1  0.5401980000000  0.4138790000000  0.5590150000000 1.0
C      1  0.4274610000000  0.5905190000000  0.5295300000000 1.0
C      1  0.4588610000000  0.5964810000000  0.4983830000000 1.0
C      1  0.4518360000000  0.5905720000000  0.5377460000000 1.0
C      1  0.4991570000000  0.5445740000000  0.3996470000000 1.0
C      1  0.4644770000000  0.5439150000000  0.5230280000000 1.0
C      1  0.5639510000000  0.4850800000000  0.5154660000000 1.0
C      1  0.5182200000000  0.4821720000000  0.3928600000000 1.0
C      1  0.4297950000000  0.4947020000000  0.4392760000000 1.0
C      1  0.5637170000000  0.4733760000000  0.4858850000000 1.0
C      1  0.5084380000000  0.4428180000000  0.5541260000000 1.0
C      1  0.5416880000000  0.3973300000000  0.5155290000000 1.0
C      1  0.5526580000000  0.4637550000000  0.5394690000000 1.0
C      1  0.5865920000000  0.4650230000000  0.5413150000000 1.0
C      1  0.4678420000000  0.4123500000000  0.5496820000000 1.0
C      1  0.5210260000000  0.5177570000000  0.4537590000000 1.0
C      1  0.5276660000000  0.5368120000000  0.5603990000000 1.0
C      1  0.5083910000000  0.4426610000000  0.5003500000000 1.0
C      1  0.4789990000000  0.5746010000000  0.5249720000000 1.0
C      1  0.4482030000000  0.5175920000000  0.5498930000000 1.0
C      1  0.5542490000000  0.5070850000000  0.5919040000000 1.0
C      1  0.5445600000000  0.5111880000000  0.5604770000000 1.0
C      1  0.5370490000000  0.4951140000000  0.4383390000000 1.0
END
