TITL C-2847953-8112-301 -0.00182828054490043 125000 -561.915816033056 0 0 110 (C1) n - 1
REM
REM in /home/bkarasulu/work/CARBON/AIRSS/Generating-Clusters/AIREBO/with-SteepDescent/Only-C1/SD-CG-opt/Try1-1.4A-POS3A/HFTN-CG
REM
REM
REM
REM
REM
REM ./C.cell (11c1c37f851c82e70ff6c80c92926a4b)
REM
REM compiler GCC version 9.2.1 20190827 (Red Hat 9.2.1-1)
REM options -cpp -mtune=generic -march=x86-64 -g -O0 -fpre-include=/usr/include/finclude/math-vector-fortran.h
REM seed -527119954 -1143119748 741270973 51567852 -1725141799 -1720550740 -224539828 -560287169 -1582350889 1943969205 1501557574 -320604378 -1207502256 -1728588995 -1168063470 885028028 -330731598 820607228 110822061 652869678 -1179553293 433609420 73934783 1297508510 25380651 -1713895175 851307839 1210173503 -773006732 -37217981 738253443 2021889912 429839905
REM
CELL 1.54180   50.00000   50.00000   50.00000   90.00000   90.00000   90.00000
LATT -1
SFAC C  
C      1  0.4231620000000  0.4864610000000  0.5036840000000 1.0
C      1  0.4710050000000  0.5140830000000  0.4790320000000 1.0
C      1  0.4942630000000  0.5371550000000  0.4217100000000 1.0
C      1  0.5488430000000  0.4273020000000  0.4599340000000 1.0
C      1  0.4670520000000  0.4224330000000  0.4931000000000 1.0
C      1  0.5509110000000  0.5145830000000  0.4817520000000 1.0
C      1  0.4751280000000  0.4522900000000  0.4984780000000 1.0
C      1  0.5290690000000  0.4929210000000  0.4929080000000 1.0
C      1  0.5417110000000  0.5256030000000  0.4414360000000 1.0
C      1  0.5821400000000  0.5424370000000  0.4826500000000 1.0
C      1  0.4375790000000  0.5096780000000  0.4834420000000 1.0
C      1  0.5450920000000  0.5034480000000  0.5817690000000 1.0
C      1  0.5211410000000  0.5302370000000  0.4767090000000 1.0
C      1  0.4360270000000  0.5633430000000  0.4803120000000 1.0
C      1  0.5490280000000  0.5303470000000  0.5626320000000 1.0
C      1  0.4800690000000  0.5456540000000  0.5018200000000 1.0
C      1  0.4051050000000  0.4692560000000  0.4822610000000 1.0
C      1  0.4486920000000  0.5310830000000  0.5074260000000 1.0
C      1  0.5596550000000  0.4632370000000  0.5511500000000 1.0
C      1  0.4372630000000  0.5002450000000  0.5508270000000 1.0
C      1  0.4812530000000  0.4679620000000  0.4689290000000 1.0
C      1  0.5306330000000  0.4696440000000  0.4340640000000 1.0
C      1  0.4640820000000  0.4676460000000  0.5776670000000 1.0
C      1  0.5036820000000  0.4496940000000  0.4284300000000 1.0
C      1  0.5182900000000  0.4828460000000  0.5389500000000 1.0
C      1  0.5358540000000  0.5765940000000  0.4602150000000 1.0
C      1  0.4423240000000  0.4276680000000  0.4737940000000 1.0
C      1  0.4896280000000  0.5670340000000  0.5200230000000 1.0
C      1  0.5108720000000  0.4049600000000  0.5107930000000 1.0
C      1  0.5081490000000  0.4522520000000  0.4620400000000 1.0
C      1  0.4330790000000  0.5487700000000  0.5437900000000 1.0
C      1  0.5125540000000  0.4481960000000  0.5045810000000 1.0
C      1  0.5750490000000  0.5235750000000  0.5417770000000 1.0
C      1  0.5151540000000  0.4646830000000  0.5800620000000 1.0
C      1  0.5351420000000  0.4548280000000  0.5291190000000 1.0
C      1  0.4375100000000  0.5211210000000  0.4451850000000 1.0
C      1  0.5555650000000  0.4998130000000  0.4259130000000 1.0
C      1  0.4873560000000  0.5874280000000  0.4857680000000 1.0
C      1  0.4935760000000  0.4697940000000  0.5210530000000 1.0
C      1  0.5918230000000  0.5236110000000  0.4641520000000 1.0
C      1  0.4757930000000  0.5163980000000  0.5186070000000 1.0
C      1  0.5866690000000  0.4758450000000  0.4825310000000 1.0
C      1  0.5399870000000  0.5700570000000  0.5169690000000 1.0
C      1  0.5392000000000  0.5049980000000  0.5423210000000 1.0
C      1  0.5227990000000  0.4274680000000  0.4801350000000 1.0
C      1  0.5757620000000  0.4486280000000  0.5275330000000 1.0
C      1  0.4976000000000  0.5495220000000  0.5822200000000 1.0
C      1  0.5065140000000  0.5160920000000  0.5039740000000 1.0
C      1  0.4133710000000  0.5365380000000  0.5251120000000 1.0
C      1  0.5230390000000  0.4979340000000  0.4204570000000 1.0
C      1  0.5368610000000  0.4468150000000  0.5681540000000 1.0
C      1  0.5079710000000  0.5200630000000  0.4053340000000 1.0
C      1  0.5612210000000  0.4566880000000  0.4717460000000 1.0
C      1  0.5708870000000  0.5228000000000  0.5080260000000 1.0
C      1  0.5094290000000  0.5305400000000  0.5346480000000 1.0
C      1  0.5697410000000  0.5015440000000  0.4566220000000 1.0
C      1  0.4963460000000  0.4224930000000  0.4505690000000 1.0
C      1  0.4636220000000  0.5460870000000  0.4736830000000 1.0
C      1  0.4623840000000  0.4261880000000  0.5257910000000 1.0
C      1  0.4796970000000  0.4604480000000  0.4166250000000 1.0
C      1  0.4131120000000  0.5476080000000  0.4993790000000 1.0
C      1  0.4375860000000  0.4888800000000  0.4560060000000 1.0
C      1  0.4683600000000  0.4297500000000  0.4406340000000 1.0
C      1  0.4586170000000  0.4555460000000  0.4502220000000 1.0
C      1  0.5642810000000  0.4715800000000  0.4413350000000 1.0
C      1  0.4212710000000  0.5355610000000  0.4686050000000 1.0
C      1  0.5093760000000  0.5481920000000  0.4503170000000 1.0
C      1  0.4775950000000  0.5582410000000  0.4504810000000 1.0
C      1  0.4612980000000  0.5393160000000  0.4285810000000 1.0
C      1  0.4685350000000  0.4961440000000  0.5389590000000 1.0
C      1  0.5619680000000  0.5580920000000  0.4725600000000 1.0
C      1  0.5257870000000  0.5620030000000  0.4880500000000 1.0
C      1  0.4892540000000  0.4892070000000  0.4932570000000 1.0
C      1  0.5021140000000  0.5804680000000  0.4582800000000 1.0
C      1  0.5411020000000  0.5306200000000  0.5224420000000 1.0
C      1  0.5268770000000  0.4226010000000  0.5361620000000 1.0
C      1  0.5523610000000  0.4737610000000  0.5067360000000 1.0
C      1  0.4860880000000  0.5461980000000  0.5538010000000 1.0
C      1  0.5637730000000  0.5543360000000  0.5313830000000 1.0
C      1  0.4484240000000  0.5633580000000  0.5182610000000 1.0
C      1  0.4295560000000  0.4568780000000  0.4643810000000 1.0
C      1  0.4512990000000  0.4698400000000  0.4953230000000 1.0
C      1  0.5495760000000  0.5514480000000  0.4442820000000 1.0
C      1  0.4649850000000  0.5064700000000  0.4331280000000 1.0
C      1  0.4690430000000  0.5402100000000  0.5893140000000 1.0
C      1  0.4565290000000  0.4775550000000  0.4272460000000 1.0
C      1  0.4617300000000  0.5803100000000  0.4939350000000 1.0
C      1  0.4723190000000  0.5063530000000  0.5690430000000 1.0
C      1  0.4937010000000  0.4270670000000  0.5301960000000 1.0
C      1  0.4677130000000  0.5678200000000  0.5442830000000 1.0
C      1  0.5613110000000  0.4412850000000  0.5020660000000 1.0
C      1  0.5247940000000  0.5503880000000  0.5657140000000 1.0
C      1  0.5789350000000  0.4911520000000  0.5059350000000 1.0
C      1  0.5420980000000  0.4176610000000  0.5063560000000 1.0
C      1  0.4314880000000  0.4717180000000  0.5332360000000 1.0
C      1  0.5319660000000  0.4733870000000  0.4679060000000 1.0
C      1  0.4674580000000  0.5122610000000  0.6021740000000 1.0
C      1  0.5023300000000  0.5064180000000  0.5575490000000 1.0
C      1  0.4934820000000  0.4094460000000  0.4819220000000 1.0
C      1  0.4756200000000  0.4645820000000  0.5494580000000 1.0
C      1  0.4508470000000  0.4508150000000  0.5350500000000 1.0
C      1  0.4857920000000  0.4992580000000  0.4547800000000 1.0
C      1  0.5126820000000  0.5877300000000  0.5060160000000 1.0
C      1  0.4484530000000  0.5300710000000  0.5640810000000 1.0
C      1  0.5016340000000  0.4444410000000  0.5580760000000 1.0
C      1  0.5199440000000  0.4915820000000  0.5784480000000 1.0
C      1  0.5665890000000  0.4945500000000  0.5580210000000 1.0
C      1  0.4150920000000  0.5087800000000  0.5276930000000 1.0
C      1  0.5139820000000  0.5086000000000  0.4514540000000 1.0
C      1  0.5178640000000  0.5634080000000  0.5370900000000 1.0
END
