TITL C-2848505-4874-491 0.00427383249151473 125000 -503.049027293255 0 0 90 (C1) n - 1
REM
REM in /home/bkarasulu/work/CARBON/AIRSS/Generating-Clusters/AIREBO/with-SteepDescent/Only-C1/SD-CG-opt/Try1-1.4A-POS3A/HFTN-CG
REM
REM
REM
REM
REM
REM ./C.cell (11c1c37f851c82e70ff6c80c92926a4b)
REM
REM compiler GCC version 9.2.1 20190827 (Red Hat 9.2.1-1)
REM options -cpp -mtune=generic -march=x86-64 -g -O0 -fpre-include=/usr/include/finclude/math-vector-fortran.h
REM seed -1848549161 532174702 1163324906 1937450203 -948978405 1596047842 -2115001411 588727624 560080430 34893983 -1222151454 1724571068 35802680 -907846110 -2123076486 685066402 984330314 482845593 -132884153 -1737291912 -585664456 930696207 1493915701 490726111 683262338 100745415 -277438409 -1037084215 -2137891547 1501434710 -967114736 712180624 -117833747
REM
CELL 1.54180   50.00000   50.00000   50.00000   90.00000   90.00000   90.00000
LATT -1
SFAC C  
C      1  0.5091140000000  0.5522650000000  0.4423350000000 1.0
C      1  0.5460670000000  0.5013300000000  0.5629050000000 1.0
C      1  0.4723740000000  0.5853120000000  0.4696160000000 1.0
C      1  0.5370630000000  0.5444990000000  0.4864990000000 1.0
C      1  0.5642400000000  0.4859790000000  0.4119370000000 1.0
C      1  0.5774990000000  0.5308060000000  0.5327650000000 1.0
C      1  0.4803600000000  0.5654800000000  0.5753690000000 1.0
C      1  0.5110540000000  0.5249150000000  0.4307530000000 1.0
C      1  0.5442600000000  0.4846690000000  0.4278360000000 1.0
C      1  0.5033480000000  0.4316590000000  0.4614900000000 1.0
C      1  0.5303680000000  0.4838660000000  0.5811360000000 1.0
C      1  0.4788590000000  0.5069270000000  0.4835720000000 1.0
C      1  0.4851750000000  0.5873240000000  0.5019700000000 1.0
C      1  0.4899930000000  0.5177530000000  0.5138210000000 1.0
C      1  0.4292350000000  0.4553350000000  0.4818200000000 1.0
C      1  0.5088240000000  0.5818950000000  0.4844140000000 1.0
C      1  0.4130310000000  0.4664550000000  0.5104100000000 1.0
C      1  0.5309450000000  0.5113970000000  0.5406850000000 1.0
C      1  0.4949340000000  0.4656850000000  0.4285930000000 1.0
C      1  0.4810680000000  0.4870580000000  0.4180130000000 1.0
C      1  0.4570610000000  0.5119640000000  0.5648770000000 1.0
C      1  0.5007590000000  0.4560360000000  0.5014760000000 1.0
C      1  0.4464830000000  0.5493370000000  0.4852950000000 1.0
C      1  0.5227670000000  0.4651370000000  0.4395810000000 1.0
C      1  0.5711500000000  0.5743790000000  0.5108400000000 1.0
C      1  0.4288790000000  0.5095400000000  0.4475840000000 1.0
C      1  0.4676820000000  0.5372090000000  0.5696230000000 1.0
C      1  0.5803130000000  0.5136820000000  0.4469060000000 1.0
C      1  0.5125100000000  0.5836750000000  0.4364480000000 1.0
C      1  0.4836680000000  0.4676810000000  0.4775530000000 1.0
C      1  0.4590850000000  0.4316260000000  0.5242990000000 1.0
C      1  0.4582380000000  0.5204400000000  0.5192740000000 1.0
C      1  0.5022250000000  0.5972370000000  0.4584690000000 1.0
C      1  0.6044950000000  0.4997530000000  0.4933780000000 1.0
C      1  0.4486340000000  0.5470150000000  0.5360020000000 1.0
C      1  0.4886660000000  0.3968580000000  0.5078040000000 1.0
C      1  0.4749010000000  0.4348830000000  0.4798400000000 1.0
C      1  0.5122380000000  0.4615140000000  0.5539820000000 1.0
C      1  0.5707380000000  0.4981640000000  0.5394850000000 1.0
C      1  0.4761750000000  0.4488740000000  0.5423980000000 1.0
C      1  0.4708230000000  0.4876040000000  0.5722120000000 1.0
C      1  0.5047640000000  0.4985150000000  0.5305320000000 1.0
C      1  0.5544710000000  0.5646270000000  0.4915150000000 1.0
C      1  0.5505350000000  0.5138260000000  0.4916300000000 1.0
C      1  0.4251940000000  0.5268960000000  0.5246420000000 1.0
C      1  0.4437400000000  0.5752870000000  0.4772000000000 1.0
C      1  0.5964820000000  0.4444680000000  0.5093110000000 1.0
C      1  0.5587070000000  0.4685750000000  0.5315130000000 1.0
C      1  0.5275410000000  0.4742370000000  0.5263270000000 1.0
C      1  0.4276640000000  0.5311520000000  0.4938380000000 1.0
C      1  0.4581620000000  0.4967720000000  0.4598630000000 1.0
C      1  0.5351190000000  0.4444750000000  0.4636070000000 1.0
C      1  0.5425850000000  0.4759950000000  0.4685300000000 1.0
C      1  0.4550920000000  0.5084970000000  0.4218650000000 1.0
C      1  0.4988470000000  0.6001170000000  0.5492890000000 1.0
C      1  0.4563740000000  0.5289550000000  0.4490130000000 1.0
C      1  0.5088760000000  0.5514610000000  0.4756010000000 1.0
C      1  0.4767880000000  0.5559940000000  0.4522330000000 1.0
C      1  0.4549600000000  0.4638530000000  0.4612830000000 1.0
C      1  0.4325970000000  0.4750440000000  0.5371780000000 1.0
C      1  0.4347870000000  0.5053320000000  0.5476700000000 1.0
C      1  0.4356910000000  0.4848170000000  0.4938810000000 1.0
C      1  0.4998250000000  0.4330750000000  0.5552450000000 1.0
C      1  0.5514600000000  0.4365980000000  0.4923710000000 1.0
C      1  0.5248040000000  0.5043410000000  0.4469820000000 1.0
C      1  0.5132000000000  0.4010170000000  0.5217250000000 1.0
C      1  0.5101050000000  0.4094270000000  0.5485410000000 1.0
C      1  0.5797150000000  0.5076040000000  0.5080110000000 1.0
C      1  0.4714460000000  0.4188500000000  0.5025830000000 1.0
C      1  0.5695860000000  0.4500750000000  0.5096560000000 1.0
C      1  0.4569850000000  0.4660060000000  0.5591310000000 1.0
C      1  0.4861700000000  0.5172100000000  0.4261360000000 1.0
C      1  0.4791660000000  0.4475440000000  0.4436210000000 1.0
C      1  0.5120960000000  0.4318040000000  0.4935450000000 1.0
C      1  0.4987810000000  0.4835590000000  0.5750680000000 1.0
C      1  0.5448140000000  0.4616630000000  0.5600190000000 1.0
C      1  0.4630020000000  0.4889790000000  0.5083370000000 1.0
C      1  0.5066010000000  0.4924140000000  0.4731080000000 1.0
C      1  0.5464050000000  0.5253100000000  0.5230690000000 1.0
C      1  0.5342960000000  0.4146490000000  0.5055910000000 1.0
C      1  0.4692690000000  0.5646390000000  0.5455260000000 1.0
C      1  0.4871600000000  0.4712480000000  0.5235120000000 1.0
C      1  0.4774300000000  0.5393480000000  0.4813110000000 1.0
C      1  0.5548370000000  0.5057060000000  0.4601110000000 1.0
C      1  0.5284970000000  0.4884790000000  0.4969200000000 1.0
C      1  0.4377830000000  0.4472570000000  0.5182760000000 1.0
C      1  0.4250080000000  0.5079250000000  0.4790830000000 1.0
C      1  0.4832170000000  0.5858670000000  0.5291330000000 1.0
C      1  0.4982620000000  0.5877530000000  0.5749090000000 1.0
C      1  0.5858010000000  0.5595370000000  0.5286950000000 1.0
END
