TITL C-2847952-8118-435 -0.00118320123811073 125000 -524.834227868922 0 0 98 (C1) n - 1
REM
REM in /home/bkarasulu/work/CARBON/AIRSS/Generating-Clusters/AIREBO/with-SteepDescent/Only-C1/SD-CG-opt/Try1-1.4A-POS3A/HFTN-CG
REM
REM
REM
REM
REM
REM ./C.cell (11c1c37f851c82e70ff6c80c92926a4b)
REM
REM compiler GCC version 9.2.1 20190827 (Red Hat 9.2.1-1)
REM options -cpp -mtune=generic -march=x86-64 -g -O0 -fpre-include=/usr/include/finclude/math-vector-fortran.h
REM seed -47016305 -1326409047 591195087 176542436 -717936523 -888964391 1368692398 -2088268496 -2142383986 1239403205 -423995338 213719923 533377558 -450307206 1368666570 343216618 -279346257 -953251229 -1494882410 1221975903 534426392 -607077140 -754768017 2118268041 1628274249 -1883965860 1824732140 1082703751 754986742 -288727178 1587966766 -1710362327 -1722215230
REM
CELL 1.54180   50.00000   50.00000   50.00000   90.00000   90.00000   90.00000
LATT -1
SFAC C  
C      1  0.4913000000000  0.5733100000000  0.5648670000000 1.0
C      1  0.5771690000000  0.4621970000000  0.4993430000000 1.0
C      1  0.5006980000000  0.5627010000000  0.4924100000000 1.0
C      1  0.4906350000000  0.5407510000000  0.5417260000000 1.0
C      1  0.4492070000000  0.5577330000000  0.5511040000000 1.0
C      1  0.4375000000000  0.4756760000000  0.5060530000000 1.0
C      1  0.5704770000000  0.4364280000000  0.4813670000000 1.0
C      1  0.4649900000000  0.4900030000000  0.5401370000000 1.0
C      1  0.5012710000000  0.5482710000000  0.5788030000000 1.0
C      1  0.4927660000000  0.4484550000000  0.5347370000000 1.0
C      1  0.5105710000000  0.3997290000000  0.4955830000000 1.0
C      1  0.5268750000000  0.5301640000000  0.5656520000000 1.0
C      1  0.4971060000000  0.4689910000000  0.4191660000000 1.0
C      1  0.5003850000000  0.5149530000000  0.5807640000000 1.0
C      1  0.5365300000000  0.5220850000000  0.4285190000000 1.0
C      1  0.5617330000000  0.5562090000000  0.5247850000000 1.0
C      1  0.5213660000000  0.4745330000000  0.4650880000000 1.0
C      1  0.4785510000000  0.4727980000000  0.5975290000000 1.0
C      1  0.5190400000000  0.5159990000000  0.4957910000000 1.0
C      1  0.4570830000000  0.4454370000000  0.4673750000000 1.0
C      1  0.5529410000000  0.4718500000000  0.4777100000000 1.0
C      1  0.4328560000000  0.4541790000000  0.4859670000000 1.0
C      1  0.4793700000000  0.4824790000000  0.4951860000000 1.0
C      1  0.5283990000000  0.5276140000000  0.4691730000000 1.0
C      1  0.5375340000000  0.4616950000000  0.5631710000000 1.0
C      1  0.5675310000000  0.5034830000000  0.5374400000000 1.0
C      1  0.4879740000000  0.5350920000000  0.4239500000000 1.0
C      1  0.5102240000000  0.4729690000000  0.4963220000000 1.0
C      1  0.4951780000000  0.5257320000000  0.4621620000000 1.0
C      1  0.5458850000000  0.4923930000000  0.5612670000000 1.0
C      1  0.4667560000000  0.4841510000000  0.4168970000000 1.0
C      1  0.4386130000000  0.5036540000000  0.4885080000000 1.0
C      1  0.5319490000000  0.4912070000000  0.5240870000000 1.0
C      1  0.5108800000000  0.4517020000000  0.5633460000000 1.0
C      1  0.4644370000000  0.5122200000000  0.4675130000000 1.0
C      1  0.5652120000000  0.4507660000000  0.4540140000000 1.0
C      1  0.5107150000000  0.5406980000000  0.5163270000000 1.0
C      1  0.5042100000000  0.4456980000000  0.4595500000000 1.0
C      1  0.5322710000000  0.4582950000000  0.5155230000000 1.0
C      1  0.5274110000000  0.5798120000000  0.5025090000000 1.0
C      1  0.4770140000000  0.5025170000000  0.5971220000000 1.0
C      1  0.5729880000000  0.5102390000000  0.5044830000000 1.0
C      1  0.5048770000000  0.5581550000000  0.4588300000000 1.0
C      1  0.4796670000000  0.4597020000000  0.4457130000000 1.0
C      1  0.5753850000000  0.4727870000000  0.5250210000000 1.0
C      1  0.5688650000000  0.5064260000000  0.4436160000000 1.0
C      1  0.4829020000000  0.4802470000000  0.5646410000000 1.0
C      1  0.4284320000000  0.5450250000000  0.4722900000000 1.0
C      1  0.5550080000000  0.5337900000000  0.5464250000000 1.0
C      1  0.4775460000000  0.5852850000000  0.4819140000000 1.0
C      1  0.4288740000000  0.5006090000000  0.5276380000000 1.0
C      1  0.4320110000000  0.5281480000000  0.5083070000000 1.0
C      1  0.4565500000000  0.5156750000000  0.5802730000000 1.0
C      1  0.5195970000000  0.4184040000000  0.4509930000000 1.0
C      1  0.4481850000000  0.4495550000000  0.5449720000000 1.0
C      1  0.4599150000000  0.5540850000000  0.5201800000000 1.0
C      1  0.5455520000000  0.4963410000000  0.4957640000000 1.0
C      1  0.5529940000000  0.5489130000000  0.4752560000000 1.0
C      1  0.4568840000000  0.4585200000000  0.5673790000000 1.0
C      1  0.5252490000000  0.4724690000000  0.4172000000000 1.0
C      1  0.4326620000000  0.5602490000000  0.5007960000000 1.0
C      1  0.5124500000000  0.4924580000000  0.5588170000000 1.0
C      1  0.5487510000000  0.4195740000000  0.4895650000000 1.0
C      1  0.5016360000000  0.4791790000000  0.5294240000000 1.0
C      1  0.5412380000000  0.4616790000000  0.4406710000000 1.0
C      1  0.4929510000000  0.4250750000000  0.4800410000000 1.0
C      1  0.4666990000000  0.5492390000000  0.4343350000000 1.0
C      1  0.4886590000000  0.5123070000000  0.4991770000000 1.0
C      1  0.4137410000000  0.5247810000000  0.4617390000000 1.0
C      1  0.4783250000000  0.4055290000000  0.5046750000000 1.0
C      1  0.5310840000000  0.4046950000000  0.4716830000000 1.0
C      1  0.5337860000000  0.4282700000000  0.5111450000000 1.0
C      1  0.5173020000000  0.5457720000000  0.4277300000000 1.0
C      1  0.4583970000000  0.5435180000000  0.4642630000000 1.0
C      1  0.4409380000000  0.5013960000000  0.5597910000000 1.0
C      1  0.5376160000000  0.5612740000000  0.4501770000000 1.0
C      1  0.5507050000000  0.5648230000000  0.5012560000000 1.0
C      1  0.4612100000000  0.4791870000000  0.4666160000000 1.0
C      1  0.4661140000000  0.4630570000000  0.5194300000000 1.0
C      1  0.5069010000000  0.5913950000000  0.5194930000000 1.0
C      1  0.5002940000000  0.4957110000000  0.4488400000000 1.0
C      1  0.4469010000000  0.4902740000000  0.4378160000000 1.0
C      1  0.5690980000000  0.5206580000000  0.4744920000000 1.0
C      1  0.4698940000000  0.5399100000000  0.5686570000000 1.0
C      1  0.5278190000000  0.5200490000000  0.5344250000000 1.0
C      1  0.4752520000000  0.5402180000000  0.4936090000000 1.0
C      1  0.5488000000000  0.4944740000000  0.4183840000000 1.0
C      1  0.4967580000000  0.4509060000000  0.5879320000000 1.0
C      1  0.4885770000000  0.5875900000000  0.4539310000000 1.0
C      1  0.4268400000000  0.4978070000000  0.4582750000000 1.0
C      1  0.5025200000000  0.4247700000000  0.5188390000000 1.0
C      1  0.5529780000000  0.4604770000000  0.5383760000000 1.0
C      1  0.4572770000000  0.5215260000000  0.5299190000000 1.0
C      1  0.4855730000000  0.5728170000000  0.5323520000000 1.0
C      1  0.4668680000000  0.4367980000000  0.4978410000000 1.0
C      1  0.5389090000000  0.5022170000000  0.4560100000000 1.0
C      1  0.4864240000000  0.5068690000000  0.4251860000000 1.0
C      1  0.4539580000000  0.5844650000000  0.4948530000000 1.0
END
