TITL C-2847950-6905-322 0.00316029061837617 125000 -376.927620784388 0 0 67 (C1) n - 1
REM
REM in /home/bkarasulu/work/CARBON/AIRSS/Generating-Clusters/AIREBO/with-SteepDescent/Only-C1/SD-CG-opt/Try1-1.4A-POS3A/HFTN-CG
REM
REM
REM
REM
REM
REM ./C.cell (11c1c37f851c82e70ff6c80c92926a4b)
REM
REM compiler GCC version 9.2.1 20190827 (Red Hat 9.2.1-1)
REM options -cpp -mtune=generic -march=x86-64 -g -O0 -fpre-include=/usr/include/finclude/math-vector-fortran.h
REM seed -1947358543 1949406789 349746999 1310959794 -651159440 127814984 215222213 1648431684 -647079552 -191521553 -2056121988 1808937489 2122885139 936568203 2038329221 -126456665 1478591432 436844947 -1829010028 -980226270 1626638950 148919508 -874865176 256441164 -468030316 153931073 -899951531 1877616805 1648833620 -582663311 1221745665 1435943428 1482770522
REM
CELL 1.54180   50.00000   50.00000   50.00000   90.00000   90.00000   90.00000
LATT -1
SFAC C  
C      1  0.4498800000000  0.5074380000000  0.5395820000000 1.0
C      1  0.4882170000000  0.4979130000000  0.4437190000000 1.0
C      1  0.5312970000000  0.5111540000000  0.5724020000000 1.0
C      1  0.4628040000000  0.5666950000000  0.4686960000000 1.0
C      1  0.4612660000000  0.5111690000000  0.4541320000000 1.0
C      1  0.5101910000000  0.4266130000000  0.5067130000000 1.0
C      1  0.4709030000000  0.4686280000000  0.4837440000000 1.0
C      1  0.5285060000000  0.5546710000000  0.4615480000000 1.0
C      1  0.5126480000000  0.4973480000000  0.5187430000000 1.0
C      1  0.5064700000000  0.5345030000000  0.4879850000000 1.0
C      1  0.5548820000000  0.5165780000000  0.4643990000000 1.0
C      1  0.4432550000000  0.4905530000000  0.4652930000000 1.0
C      1  0.4389690000000  0.5072890000000  0.5139340000000 1.0
C      1  0.4547680000000  0.5259430000000  0.6130320000000 1.0
C      1  0.5390690000000  0.4685180000000  0.4666490000000 1.0
C      1  0.4615220000000  0.4892420000000  0.5837420000000 1.0
C      1  0.4949380000000  0.5577730000000  0.4659840000000 1.0
C      1  0.5140820000000  0.4956270000000  0.4217370000000 1.0
C      1  0.5322160000000  0.5588560000000  0.5271840000000 1.0
C      1  0.4921880000000  0.4885800000000  0.4721230000000 1.0
C      1  0.5125180000000  0.4547950000000  0.4786530000000 1.0
C      1  0.4621780000000  0.5349600000000  0.4678780000000 1.0
C      1  0.4792930000000  0.5067790000000  0.4061150000000 1.0
C      1  0.4638110000000  0.5600830000000  0.5665650000000 1.0
C      1  0.4610020000000  0.4696150000000  0.4508000000000 1.0
C      1  0.5467470000000  0.4828570000000  0.5619320000000 1.0
C      1  0.5675100000000  0.4958350000000  0.5423480000000 1.0
C      1  0.5002690000000  0.5265610000000  0.4188410000000 1.0
C      1  0.5454780000000  0.5324930000000  0.5601880000000 1.0
C      1  0.5332950000000  0.4543520000000  0.5483500000000 1.0
C      1  0.4757200000000  0.4763420000000  0.4212370000000 1.0
C      1  0.4589080000000  0.4994700000000  0.6094690000000 1.0
C      1  0.4605580000000  0.4826910000000  0.6306100000000 1.0
C      1  0.4378960000000  0.5353380000000  0.5001240000000 1.0
C      1  0.4372110000000  0.5605180000000  0.4858350000000 1.0
C      1  0.4510280000000  0.4651330000000  0.5758620000000 1.0
C      1  0.5440070000000  0.4593330000000  0.4404220000000 1.0
C      1  0.5051880000000  0.5144000000000  0.5795310000000 1.0
C      1  0.5215810000000  0.4690310000000  0.5053030000000 1.0
C      1  0.5544600000000  0.5404060000000  0.5089790000000 1.0
C      1  0.5897600000000  0.4825740000000  0.5338630000000 1.0
C      1  0.5228290000000  0.4162780000000  0.4816350000000 1.0
C      1  0.5401290000000  0.4950190000000  0.4737030000000 1.0
C      1  0.5245970000000  0.4463930000000  0.5234070000000 1.0
C      1  0.5600670000000  0.5223820000000  0.5373510000000 1.0
C      1  0.4771650000000  0.5350400000000  0.4934370000000 1.0
C      1  0.5260260000000  0.4688530000000  0.4179870000000 1.0
C      1  0.4685790000000  0.4289190000000  0.4417960000000 1.0
C      1  0.4444740000000  0.4863830000000  0.4956920000000 1.0
C      1  0.4656470000000  0.5359540000000  0.5493190000000 1.0
C      1  0.4768400000000  0.5066390000000  0.5624290000000 1.0
C      1  0.5595290000000  0.5176320000000  0.4365730000000 1.0
C      1  0.5359940000000  0.5584310000000  0.5542280000000 1.0
C      1  0.4698160000000  0.4223120000000  0.4684800000000 1.0
C      1  0.4837450000000  0.4457400000000  0.4264950000000 1.0
C      1  0.5473490000000  0.5407810000000  0.4769400000000 1.0
C      1  0.5201100000000  0.4319850000000  0.4567420000000 1.0
C      1  0.4640800000000  0.5380140000000  0.5183930000000 1.0
C      1  0.5143790000000  0.4750900000000  0.5612830000000 1.0
C      1  0.5139040000000  0.5029690000000  0.4858400000000 1.0
C      1  0.5389110000000  0.5164470000000  0.4184790000000 1.0
C      1  0.5066510000000  0.5456770000000  0.4370190000000 1.0
C      1  0.4840120000000  0.4405980000000  0.4899420000000 1.0
C      1  0.5227270000000  0.5295190000000  0.5140240000000 1.0
C      1  0.4982950000000  0.4907920000000  0.5444240000000 1.0
C      1  0.4647020000000  0.5811540000000  0.5809360000000 1.0
C      1  0.5129530000000  0.4423410000000  0.4291970000000 1.0
END
