TITL C-2847947-6848-78 0.000406527845268043 125000 -504.832468326412 0 0 90 (C1) n - 1
REM
REM in /home/bkarasulu/work/CARBON/AIRSS/Generating-Clusters/AIREBO/with-SteepDescent/Only-C1/SD-CG-opt/Try1-1.4A-POS3A/HFTN-CG
REM
REM
REM
REM
REM
REM ./C.cell (11c1c37f851c82e70ff6c80c92926a4b)
REM
REM compiler GCC version 9.2.1 20190827 (Red Hat 9.2.1-1)
REM options -cpp -mtune=generic -march=x86-64 -g -O0 -fpre-include=/usr/include/finclude/math-vector-fortran.h
REM seed 446165146 -610877895 -1591859782 -359448002 -826667319 191372247 -884847100 -1085237104 865828047 350145536 104707257 -1207247060 -1285150688 -1576941223 -1366249911 -2048553623 -1417981254 -10445039 2076514999 -140336402 -1342565489 1889712099 2113873506 2111128651 165425496 -1861455784 692567845 -354213793 2128173572 -2043234895 -631449640 489615790 -1869979383
REM
CELL 1.54180   50.00000   50.00000   50.00000   90.00000   90.00000   90.00000
LATT -1
SFAC C  
C      1  0.4179650000000  0.5033990000000  0.4843170000000 1.0
C      1  0.4786070000000  0.4557700000000  0.5700610000000 1.0
C      1  0.4922710000000  0.4605250000000  0.5154020000000 1.0
C      1  0.5820140000000  0.4659140000000  0.4999290000000 1.0
C      1  0.4849780000000  0.4862130000000  0.5838270000000 1.0
C      1  0.5147280000000  0.4175870000000  0.4529150000000 1.0
C      1  0.4405620000000  0.4430110000000  0.4885040000000 1.0
C      1  0.5708570000000  0.4808170000000  0.5352610000000 1.0
C      1  0.4675620000000  0.5064950000000  0.4458670000000 1.0
C      1  0.4230190000000  0.5414480000000  0.5401300000000 1.0
C      1  0.5391250000000  0.4841390000000  0.5750210000000 1.0
C      1  0.5776120000000  0.4988330000000  0.5072270000000 1.0
C      1  0.5417190000000  0.5229620000000  0.4302660000000 1.0
C      1  0.5242310000000  0.4362040000000  0.5462920000000 1.0
C      1  0.4477350000000  0.5487000000000  0.5525080000000 1.0
C      1  0.4945220000000  0.5433410000000  0.4262730000000 1.0
C      1  0.5553600000000  0.5555470000000  0.4631850000000 1.0
C      1  0.4930980000000  0.4892120000000  0.4092670000000 1.0
C      1  0.5121910000000  0.4772020000000  0.5683390000000 1.0
C      1  0.5220380000000  0.5455230000000  0.4315280000000 1.0
C      1  0.4300450000000  0.5491090000000  0.4638750000000 1.0
C      1  0.4455650000000  0.5499580000000  0.4403700000000 1.0
C      1  0.4535350000000  0.4514610000000  0.5187780000000 1.0
C      1  0.5124590000000  0.5083610000000  0.5409180000000 1.0
C      1  0.4594750000000  0.4627460000000  0.4279640000000 1.0
C      1  0.4944320000000  0.4315350000000  0.4725510000000 1.0
C      1  0.5319100000000  0.4621960000000  0.4900280000000 1.0
C      1  0.4345660000000  0.4748920000000  0.4925550000000 1.0
C      1  0.4696600000000  0.5592770000000  0.5318600000000 1.0
C      1  0.5035700000000  0.4693020000000  0.4548160000000 1.0
C      1  0.5085280000000  0.4641320000000  0.5436710000000 1.0
C      1  0.4680100000000  0.4880360000000  0.4221460000000 1.0
C      1  0.4240190000000  0.5246110000000  0.5174760000000 1.0
C      1  0.5510220000000  0.5368540000000  0.4902210000000 1.0
C      1  0.4972230000000  0.5599470000000  0.5449390000000 1.0
C      1  0.5668680000000  0.5146890000000  0.5423730000000 1.0
C      1  0.5588220000000  0.4788110000000  0.4474520000000 1.0
C      1  0.5336670000000  0.4890260000000  0.5093810000000 1.0
C      1  0.5163830000000  0.5369100000000  0.5336010000000 1.0
C      1  0.4459920000000  0.5936260000000  0.4885030000000 1.0
C      1  0.4800110000000  0.4874660000000  0.4713110000000 1.0
C      1  0.5401800000000  0.4936140000000  0.5424340000000 1.0
C      1  0.5402990000000  0.4939240000000  0.4300030000000 1.0
C      1  0.5543540000000  0.5463010000000  0.5419040000000 1.0
C      1  0.4460850000000  0.5605680000000  0.4901730000000 1.0
C      1  0.5510690000000  0.4525820000000  0.4553010000000 1.0
C      1  0.4148830000000  0.5255750000000  0.4702690000000 1.0
C      1  0.5261200000000  0.5818430000000  0.4989410000000 1.0
C      1  0.4682910000000  0.4721830000000  0.4959170000000 1.0
C      1  0.4836640000000  0.5205820000000  0.5828280000000 1.0
C      1  0.5537320000000  0.4531960000000  0.5453530000000 1.0
C      1  0.4667180000000  0.5026650000000  0.5316190000000 1.0
C      1  0.5247230000000  0.4899070000000  0.4716850000000 1.0
C      1  0.5592540000000  0.5284530000000  0.4522680000000 1.0
C      1  0.4731680000000  0.5198360000000  0.4766350000000 1.0
C      1  0.5205160000000  0.3926150000000  0.4450300000000 1.0
C      1  0.5400260000000  0.5654630000000  0.5193030000000 1.0
C      1  0.4853980000000  0.5037140000000  0.5556050000000 1.0
C      1  0.5264610000000  0.4246770000000  0.5165580000000 1.0
C      1  0.5516480000000  0.5072050000000  0.4744680000000 1.0
C      1  0.5272420000000  0.5483690000000  0.5625440000000 1.0
C      1  0.4631150000000  0.5297700000000  0.5209810000000 1.0
C      1  0.4979120000000  0.5361210000000  0.4857770000000 1.0
C      1  0.5770890000000  0.4880880000000  0.4746230000000 1.0
C      1  0.5088440000000  0.4422950000000  0.4971030000000 1.0
C      1  0.4958820000000  0.5684070000000  0.4903110000000 1.0
C      1  0.5230880000000  0.5422320000000  0.5035200000000 1.0
C      1  0.5691470000000  0.5309980000000  0.5142830000000 1.0
C      1  0.5143670000000  0.4834120000000  0.4265800000000 1.0
C      1  0.5537430000000  0.4233700000000  0.5068400000000 1.0
C      1  0.5315290000000  0.5656810000000  0.4507980000000 1.0
C      1  0.5251550000000  0.4447040000000  0.4506320000000 1.0
C      1  0.4703610000000  0.5759640000000  0.5046810000000 1.0
C      1  0.4474700000000  0.5288740000000  0.4932270000000 1.0
C      1  0.4566590000000  0.4571910000000  0.5521610000000 1.0
C      1  0.5079300000000  0.5064470000000  0.4944760000000 1.0
C      1  0.4693640000000  0.5358990000000  0.4359030000000 1.0
C      1  0.4445270000000  0.4817370000000  0.5313920000000 1.0
C      1  0.4584320000000  0.4212610000000  0.5247910000000 1.0
C      1  0.5593230000000  0.4472230000000  0.4842700000000 1.0
C      1  0.5168700000000  0.5817090000000  0.4683100000000 1.0
C      1  0.4605190000000  0.4311960000000  0.4716340000000 1.0
C      1  0.4985230000000  0.4352360000000  0.5686450000000 1.0
C      1  0.3994640000000  0.5489930000000  0.5509530000000 1.0
C      1  0.5710480000000  0.4432850000000  0.5219500000000 1.0
C      1  0.4582050000000  0.5387700000000  0.5758300000000 1.0
C      1  0.4192670000000  0.4932320000000  0.5167530000000 1.0
C      1  0.4944380000000  0.4919610000000  0.5187130000000 1.0
C      1  0.5114780000000  0.5374320000000  0.5855870000000 1.0
C      1  0.4764660000000  0.4494530000000  0.4495290000000 1.0
END
