TITL C-2848500-1637-346 0.00290925844748716 125000 -968.318713645835 0 0 178 (C1) n - 1
REM
REM in /home/bkarasulu/work/CARBON/AIRSS/Generating-Clusters/AIREBO/with-SteepDescent/Only-C1/SD-CG-opt/Try1-1.4A-POS3A/HFTN-CG
REM
REM
REM
REM
REM
REM ./C.cell (11c1c37f851c82e70ff6c80c92926a4b)
REM
REM compiler GCC version 9.2.1 20190827 (Red Hat 9.2.1-1)
REM options -cpp -mtune=generic -march=x86-64 -g -O0 -fpre-include=/usr/include/finclude/math-vector-fortran.h
REM seed 700271267 912535281 1061268100 -506489757 1299910998 -1803350773 1820306408 365351377 -140322388 -695977622 -1315116305 1846755312 1858966053 -612373807 845507069 -342263477 1738616552 -1690034492 -403870947 -446653741 -1284672467 1958853251 -1719894215 693183136 -444146571 -1198667865 1138973246 432349113 2096544097 -734991491 826722490 2124824137 565685661
REM
CELL 1.54180   50.00000   50.00000   50.00000   90.00000   90.00000   90.00000
LATT -1
SFAC C  
C      1  0.5307860000000  0.5524320000000  0.4484650000000 1.0
C      1  0.4320350000000  0.4748220000000  0.5381940000000 1.0
C      1  0.5574200000000  0.4907980000000  0.5603810000000 1.0
C      1  0.4790850000000  0.5488820000000  0.6079160000000 1.0
C      1  0.4775430000000  0.5412240000000  0.5312300000000 1.0
C      1  0.4459010000000  0.4557680000000  0.4543600000000 1.0
C      1  0.4406270000000  0.4526730000000  0.5846690000000 1.0
C      1  0.5343710000000  0.5174150000000  0.3950730000000 1.0
C      1  0.4694970000000  0.4783060000000  0.5509450000000 1.0
C      1  0.5379480000000  0.4536670000000  0.6039140000000 1.0
C      1  0.4415100000000  0.5309140000000  0.4498700000000 1.0
C      1  0.4555380000000  0.4527470000000  0.4068910000000 1.0
C      1  0.4892430000000  0.4355960000000  0.5890100000000 1.0
C      1  0.4534920000000  0.5957410000000  0.5448380000000 1.0
C      1  0.4656050000000  0.4359460000000  0.4257630000000 1.0
C      1  0.4268660000000  0.4393170000000  0.4720470000000 1.0
C      1  0.5346830000000  0.5469440000000  0.4092720000000 1.0
C      1  0.4654010000000  0.4087040000000  0.4262400000000 1.0
C      1  0.5231020000000  0.4686390000000  0.5651400000000 1.0
C      1  0.5718460000000  0.5471710000000  0.4839630000000 1.0
C      1  0.5051720000000  0.5549470000000  0.5179720000000 1.0
C      1  0.4711330000000  0.4648940000000  0.5902030000000 1.0
C      1  0.4896580000000  0.5789740000000  0.4267680000000 1.0
C      1  0.4898570000000  0.3906310000000  0.5141050000000 1.0
C      1  0.4136310000000  0.5382830000000  0.4612340000000 1.0
C      1  0.5040330000000  0.4800050000000  0.5019800000000 1.0
C      1  0.4614280000000  0.5931170000000  0.5119970000000 1.0
C      1  0.5601500000000  0.5186870000000  0.4706800000000 1.0
C      1  0.5433680000000  0.5231910000000  0.5906940000000 1.0
C      1  0.5176430000000  0.5394810000000  0.4764060000000 1.0
C      1  0.4494960000000  0.4921510000000  0.5706510000000 1.0
C      1  0.4605670000000  0.5156040000000  0.4869430000000 1.0
C      1  0.5492430000000  0.5014890000000  0.4939220000000 1.0
C      1  0.5160880000000  0.4798230000000  0.5337900000000 1.0
C      1  0.5603020000000  0.4249950000000  0.4443510000000 1.0
C      1  0.4963640000000  0.3893170000000  0.4539810000000 1.0
C      1  0.5604760000000  0.4971660000000  0.5211730000000 1.0
C      1  0.4720210000000  0.5639870000000  0.4120830000000 1.0
C      1  0.5622470000000  0.4703250000000  0.4701620000000 1.0
C      1  0.5814220000000  0.4671800000000  0.5599320000000 1.0
C      1  0.5825500000000  0.4230070000000  0.4795820000000 1.0
C      1  0.5446160000000  0.5177380000000  0.5440530000000 1.0
C      1  0.5090740000000  0.5908950000000  0.4842130000000 1.0
C      1  0.5385780000000  0.4984460000000  0.6237830000000 1.0
C      1  0.5599670000000  0.5371570000000  0.5207290000000 1.0
C      1  0.5158550000000  0.4129270000000  0.4568920000000 1.0
C      1  0.4746470000000  0.3829970000000  0.4687680000000 1.0
C      1  0.4572100000000  0.4556070000000  0.5294000000000 1.0
C      1  0.5436280000000  0.4937910000000  0.4159170000000 1.0
C      1  0.5929550000000  0.4960460000000  0.5222170000000 1.0
C      1  0.4946600000000  0.5857920000000  0.5144290000000 1.0
C      1  0.4547200000000  0.4226940000000  0.4952220000000 1.0
C      1  0.4719100000000  0.5458260000000  0.4979840000000 1.0
C      1  0.4370700000000  0.5329050000000  0.4187060000000 1.0
C      1  0.6116020000000  0.4601290000000  0.4946560000000 1.0
C      1  0.5100640000000  0.4108620000000  0.5519860000000 1.0
C      1  0.4488400000000  0.5228040000000  0.5831820000000 1.0
C      1  0.5204440000000  0.4506590000000  0.5071110000000 1.0
C      1  0.5320150000000  0.5721460000000  0.5246990000000 1.0
C      1  0.5091850000000  0.4411220000000  0.4408280000000 1.0
C      1  0.5934340000000  0.5149320000000  0.4490150000000 1.0
C      1  0.5103100000000  0.5244760000000  0.5158130000000 1.0
C      1  0.5059710000000  0.5528720000000  0.5796420000000 1.0
C      1  0.4494360000000  0.5440810000000  0.5595440000000 1.0
C      1  0.4936800000000  0.4666430000000  0.5648100000000 1.0
C      1  0.5837740000000  0.4511840000000  0.5365640000000 1.0
C      1  0.5257280000000  0.4628050000000  0.4569270000000 1.0
C      1  0.5622130000000  0.5437490000000  0.4260050000000 1.0
C      1  0.4576150000000  0.4565020000000  0.4980670000000 1.0
C      1  0.5254670000000  0.4469750000000  0.4116630000000 1.0
C      1  0.5479880000000  0.4715760000000  0.5346440000000 1.0
C      1  0.4569400000000  0.5987620000000  0.4629620000000 1.0
C      1  0.5584810000000  0.4294600000000  0.5295930000000 1.0
C      1  0.5202580000000  0.4924850000000  0.4570140000000 1.0
C      1  0.4782430000000  0.4973520000000  0.5069000000000 1.0
C      1  0.5113830000000  0.4996600000000  0.4249860000000 1.0
C      1  0.4916350000000  0.5628200000000  0.4760930000000 1.0
C      1  0.4063020000000  0.5115710000000  0.4982190000000 1.0
C      1  0.5724800000000  0.4566830000000  0.4408560000000 1.0
C      1  0.5670780000000  0.5115870000000  0.4306680000000 1.0
C      1  0.4450020000000  0.5041000000000  0.5329840000000 1.0
C      1  0.5604120000000  0.5383370000000  0.5660210000000 1.0
C      1  0.5925060000000  0.4836820000000  0.4356400000000 1.0
C      1  0.4800180000000  0.4367000000000  0.5562750000000 1.0
C      1  0.4656770000000  0.4816370000000  0.4091960000000 1.0
C      1  0.5852870000000  0.5226310000000  0.5032870000000 1.0
C      1  0.4263460000000  0.4979050000000  0.4332870000000 1.0
C      1  0.5294880000000  0.5809130000000  0.5535350000000 1.0
C      1  0.4023280000000  0.4943230000000  0.4522490000000 1.0
C      1  0.4107460000000  0.4722240000000  0.5037180000000 1.0
C      1  0.4156730000000  0.4949240000000  0.5684750000000 1.0
C      1  0.5605410000000  0.5615600000000  0.4549810000000 1.0
C      1  0.4955590000000  0.4837880000000  0.3997830000000 1.0
C      1  0.3995850000000  0.4650780000000  0.5353230000000 1.0
C      1  0.5064340000000  0.5313430000000  0.4200410000000 1.0
C      1  0.4368380000000  0.4757020000000  0.4876560000000 1.0
C      1  0.5869830000000  0.5574290000000  0.5219400000000 1.0
C      1  0.5387960000000  0.5195050000000  0.4478120000000 1.0
C      1  0.4814430000000  0.4006720000000  0.5391810000000 1.0
C      1  0.5308660000000  0.4158240000000  0.4102040000000 1.0
C      1  0.5486470000000  0.4410630000000  0.4688390000000 1.0
C      1  0.5313720000000  0.4852760000000  0.5932550000000 1.0
C      1  0.6041660000000  0.4718460000000  0.4655670000000 1.0
C      1  0.4642420000000  0.5233470000000  0.3909990000000 1.0
C      1  0.4783520000000  0.5087660000000  0.4587740000000 1.0
C      1  0.5115040000000  0.5100510000000  0.5456690000000 1.0
C      1  0.4288640000000  0.5769930000000  0.5358410000000 1.0
C      1  0.4852370000000  0.4593370000000  0.4825890000000 1.0
C      1  0.4678320000000  0.5473860000000  0.4573210000000 1.0
C      1  0.4866310000000  0.5980760000000  0.5420800000000 1.0
C      1  0.5312880000000  0.5522130000000  0.5889970000000 1.0
C      1  0.5185330000000  0.5717970000000  0.4251990000000 1.0
C      1  0.4177860000000  0.5642700000000  0.4710330000000 1.0
C      1  0.5132620000000  0.4215460000000  0.5794860000000 1.0
C      1  0.4578900000000  0.5732990000000  0.5671560000000 1.0
C      1  0.5984220000000  0.4663320000000  0.5174880000000 1.0
C      1  0.5177750000000  0.3966600000000  0.5094640000000 1.0
C      1  0.5365000000000  0.4356460000000  0.5833410000000 1.0
C      1  0.4828460000000  0.4855250000000  0.4376590000000 1.0
C      1  0.4869110000000  0.5211630000000  0.5943860000000 1.0
C      1  0.4819280000000  0.5369660000000  0.5646860000000 1.0
C      1  0.4221960000000  0.5652110000000  0.4983560000000 1.0
C      1  0.5385190000000  0.5910490000000  0.5011040000000 1.0
C      1  0.4565510000000  0.4225580000000  0.5361380000000 1.0
C      1  0.5349010000000  0.5988860000000  0.4626470000000 1.0
C      1  0.5941710000000  0.4406240000000  0.4615600000000 1.0
C      1  0.4529290000000  0.4288050000000  0.5752730000000 1.0
C      1  0.4338910000000  0.5435800000000  0.5320380000000 1.0
C      1  0.5806690000000  0.4939810000000  0.4703890000000 1.0
C      1  0.5356070000000  0.4044030000000  0.5327090000000 1.0
C      1  0.4660770000000  0.4975000000000  0.5986640000000 1.0
C      1  0.4909250000000  0.6193070000000  0.4846370000000 1.0
C      1  0.5870140000000  0.5751930000000  0.4958500000000 1.0
C      1  0.5612970000000  0.5853100000000  0.4789770000000 1.0
C      1  0.4448600000000  0.5030440000000  0.4079380000000 1.0
C      1  0.5034450000000  0.5889640000000  0.5629670000000 1.0
C      1  0.4214210000000  0.4641690000000  0.5686950000000 1.0
C      1  0.3893670000000  0.4932630000000  0.5198450000000 1.0
C      1  0.4641970000000  0.6113460000000  0.4868580000000 1.0
C      1  0.5876070000000  0.5243020000000  0.5632040000000 1.0
C      1  0.4497840000000  0.5666990000000  0.5035410000000 1.0
C      1  0.5476230000000  0.5686570000000  0.5709760000000 1.0
C      1  0.4214660000000  0.4165070000000  0.4929470000000 1.0
C      1  0.5182210000000  0.5073410000000  0.4875300000000 1.0
C      1  0.5965970000000  0.5412550000000  0.4613800000000 1.0
C      1  0.4796620000000  0.4546590000000  0.4504320000000 1.0
C      1  0.5622430000000  0.4982580000000  0.5991810000000 1.0
C      1  0.4003770000000  0.5158730000000  0.4700360000000 1.0
C      1  0.5973180000000  0.5272790000000  0.5349380000000 1.0
C      1  0.3985990000000  0.5251990000000  0.5280150000000 1.0
C      1  0.5389470000000  0.4092340000000  0.4356980000000 1.0
C      1  0.3982540000000  0.5114500000000  0.5572490000000 1.0
C      1  0.5134540000000  0.5113580000000  0.5796850000000 1.0
C      1  0.5533670000000  0.4254260000000  0.4968670000000 1.0
C      1  0.4435250000000  0.5712280000000  0.4544000000000 1.0
C      1  0.5475790000000  0.4463280000000  0.5563620000000 1.0
C      1  0.4397140000000  0.5004070000000  0.4647810000000 1.0
C      1  0.4033250000000  0.5569130000000  0.5253980000000 1.0
C      1  0.4824440000000  0.5397050000000  0.4026680000000 1.0
C      1  0.4349340000000  0.5206910000000  0.5086980000000 1.0
C      1  0.5857150000000  0.4958490000000  0.5779970000000 1.0
C      1  0.4120220000000  0.4411660000000  0.5145970000000 1.0
C      1  0.5081590000000  0.4610630000000  0.3907820000000 1.0
C      1  0.4964130000000  0.5322450000000  0.4508490000000 1.0
C      1  0.4784830000000  0.5078550000000  0.5376840000000 1.0
C      1  0.4466840000000  0.5606830000000  0.4237040000000 1.0
C      1  0.5334940000000  0.5973270000000  0.4353970000000 1.0
C      1  0.5203840000000  0.4215700000000  0.4894880000000 1.0
C      1  0.5004700000000  0.4341990000000  0.5291860000000 1.0
C      1  0.5401600000000  0.5514210000000  0.4989580000000 1.0
C      1  0.5503920000000  0.4644200000000  0.4170610000000 1.0
C      1  0.4811010000000  0.5846770000000  0.4522580000000 1.0
C      1  0.4877500000000  0.4303600000000  0.4978770000000 1.0
C      1  0.4152580000000  0.4689010000000  0.4622780000000 1.0
C      1  0.4824950000000  0.5745400000000  0.5855850000000 1.0
C      1  0.4298500000000  0.4157150000000  0.5257550000000 1.0
C      1  0.4707800000000  0.3945140000000  0.4937240000000 1.0
C      1  0.5419870000000  0.4700190000000  0.4952250000000 1.0
END
