TITL C-2847956-8218-240 0.000837792734556033 125000 -617.290986127834 0 0 108 (C1) n - 1
REM
REM in /home/bkarasulu/work/CARBON/AIRSS/Generating-Clusters/AIREBO/with-SteepDescent/Only-C1/SD-CG-opt/Try1-1.4A-POS3A/HFTN-CG
REM
REM
REM
REM
REM
REM ./C.cell (11c1c37f851c82e70ff6c80c92926a4b)
REM
REM compiler GCC version 9.2.1 20190827 (Red Hat 9.2.1-1)
REM options -cpp -mtune=generic -march=x86-64 -g -O0 -fpre-include=/usr/include/finclude/math-vector-fortran.h
REM seed 1838126710 -1698811320 -265405314 -492529765 1351042019 -1365140159 2073003557 -1669578017 877615496 -1850660870 -827068146 -1550026087 -1815157132 -1245459514 424434377 -1247696193 -284760605 -501583474 -1299121835 1027705127 -392278174 -1509820990 -2109019123 1114125977 -1303901072 -235010561 -127353867 790563556 -1478513560 147801947 -2108951390 1767639065 1359098250
REM
CELL 1.54180   50.00000   50.00000   50.00000   90.00000   90.00000   90.00000
LATT -1
SFAC C  
C      1  0.4438280000000  0.4185460000000  0.4561080000000 1.0
C      1  0.4625960000000  0.4551240000000  0.5625520000000 1.0
C      1  0.5109020000000  0.4452330000000  0.4768790000000 1.0
C      1  0.4584590000000  0.5172560000000  0.4671240000000 1.0
C      1  0.5400440000000  0.5470340000000  0.5698320000000 1.0
C      1  0.5486010000000  0.5183440000000  0.5011900000000 1.0
C      1  0.5212420000000  0.5038510000000  0.5384760000000 1.0
C      1  0.5035900000000  0.4679670000000  0.5011690000000 1.0
C      1  0.4973500000000  0.5159040000000  0.4867930000000 1.0
C      1  0.4203980000000  0.5422430000000  0.4967410000000 1.0
C      1  0.4581840000000  0.4935230000000  0.4226260000000 1.0
C      1  0.5607200000000  0.4335020000000  0.4512140000000 1.0
C      1  0.4596880000000  0.5214180000000  0.5704300000000 1.0
C      1  0.5115850000000  0.5798200000000  0.5445320000000 1.0
C      1  0.4203130000000  0.5386140000000  0.5500450000000 1.0
C      1  0.5268440000000  0.5765650000000  0.5679190000000 1.0
C      1  0.4725390000000  0.4634740000000  0.4318460000000 1.0
C      1  0.5691750000000  0.5635410000000  0.4785370000000 1.0
C      1  0.5427410000000  0.4505960000000  0.4687860000000 1.0
C      1  0.5281620000000  0.5188520000000  0.4786300000000 1.0
C      1  0.5335890000000  0.5961150000000  0.4439310000000 1.0
C      1  0.4334700000000  0.5537510000000  0.5254050000000 1.0
C      1  0.5631820000000  0.5631980000000  0.5542770000000 1.0
C      1  0.5116120000000  0.4077980000000  0.4898450000000 1.0
C      1  0.5338090000000  0.4242180000000  0.5658050000000 1.0
C      1  0.4980740000000  0.5249780000000  0.5791820000000 1.0
C      1  0.4079030000000  0.4523800000000  0.4964690000000 1.0
C      1  0.4867230000000  0.4149720000000  0.5199530000000 1.0
C      1  0.4940710000000  0.4665250000000  0.4073370000000 1.0
C      1  0.5501850000000  0.4459660000000  0.5555610000000 1.0
C      1  0.5112400000000  0.4724950000000  0.4360720000000 1.0
C      1  0.5644510000000  0.4940630000000  0.5715670000000 1.0
C      1  0.5310760000000  0.5799290000000  0.5180880000000 1.0
C      1  0.5379800000000  0.5000590000000  0.5879720000000 1.0
C      1  0.4173500000000  0.5082200000000  0.4961300000000 1.0
C      1  0.5707180000000  0.5416990000000  0.5117210000000 1.0
C      1  0.5313010000000  0.5403750000000  0.5160710000000 1.0
C      1  0.4848930000000  0.4468610000000  0.4550310000000 1.0
C      1  0.4145340000000  0.4483350000000  0.5240130000000 1.0
C      1  0.4831140000000  0.4992150000000  0.4635110000000 1.0
C      1  0.4348450000000  0.5158010000000  0.5595350000000 1.0
C      1  0.5164100000000  0.5490240000000  0.4751040000000 1.0
C      1  0.5417310000000  0.5608850000000  0.4920120000000 1.0
C      1  0.4641480000000  0.4178830000000  0.5367660000000 1.0
C      1  0.4542390000000  0.4758920000000  0.4900240000000 1.0
C      1  0.5164260000000  0.4797120000000  0.5548130000000 1.0
C      1  0.4913850000000  0.5152860000000  0.5280230000000 1.0
C      1  0.5329380000000  0.4774610000000  0.4528140000000 1.0
C      1  0.4736660000000  0.4995560000000  0.5049170000000 1.0
C      1  0.4741550000000  0.5512870000000  0.4358880000000 1.0
C      1  0.5288500000000  0.4198920000000  0.5093000000000 1.0
C      1  0.4656320000000  0.5477010000000  0.4672150000000 1.0
C      1  0.4258380000000  0.5508890000000  0.4669270000000 1.0
C      1  0.4451850000000  0.5650320000000  0.4478120000000 1.0
C      1  0.5124700000000  0.5877540000000  0.4903700000000 1.0
C      1  0.4771910000000  0.5402630000000  0.4939360000000 1.0
C      1  0.5845280000000  0.5119570000000  0.5171400000000 1.0
C      1  0.5379110000000  0.5226370000000  0.4311790000000 1.0
C      1  0.4705950000000  0.5251820000000  0.4213600000000 1.0
C      1  0.4845630000000  0.4284080000000  0.4903310000000 1.0
C      1  0.4849790000000  0.5042970000000  0.5573700000000 1.0
C      1  0.4728980000000  0.4277900000000  0.5625220000000 1.0
C      1  0.5113790000000  0.4292840000000  0.5333030000000 1.0
C      1  0.4822470000000  0.4721340000000  0.4771760000000 1.0
C      1  0.4707790000000  0.4189830000000  0.4540330000000 1.0
C      1  0.4420800000000  0.5049820000000  0.5143960000000 1.0
C      1  0.6264660000000  0.4835450000000  0.4937290000000 1.0
C      1  0.5248680000000  0.5239190000000  0.5838540000000 1.0
C      1  0.4555830000000  0.5339930000000  0.5135060000000 1.0
C      1  0.4371860000000  0.4635860000000  0.5442730000000 1.0
C      1  0.5493300000000  0.5730720000000  0.4364820000000 1.0
C      1  0.5701780000000  0.5002790000000  0.5441030000000 1.0
C      1  0.4848420000000  0.4730040000000  0.5564150000000 1.0
C      1  0.4267410000000  0.5177740000000  0.4661500000000 1.0
C      1  0.4998710000000  0.5606200000000  0.5023450000000 1.0
C      1  0.5604500000000  0.5650590000000  0.5269320000000 1.0
C      1  0.5472770000000  0.4429230000000  0.5016140000000 1.0
C      1  0.4768520000000  0.5476900000000  0.5739660000000 1.0
C      1  0.5726840000000  0.5694380000000  0.4519990000000 1.0
C      1  0.4453310000000  0.4370040000000  0.5242130000000 1.0
C      1  0.5025230000000  0.4255590000000  0.5642130000000 1.0
C      1  0.5801060000000  0.4765760000000  0.5241830000000 1.0
C      1  0.4902990000000  0.4990260000000  0.4323640000000 1.0
C      1  0.4269960000000  0.4367770000000  0.4782230000000 1.0
C      1  0.4354490000000  0.4938410000000  0.5416030000000 1.0
C      1  0.5213160000000  0.5350520000000  0.5456110000000 1.0
C      1  0.4918720000000  0.4493540000000  0.3861160000000 1.0
C      1  0.5128340000000  0.5876740000000  0.4622380000000 1.0
C      1  0.5634380000000  0.4517490000000  0.5286850000000 1.0
C      1  0.5093330000000  0.4966280000000  0.4042620000000 1.0
C      1  0.5319940000000  0.5503750000000  0.4345990000000 1.0
C      1  0.4805050000000  0.5666280000000  0.5488240000000 1.0
C      1  0.5376720000000  0.5053970000000  0.4539350000000 1.0
C      1  0.4553510000000  0.4431900000000  0.4944490000000 1.0
C      1  0.5454890000000  0.4963240000000  0.5210410000000 1.0
C      1  0.5025000000000  0.5588270000000  0.4475650000000 1.0
C      1  0.5319920000000  0.5107720000000  0.4060010000000 1.0
C      1  0.4946080000000  0.5471400000000  0.5292660000000 1.0
C      1  0.5347380000000  0.4710190000000  0.5087790000000 1.0
C      1  0.5043100000000  0.4592920000000  0.5318450000000 1.0
C      1  0.6034150000000  0.4884340000000  0.5044150000000 1.0
C      1  0.4067390000000  0.4789970000000  0.4870450000000 1.0
C      1  0.6485680000000  0.4782960000000  0.4806570000000 1.0
C      1  0.4408190000000  0.4712760000000  0.4412840000000 1.0
C      1  0.5416160000000  0.4714170000000  0.5694390000000 1.0
C      1  0.4272800000000  0.4441610000000  0.4453360000000 1.0
C      1  0.4530970000000  0.5762830000000  0.5368090000000 1.0
C      1  0.4341810000000  0.4854960000000  0.4680010000000 1.0
END
