TITL C-2847951-7423-469 -0.00142860940000841 125000 -553.871302838481 0 0 103 (C1) n - 1
REM
REM in /home/bkarasulu/work/CARBON/AIRSS/Generating-Clusters/AIREBO/with-SteepDescent/Only-C1/SD-CG-opt/Try1-1.4A-POS3A/HFTN-CG
REM
REM
REM
REM
REM
REM ./C.cell (11c1c37f851c82e70ff6c80c92926a4b)
REM
REM compiler GCC version 9.2.1 20190827 (Red Hat 9.2.1-1)
REM options -cpp -mtune=generic -march=x86-64 -g -O0 -fpre-include=/usr/include/finclude/math-vector-fortran.h
REM seed -922674401 -1420760446 -755858203 272896689 -1113873279 1904521320 1187430729 -1595445588 1573049112 -945929990 -1679853833 622032399 -851688358 -948704118 1174415745 -811360417 -1203013229 196776946 1369060868 1926381760 -1857253765 930695522 -497577515 1036421598 -932161233 1271190652 -1628920248 -1170451345 -1334635507 -1111151078 807360456 793051214 1717267053
REM
CELL 1.54180   50.00000   50.00000   50.00000   90.00000   90.00000   90.00000
LATT -1
SFAC C  
C      1  0.5214270000000  0.4385360000000  0.5242930000000 1.0
C      1  0.5102140000000  0.4593400000000  0.4327290000000 1.0
C      1  0.5242590000000  0.4961680000000  0.4530560000000 1.0
C      1  0.4369970000000  0.5465250000000  0.4213090000000 1.0
C      1  0.5701850000000  0.4732760000000  0.4691310000000 1.0
C      1  0.5409220000000  0.4931040000000  0.5085490000000 1.0
C      1  0.5004360000000  0.5110720000000  0.5368790000000 1.0
C      1  0.4455480000000  0.4457620000000  0.5493300000000 1.0
C      1  0.4945710000000  0.4899070000000  0.4990820000000 1.0
C      1  0.5313990000000  0.5547720000000  0.4414860000000 1.0
C      1  0.4430970000000  0.5184920000000  0.5413850000000 1.0
C      1  0.5572870000000  0.4838200000000  0.4123200000000 1.0
C      1  0.4771380000000  0.4713840000000  0.5216880000000 1.0
C      1  0.5047590000000  0.4602510000000  0.4859300000000 1.0
C      1  0.5409620000000  0.4662800000000  0.5264980000000 1.0
C      1  0.5421440000000  0.4160010000000  0.5107860000000 1.0
C      1  0.5135200000000  0.5321700000000  0.4909660000000 1.0
C      1  0.4928170000000  0.5044270000000  0.4429920000000 1.0
C      1  0.4503580000000  0.4786180000000  0.5020180000000 1.0
C      1  0.5030030000000  0.4597900000000  0.5404760000000 1.0
C      1  0.4698720000000  0.4266190000000  0.5502790000000 1.0
C      1  0.5517560000000  0.4493900000000  0.5610220000000 1.0
C      1  0.4962520000000  0.4351030000000  0.5049180000000 1.0
C      1  0.5356740000000  0.5680660000000  0.5561720000000 1.0
C      1  0.4024930000000  0.4529630000000  0.4829010000000 1.0
C      1  0.4487940000000  0.5829660000000  0.5311090000000 1.0
C      1  0.5026440000000  0.5626230000000  0.4976500000000 1.0
C      1  0.5281270000000  0.5171100000000  0.4099580000000 1.0
C      1  0.4754600000000  0.5194890000000  0.4044690000000 1.0
C      1  0.4687180000000  0.5963830000000  0.4659220000000 1.0
C      1  0.5809570000000  0.5122440000000  0.5056440000000 1.0
C      1  0.5710030000000  0.4803820000000  0.4990960000000 1.0
C      1  0.5015960000000  0.5121660000000  0.4121150000000 1.0
C      1  0.5231710000000  0.5007050000000  0.4841870000000 1.0
C      1  0.4505330000000  0.5556720000000  0.5286720000000 1.0
C      1  0.5671910000000  0.4840880000000  0.6002190000000 1.0
C      1  0.4203110000000  0.4856520000000  0.5126700000000 1.0
C      1  0.4858650000000  0.5219620000000  0.5079410000000 1.0
C      1  0.4855240000000  0.4231470000000  0.4469240000000 1.0
C      1  0.4042840000000  0.4710220000000  0.4622080000000 1.0
C      1  0.5702860000000  0.5083460000000  0.5373550000000 1.0
C      1  0.5101870000000  0.5114290000000  0.5963900000000 1.0
C      1  0.5077820000000  0.4859170000000  0.5539810000000 1.0
C      1  0.4994580000000  0.4094730000000  0.4884170000000 1.0
C      1  0.5075220000000  0.5332760000000  0.5798660000000 1.0
C      1  0.4123290000000  0.5249210000000  0.4628030000000 1.0
C      1  0.5809010000000  0.5178720000000  0.4745660000000 1.0
C      1  0.5240630000000  0.5797810000000  0.5266020000000 1.0
C      1  0.5530730000000  0.5394060000000  0.4446680000000 1.0
C      1  0.5336250000000  0.4471120000000  0.4872870000000 1.0
C      1  0.4367070000000  0.5389890000000  0.5078130000000 1.0
C      1  0.4182620000000  0.5136760000000  0.5210940000000 1.0
C      1  0.4581020000000  0.4899020000000  0.5718010000000 1.0
C      1  0.5619370000000  0.5365790000000  0.5198680000000 1.0
C      1  0.5133390000000  0.5946060000000  0.4979450000000 1.0
C      1  0.5199110000000  0.4850850000000  0.5827900000000 1.0
C      1  0.4688770000000  0.4385910000000  0.5180550000000 1.0
C      1  0.5281140000000  0.4394540000000  0.5688770000000 1.0
C      1  0.4737640000000  0.4770490000000  0.4363190000000 1.0
C      1  0.4349750000000  0.4403340000000  0.5204750000000 1.0
C      1  0.5385070000000  0.4706360000000  0.4356940000000 1.0
C      1  0.5317050000000  0.5431120000000  0.5682290000000 1.0
C      1  0.5054400000000  0.5807660000000  0.4679030000000 1.0
C      1  0.5636870000000  0.5397420000000  0.4705250000000 1.0
C      1  0.5455910000000  0.5236500000000  0.5537910000000 1.0
C      1  0.4816660000000  0.5459200000000  0.5317170000000 1.0
C      1  0.5581400000000  0.4443280000000  0.5103790000000 1.0
C      1  0.4167460000000  0.4566300000000  0.5070510000000 1.0
C      1  0.5091070000000  0.4559230000000  0.5884690000000 1.0
C      1  0.5460960000000  0.5420500000000  0.4926110000000 1.0
C      1  0.4637890000000  0.4486070000000  0.4528940000000 1.0
C      1  0.4777140000000  0.5702200000000  0.4493560000000 1.0
C      1  0.5064070000000  0.4146660000000  0.4625440000000 1.0
C      1  0.4581900000000  0.4721310000000  0.5499260000000 1.0
C      1  0.4828690000000  0.5366740000000  0.4472720000000 1.0
C      1  0.4854400000000  0.5296720000000  0.5593140000000 1.0
C      1  0.5502660000000  0.4842030000000  0.5804110000000 1.0
C      1  0.4278730000000  0.4903380000000  0.4579460000000 1.0
C      1  0.4946060000000  0.4380700000000  0.5632640000000 1.0
C      1  0.4740750000000  0.5940580000000  0.5241410000000 1.0
C      1  0.4552980000000  0.5260340000000  0.4310540000000 1.0
C      1  0.5081860000000  0.5475620000000  0.4611210000000 1.0
C      1  0.5416720000000  0.4044810000000  0.4856400000000 1.0
C      1  0.4483480000000  0.4934750000000  0.4329420000000 1.0
C      1  0.4536400000000  0.4757060000000  0.4707960000000 1.0
C      1  0.5880460000000  0.4562730000000  0.5137640000000 1.0
C      1  0.4794940000000  0.5949710000000  0.4946580000000 1.0
C      1  0.4774790000000  0.4949820000000  0.4718340000000 1.0
C      1  0.5545400000000  0.4544100000000  0.4549880000000 1.0
C      1  0.4581000000000  0.5171120000000  0.5643500000000 1.0
C      1  0.4605190000000  0.5329360000000  0.4880520000000 1.0
C      1  0.4935610000000  0.5754220000000  0.5341630000000 1.0
C      1  0.5378020000000  0.4263600000000  0.4608500000000 1.0
C      1  0.4446060000000  0.5195110000000  0.4629970000000 1.0
C      1  0.5587230000000  0.4806670000000  0.5495960000000 1.0
C      1  0.5499420000000  0.5088000000000  0.4346890000000 1.0
C      1  0.4942210000000  0.4605090000000  0.4578610000000 1.0
C      1  0.5544520000000  0.5649220000000  0.5305700000000 1.0
C      1  0.4573270000000  0.5062070000000  0.5176220000000 1.0
C      1  0.4027510000000  0.5402400000000  0.5066100000000 1.0
C      1  0.5741410000000  0.4978230000000  0.4561490000000 1.0
C      1  0.4740010000000  0.5609320000000  0.4818510000000 1.0
C      1  0.5307560000000  0.5100210000000  0.5324550000000 1.0
END
