TITL C-2847956-8218-337 -0.00222862379901604 125000 -1025.46235716109 0 0 188 (C1) n - 1
REM
REM in /home/bkarasulu/work/CARBON/AIRSS/Generating-Clusters/AIREBO/with-SteepDescent/Only-C1/SD-CG-opt/Try1-1.4A-POS3A/HFTN-CG
REM
REM
REM
REM
REM
REM ./C.cell (11c1c37f851c82e70ff6c80c92926a4b)
REM
REM compiler GCC version 9.2.1 20190827 (Red Hat 9.2.1-1)
REM options -cpp -mtune=generic -march=x86-64 -g -O0 -fpre-include=/usr/include/finclude/math-vector-fortran.h
REM seed 1766151125 -1594936470 927452405 -389348075 -857421175 290422042 -560083995 -639792556 1473608848 -987930728 -1795496064 -1069768268 -1181906139 94361933 786189557 337497108 -1710183722 2058101178 1633482890 -356549467 -613026652 -2006016237 -1070493445 1955287773 -1530520547 2009446394 608079519 -553712079 480228993 -2013758386 -70701611 1453400888 245372489
REM
CELL 1.54180   50.00000   50.00000   50.00000   90.00000   90.00000   90.00000
LATT -1
SFAC C  
C      1  0.6066530000000  0.4652060000000  0.4936440000000 1.0
C      1  0.5320370000000  0.5679380000000  0.4562800000000 1.0
C      1  0.5830450000000  0.5882430000000  0.5713790000000 1.0
C      1  0.5724290000000  0.4420410000000  0.4413520000000 1.0
C      1  0.5606610000000  0.5558530000000  0.4424530000000 1.0
C      1  0.4882790000000  0.4557600000000  0.4249000000000 1.0
C      1  0.4392650000000  0.4885130000000  0.5718800000000 1.0
C      1  0.5041380000000  0.5037080000000  0.5328780000000 1.0
C      1  0.4737580000000  0.4899030000000  0.3586550000000 1.0
C      1  0.5179390000000  0.4706240000000  0.5677690000000 1.0
C      1  0.5003590000000  0.4387660000000  0.3996620000000 1.0
C      1  0.4322850000000  0.4407230000000  0.5598610000000 1.0
C      1  0.4208590000000  0.4923140000000  0.4283940000000 1.0
C      1  0.5169760000000  0.4185800000000  0.4214080000000 1.0
C      1  0.3980820000000  0.4838260000000  0.5246960000000 1.0
C      1  0.4911920000000  0.4538230000000  0.5594630000000 1.0
C      1  0.4311980000000  0.5299510000000  0.5364560000000 1.0
C      1  0.3724090000000  0.5407240000000  0.4723390000000 1.0
C      1  0.6017410000000  0.4353000000000  0.5303620000000 1.0
C      1  0.4731800000000  0.5374450000000  0.5653510000000 1.0
C      1  0.4567970000000  0.5825880000000  0.5547670000000 1.0
C      1  0.4676880000000  0.5085260000000  0.4021660000000 1.0
C      1  0.5000010000000  0.3980790000000  0.5617600000000 1.0
C      1  0.5016900000000  0.4747690000000  0.6040490000000 1.0
C      1  0.5451370000000  0.5322650000000  0.5067140000000 1.0
C      1  0.5111400000000  0.6148250000000  0.4526290000000 1.0
C      1  0.5910130000000  0.5205630000000  0.4953970000000 1.0
C      1  0.5315460000000  0.4670430000000  0.4030000000000 1.0
C      1  0.4626350000000  0.4640640000000  0.5754370000000 1.0
C      1  0.5133020000000  0.5249810000000  0.4276000000000 1.0
C      1  0.4387350000000  0.5128590000000  0.4967310000000 1.0
C      1  0.4778980000000  0.5508610000000  0.4937520000000 1.0
C      1  0.5928360000000  0.5091130000000  0.4634210000000 1.0
C      1  0.4592360000000  0.4299480000000  0.4882640000000 1.0
C      1  0.4414060000000  0.5544000000000  0.3972070000000 1.0
C      1  0.4848140000000  0.5637240000000  0.4230310000000 1.0
C      1  0.4231740000000  0.5149630000000  0.5654920000000 1.0
C      1  0.4146640000000  0.4568170000000  0.5033850000000 1.0
C      1  0.5932220000000  0.5021430000000  0.5530520000000 1.0
C      1  0.5320130000000  0.6205550000000  0.5621700000000 1.0
C      1  0.4673260000000  0.4705510000000  0.5139380000000 1.0
C      1  0.5678750000000  0.5816890000000  0.5518610000000 1.0
C      1  0.5539880000000  0.4473200000000  0.4875660000000 1.0
C      1  0.4595950000000  0.5205260000000  0.5299360000000 1.0
C      1  0.4506230000000  0.5844080000000  0.4507990000000 1.0
C      1  0.4451400000000  0.5459120000000  0.5025720000000 1.0
C      1  0.4197920000000  0.4250680000000  0.4923440000000 1.0
C      1  0.5326210000000  0.5996410000000  0.5466080000000 1.0
C      1  0.4999950000000  0.5316440000000  0.3976910000000 1.0
C      1  0.5819220000000  0.4350040000000  0.5556950000000 1.0
C      1  0.5691780000000  0.4319470000000  0.5242740000000 1.0
C      1  0.5191570000000  0.5216290000000  0.5827390000000 1.0
C      1  0.5525660000000  0.5569970000000  0.5370640000000 1.0
C      1  0.5786210000000  0.5268940000000  0.4381610000000 1.0
C      1  0.4774380000000  0.5433460000000  0.5253890000000 1.0
C      1  0.4046140000000  0.5171220000000  0.4355400000000 1.0
C      1  0.5596040000000  0.4669840000000  0.4608130000000 1.0
C      1  0.5271320000000  0.5664680000000  0.5158290000000 1.0
C      1  0.5646430000000  0.5885380000000  0.4460890000000 1.0
C      1  0.5718870000000  0.5422990000000  0.4677240000000 1.0
C      1  0.5854450000000  0.4616000000000  0.5688410000000 1.0
C      1  0.4860090000000  0.5885260000000  0.5287430000000 1.0
C      1  0.5951350000000  0.5590660000000  0.4786910000000 1.0
C      1  0.4593420000000  0.4311510000000  0.5675560000000 1.0
C      1  0.5052630000000  0.4780190000000  0.4358800000000 1.0
C      1  0.5293020000000  0.3963590000000  0.4372680000000 1.0
C      1  0.4227200000000  0.5818410000000  0.4704850000000 1.0
C      1  0.4223000000000  0.4592560000000  0.5786470000000 1.0
C      1  0.5115160000000  0.3988430000000  0.4837340000000 1.0
C      1  0.5043970000000  0.5083840000000  0.4627740000000 1.0
C      1  0.5520820000000  0.6009730000000  0.4957930000000 1.0
C      1  0.4340850000000  0.4049920000000  0.5061390000000 1.0
C      1  0.6097290000000  0.4930100000000  0.4877060000000 1.0
C      1  0.4767650000000  0.4710480000000  0.4624480000000 1.0
C      1  0.3928780000000  0.5094510000000  0.5652160000000 1.0
C      1  0.5154310000000  0.3959970000000  0.5374460000000 1.0
C      1  0.4609380000000  0.5930900000000  0.4776700000000 1.0
C      1  0.5034180000000  0.5749530000000  0.5771180000000 1.0
C      1  0.4906830000000  0.4601750000000  0.4915060000000 1.0
C      1  0.5721710000000  0.4161560000000  0.4519030000000 1.0
C      1  0.5384450000000  0.4610950000000  0.5915490000000 1.0
C      1  0.5149570000000  0.3858470000000  0.4599770000000 1.0
C      1  0.5616180000000  0.4823030000000  0.3986080000000 1.0
C      1  0.4262350000000  0.5322430000000  0.4552870000000 1.0
C      1  0.5709940000000  0.5121420000000  0.4119510000000 1.0
C      1  0.5007080000000  0.4344800000000  0.4716200000000 1.0
C      1  0.4724050000000  0.5045870000000  0.5566120000000 1.0
C      1  0.5104260000000  0.5760240000000  0.5438650000000 1.0
C      1  0.4221670000000  0.4230320000000  0.4607850000000 1.0
C      1  0.5131300000000  0.5535170000000  0.5929150000000 1.0
C      1  0.5001120000000  0.5338200000000  0.4827190000000 1.0
C      1  0.4189910000000  0.5573660000000  0.5303040000000 1.0
C      1  0.5413570000000  0.4535180000000  0.5523970000000 1.0
C      1  0.4402670000000  0.5411570000000  0.5733840000000 1.0
C      1  0.4238310000000  0.3969780000000  0.4506720000000 1.0
C      1  0.4585370000000  0.5691560000000  0.5235520000000 1.0
C      1  0.5709840000000  0.4901590000000  0.4793750000000 1.0
C      1  0.5020230000000  0.5092640000000  0.5023740000000 1.0
C      1  0.4295100000000  0.5601020000000  0.4456890000000 1.0
C      1  0.5573890000000  0.3963440000000  0.4385010000000 1.0
C      1  0.5631750000000  0.5101460000000  0.5669400000000 1.0
C      1  0.4831970000000  0.5789550000000  0.4869960000000 1.0
C      1  0.5213150000000  0.4950580000000  0.6039060000000 1.0
C      1  0.5394160000000  0.5111210000000  0.4124550000000 1.0
C      1  0.4251230000000  0.5728460000000  0.5020950000000 1.0
C      1  0.5471190000000  0.4818650000000  0.5147010000000 1.0
C      1  0.5759320000000  0.5412650000000  0.5179860000000 1.0
C      1  0.4067160000000  0.5069730000000  0.4869140000000 1.0
C      1  0.4839990000000  0.4172070000000  0.5747290000000 1.0
C      1  0.5106720000000  0.4430030000000  0.5129950000000 1.0
C      1  0.4752490000000  0.5704630000000  0.5710780000000 1.0
C      1  0.5294030000000  0.4482410000000  0.4253010000000 1.0
C      1  0.4541840000000  0.4986210000000  0.4317670000000 1.0
C      1  0.3686870000000  0.4732570000000  0.4849170000000 1.0
C      1  0.5452690000000  0.4306500000000  0.5895200000000 1.0
C      1  0.4971530000000  0.4096400000000  0.5126110000000 1.0
C      1  0.4510600000000  0.4441390000000  0.5126670000000 1.0
C      1  0.4491290000000  0.4407200000000  0.4615920000000 1.0
C      1  0.5427880000000  0.4041320000000  0.5354720000000 1.0
C      1  0.4654510000000  0.4070590000000  0.5085710000000 1.0
C      1  0.5514540000000  0.4226390000000  0.5586820000000 1.0
C      1  0.4930170000000  0.4441140000000  0.5920020000000 1.0
C      1  0.4388510000000  0.4731100000000  0.4584260000000 1.0
C      1  0.4925320000000  0.6150920000000  0.5103490000000 1.0
C      1  0.5416440000000  0.4512020000000  0.5190080000000 1.0
C      1  0.4300720000000  0.4850900000000  0.5143670000000 1.0
C      1  0.4701140000000  0.4629920000000  0.6085880000000 1.0
C      1  0.4020300000000  0.4414930000000  0.4455230000000 1.0
C      1  0.5103800000000  0.5894060000000  0.4971120000000 1.0
C      1  0.4238300000000  0.5608660000000  0.5607060000000 1.0
C      1  0.4839430000000  0.4170330000000  0.4206090000000 1.0
C      1  0.4508950000000  0.4834230000000  0.5407780000000 1.0
C      1  0.5260370000000  0.5277990000000  0.5312230000000 1.0
C      1  0.4883820000000  0.5297080000000  0.5947630000000 1.0
C      1  0.5926740000000  0.4888070000000  0.5832320000000 1.0
C      1  0.5031180000000  0.4716540000000  0.3913890000000 1.0
C      1  0.4905670000000  0.4751980000000  0.5353210000000 1.0
C      1  0.5938290000000  0.5640050000000  0.5035020000000 1.0
C      1  0.5515110000000  0.5170990000000  0.4780150000000 1.0
C      1  0.4251370000000  0.5609600000000  0.4150230000000 1.0
C      1  0.5545900000000  0.4109810000000  0.5041580000000 1.0
C      1  0.4364200000000  0.4668580000000  0.6052610000000 1.0
C      1  0.4818150000000  0.4900330000000  0.3846970000000 1.0
C      1  0.5421140000000  0.5318960000000  0.5591710000000 1.0
C      1  0.4232010000000  0.4376270000000  0.5301380000000 1.0
C      1  0.4960620000000  0.4308370000000  0.5391950000000 1.0
C      1  0.3947520000000  0.5262960000000  0.4661010000000 1.0
C      1  0.4728980000000  0.5874990000000  0.4317490000000 1.0
C      1  0.6111470000000  0.4603620000000  0.5223160000000 1.0
C      1  0.5305570000000  0.4968080000000  0.4955020000000 1.0
C      1  0.5700120000000  0.5006740000000  0.5988700000000 1.0
C      1  0.5308920000000  0.4247530000000  0.4839800000000 1.0
C      1  0.4605680000000  0.4662620000000  0.4336090000000 1.0
C      1  0.4652340000000  0.5162160000000  0.6102130000000 1.0
C      1  0.5300570000000  0.5988550000000  0.4061000000000 1.0
C      1  0.4607350000000  0.6090980000000  0.5193810000000 1.0
C      1  0.4082950000000  0.4710340000000  0.4517840000000 1.0
C      1  0.4690790000000  0.5422630000000  0.4018530000000 1.0
C      1  0.3830100000000  0.4968720000000  0.5429810000000 1.0
C      1  0.4998210000000  0.5437440000000  0.5451330000000 1.0
C      1  0.5389110000000  0.5860520000000  0.4278860000000 1.0
C      1  0.5341690000000  0.5132590000000  0.4517580000000 1.0
C      1  0.5275930000000  0.5968760000000  0.4725470000000 1.0
C      1  0.5539160000000  0.5923860000000  0.5238290000000 1.0
C      1  0.5672240000000  0.6014670000000  0.4706190000000 1.0
C      1  0.3990920000000  0.4774890000000  0.4820800000000 1.0
C      1  0.5777660000000  0.4164310000000  0.4798830000000 1.0
C      1  0.5489330000000  0.4866230000000  0.6095580000000 1.0
C      1  0.4872750000000  0.5048110000000  0.4366210000000 1.0
C      1  0.5501420000000  0.4886270000000  0.4363400000000 1.0
C      1  0.4043470000000  0.4160350000000  0.5303040000000 1.0
C      1  0.4781680000000  0.4336950000000  0.4487260000000 1.0
C      1  0.5267720000000  0.4625230000000  0.4549350000000 1.0
C      1  0.5262760000000  0.5509940000000  0.4854730000000 1.0
C      1  0.4458610000000  0.5058810000000  0.4642250000000 1.0
C      1  0.4699780000000  0.5020940000000  0.5047580000000 1.0
C      1  0.5878670000000  0.4456410000000  0.4842270000000 1.0
C      1  0.5751520000000  0.4875900000000  0.5112990000000 1.0
C      1  0.5952970000000  0.5319300000000  0.5432750000000 1.0
C      1  0.5074350000000  0.5542270000000  0.4371280000000 1.0
C      1  0.5944830000000  0.4827440000000  0.5306880000000 1.0
C      1  0.4489990000000  0.4964250000000  0.6034850000000 1.0
C      1  0.4441470000000  0.5991510000000  0.4992380000000 1.0
C      1  0.5126090000000  0.4801700000000  0.4765330000000 1.0
C      1  0.4897870000000  0.6096530000000  0.4362580000000 1.0
C      1  0.5049600000000  0.4983590000000  0.5643110000000 1.0
C      1  0.5572000000000  0.4779240000000  0.5686510000000 1.0
C      1  0.5664830000000  0.4625800000000  0.4218070000000 1.0
END
