TITL C-2847955-7945-395 -0.000586695465285545 125000 -444.339645128195 0 0 80 (C1) n - 1
REM
REM in /home/bkarasulu/work/CARBON/AIRSS/Generating-Clusters/AIREBO/with-SteepDescent/Only-C1/SD-CG-opt/Try1-1.4A-POS3A/HFTN-CG
REM
REM
REM
REM
REM
REM ./C.cell (11c1c37f851c82e70ff6c80c92926a4b)
REM
REM compiler GCC version 9.2.1 20190827 (Red Hat 9.2.1-1)
REM options -cpp -mtune=generic -march=x86-64 -g -O0 -fpre-include=/usr/include/finclude/math-vector-fortran.h
REM seed 2072988721 737936118 -150430214 1289021399 1325430032 1953952944 940484479 438642952 -2086616841 -714132782 722015095 1504125888 1305280199 123553576 289773517 916429272 -57583306 735211444 1297521851 -408501637 480580263 2032430394 -333003100 -2028449620 1389069783 1760219725 1785219317 1055740041 -1620637942 935151620 -563000738 55773858 -180800350
REM
CELL 1.54180   50.00000   50.00000   50.00000   90.00000   90.00000   90.00000
LATT -1
SFAC C  
C      1  0.5747630000000  0.5108330000000  0.5337250000000 1.0
C      1  0.5765720000000  0.5424380000000  0.4252540000000 1.0
C      1  0.4945610000000  0.5206260000000  0.4144840000000 1.0
C      1  0.5316710000000  0.4449410000000  0.5096860000000 1.0
C      1  0.4451050000000  0.4967040000000  0.5318550000000 1.0
C      1  0.5416280000000  0.5818730000000  0.5600190000000 1.0
C      1  0.4843680000000  0.4515020000000  0.4247390000000 1.0
C      1  0.4647930000000  0.4436000000000  0.5508900000000 1.0
C      1  0.4649140000000  0.5541420000000  0.5248600000000 1.0
C      1  0.5517660000000  0.5474930000000  0.4905820000000 1.0
C      1  0.5111950000000  0.5152200000000  0.5306120000000 1.0
C      1  0.5204430000000  0.4904510000000  0.4185410000000 1.0
C      1  0.4715960000000  0.4756140000000  0.4920560000000 1.0
C      1  0.4590660000000  0.5452630000000  0.4753340000000 1.0
C      1  0.5230610000000  0.4859300000000  0.5621620000000 1.0
C      1  0.4493020000000  0.4419730000000  0.5251430000000 1.0
C      1  0.5459210000000  0.5718510000000  0.5137050000000 1.0
C      1  0.4721620000000  0.4449480000000  0.5026570000000 1.0
C      1  0.4909180000000  0.4452140000000  0.5725910000000 1.0
C      1  0.5235330000000  0.5104680000000  0.5796450000000 1.0
C      1  0.4358230000000  0.5445830000000  0.5359880000000 1.0
C      1  0.4841430000000  0.4284960000000  0.4600390000000 1.0
C      1  0.4427320000000  0.5202300000000  0.4314470000000 1.0
C      1  0.5543950000000  0.5434700000000  0.5231200000000 1.0
C      1  0.5358670000000  0.5203060000000  0.4825200000000 1.0
C      1  0.5057510000000  0.5263760000000  0.4780050000000 1.0
C      1  0.5359510000000  0.5026770000000  0.5109580000000 1.0
C      1  0.5618800000000  0.4708940000000  0.4852080000000 1.0
C      1  0.5717360000000  0.5190750000000  0.5571200000000 1.0
C      1  0.4402610000000  0.5330610000000  0.4540200000000 1.0
C      1  0.5181810000000  0.4598610000000  0.5788470000000 1.0
C      1  0.5422690000000  0.4817930000000  0.5370730000000 1.0
C      1  0.4461670000000  0.5574500000000  0.4996050000000 1.0
C      1  0.4076440000000  0.4581230000000  0.4610640000000 1.0
C      1  0.5429930000000  0.5611650000000  0.5779010000000 1.0
C      1  0.5363600000000  0.4589960000000  0.4868330000000 1.0
C      1  0.5278990000000  0.5221060000000  0.4230670000000 1.0
C      1  0.4263350000000  0.5213680000000  0.5335250000000 1.0
C      1  0.5666600000000  0.4806370000000  0.4594090000000 1.0
C      1  0.5564960000000  0.5281410000000  0.4319650000000 1.0
C      1  0.4679350000000  0.5276240000000  0.5546410000000 1.0
C      1  0.5071030000000  0.4344370000000  0.4373540000000 1.0
C      1  0.5026780000000  0.4837730000000  0.5350190000000 1.0
C      1  0.5015100000000  0.4710030000000  0.5075490000000 1.0
C      1  0.4886970000000  0.4822400000000  0.4233120000000 1.0
C      1  0.4826470000000  0.5266100000000  0.5269450000000 1.0
C      1  0.5049640000000  0.5913110000000  0.5300150000000 1.0
C      1  0.5017620000000  0.4373070000000  0.5140470000000 1.0
C      1  0.5331860000000  0.4455770000000  0.4341360000000 1.0
C      1  0.5005660000000  0.5156430000000  0.5929630000000 1.0
C      1  0.4932460000000  0.4166320000000  0.5585860000000 1.0
C      1  0.5463120000000  0.4554570000000  0.5310410000000 1.0
C      1  0.4314120000000  0.4683840000000  0.5254600000000 1.0
C      1  0.4759280000000  0.5670090000000  0.4605200000000 1.0
C      1  0.5736380000000  0.5220030000000  0.4954480000000 1.0
C      1  0.4789510000000  0.5244700000000  0.4874260000000 1.0
C      1  0.4292370000000  0.4699860000000  0.4551180000000 1.0
C      1  0.4607420000000  0.4948260000000  0.5600310000000 1.0
C      1  0.4994450000000  0.4147340000000  0.5344000000000 1.0
C      1  0.4603780000000  0.4789580000000  0.4633270000000 1.0
C      1  0.5038730000000  0.5294070000000  0.4459950000000 1.0
C      1  0.5096230000000  0.4733140000000  0.4745830000000 1.0
C      1  0.4657220000000  0.4229710000000  0.4798020000000 1.0
C      1  0.5481750000000  0.5070140000000  0.4546270000000 1.0
C      1  0.5438620000000  0.5310190000000  0.5703350000000 1.0
C      1  0.4747310000000  0.5153980000000  0.5828740000000 1.0
C      1  0.5058130000000  0.4952350000000  0.4488700000000 1.0
C      1  0.4441940000000  0.4173320000000  0.5018950000000 1.0
C      1  0.4671060000000  0.5049470000000  0.4148160000000 1.0
C      1  0.5404920000000  0.4770280000000  0.4398540000000 1.0
C      1  0.4859820000000  0.4616360000000  0.4574540000000 1.0
C      1  0.5322540000000  0.5860190000000  0.5335460000000 1.0
C      1  0.4245170000000  0.5719480000000  0.4996270000000 1.0
C      1  0.4816510000000  0.5782610000000  0.5326260000000 1.0
C      1  0.4804590000000  0.4727710000000  0.5555160000000 1.0
C      1  0.4941610000000  0.5597900000000  0.4446890000000 1.0
C      1  0.4483420000000  0.4841160000000  0.4330320000000 1.0
C      1  0.5374000000000  0.5301450000000  0.5398470000000 1.0
C      1  0.5673310000000  0.4909760000000  0.5074580000000 1.0
C      1  0.4670930000000  0.5028040000000  0.5089580000000 1.0
END
