TITL C-2847952-8118-218 2.1893416421588e-05 125000 -1085.71555410909 0 0 200 (C1) n - 1
REM
REM in /home/bkarasulu/work/CARBON/AIRSS/Generating-Clusters/AIREBO/with-SteepDescent/Only-C1/SD-CG-opt/Try1-1.4A-POS3A/HFTN-CG
REM
REM
REM
REM
REM
REM ./C.cell (11c1c37f851c82e70ff6c80c92926a4b)
REM
REM compiler GCC version 9.2.1 20190827 (Red Hat 9.2.1-1)
REM options -cpp -mtune=generic -march=x86-64 -g -O0 -fpre-include=/usr/include/finclude/math-vector-fortran.h
REM seed 1373043967 1295537325 -606992076 -364305913 -2032716283 1025715963 -375660653 1657297881 54908955 764165659 1739374744 1009411283 -973715235 -1687644886 -1403038336 -267434192 463703304 -1392733430 -1709823073 614583702 -646612873 -1790897980 -612309958 -1838245569 -998439137 -942591255 -587280653 62894870 -1076999206 -917254541 2103695105 52096733 811525256
REM
CELL 1.54180   50.00000   50.00000   50.00000   90.00000   90.00000   90.00000
LATT -1
SFAC C  
C      1  0.5462400000000  0.5884290000000  0.4463350000000 1.0
C      1  0.4601020000000  0.4935580000000  0.4624110000000 1.0
C      1  0.4435820000000  0.4513310000000  0.6039060000000 1.0
C      1  0.4029300000000  0.4972710000000  0.5740740000000 1.0
C      1  0.4776400000000  0.4078420000000  0.5496480000000 1.0
C      1  0.5846190000000  0.4323430000000  0.4443710000000 1.0
C      1  0.5450930000000  0.5585170000000  0.5596960000000 1.0
C      1  0.5741600000000  0.5457030000000  0.4404840000000 1.0
C      1  0.4259010000000  0.5481870000000  0.5785220000000 1.0
C      1  0.4670870000000  0.3983090000000  0.4712670000000 1.0
C      1  0.4466670000000  0.4746100000000  0.5608180000000 1.0
C      1  0.5478040000000  0.5260460000000  0.4491470000000 1.0
C      1  0.5635850000000  0.3977990000000  0.4880480000000 1.0
C      1  0.5409510000000  0.4089030000000  0.5288220000000 1.0
C      1  0.5386530000000  0.4324860000000  0.5702650000000 1.0
C      1  0.5215850000000  0.4675730000000  0.4152500000000 1.0
C      1  0.4230060000000  0.5817200000000  0.4513520000000 1.0
C      1  0.4129050000000  0.5378190000000  0.6018020000000 1.0
C      1  0.4204420000000  0.5278320000000  0.4582820000000 1.0
C      1  0.3872710000000  0.5043500000000  0.4693260000000 1.0
C      1  0.5006230000000  0.4800630000000  0.5553650000000 1.0
C      1  0.4380020000000  0.4428020000000  0.4417830000000 1.0
C      1  0.5108520000000  0.4902030000000  0.4784290000000 1.0
C      1  0.5413790000000  0.4058540000000  0.4483210000000 1.0
C      1  0.6042430000000  0.5300840000000  0.5321540000000 1.0
C      1  0.5018880000000  0.6065020000000  0.5245360000000 1.0
C      1  0.4158010000000  0.5316050000000  0.5582970000000 1.0
C      1  0.4269580000000  0.5094470000000  0.4861340000000 1.0
C      1  0.5124000000000  0.3793390000000  0.4940780000000 1.0
C      1  0.5026850000000  0.4031840000000  0.5609770000000 1.0
C      1  0.5396510000000  0.4485230000000  0.4681110000000 1.0
C      1  0.4540740000000  0.5270110000000  0.4632070000000 1.0
C      1  0.4861660000000  0.5065260000000  0.4160860000000 1.0
C      1  0.5501300000000  0.4689440000000  0.5587750000000 1.0
C      1  0.4953130000000  0.4227420000000  0.4078340000000 1.0
C      1  0.5866580000000  0.5160300000000  0.5654320000000 1.0
C      1  0.6037400000000  0.4517580000000  0.5024810000000 1.0
C      1  0.5259610000000  0.4958160000000  0.5419450000000 1.0
C      1  0.5388270000000  0.6139250000000  0.4911320000000 1.0
C      1  0.4354240000000  0.4283650000000  0.5363460000000 1.0
C      1  0.4659260000000  0.4396140000000  0.5464520000000 1.0
C      1  0.4694500000000  0.4702880000000  0.3804570000000 1.0
C      1  0.4660110000000  0.5258920000000  0.5711600000000 1.0
C      1  0.5632490000000  0.4242870000000  0.4667220000000 1.0
C      1  0.4567420000000  0.5091880000000  0.4987760000000 1.0
C      1  0.5795980000000  0.4285990000000  0.4962450000000 1.0
C      1  0.5463780000000  0.5077000000000  0.5097560000000 1.0
C      1  0.5323700000000  0.5115190000000  0.4067960000000 1.0
C      1  0.5196600000000  0.5747710000000  0.5712390000000 1.0
C      1  0.4488560000000  0.4407980000000  0.4864100000000 1.0
C      1  0.4729640000000  0.5396640000000  0.6004840000000 1.0
C      1  0.4389080000000  0.4022690000000  0.4828220000000 1.0
C      1  0.4036210000000  0.4755680000000  0.5499120000000 1.0
C      1  0.3988710000000  0.4985150000000  0.4426500000000 1.0
C      1  0.4641260000000  0.6175370000000  0.4993150000000 1.0
C      1  0.5688750000000  0.5406470000000  0.4797910000000 1.0
C      1  0.4320150000000  0.4971890000000  0.4484160000000 1.0
C      1  0.4622070000000  0.4705230000000  0.6065740000000 1.0
C      1  0.4888330000000  0.4345990000000  0.5218180000000 1.0
C      1  0.4252430000000  0.4517580000000  0.5565790000000 1.0
C      1  0.4935270000000  0.5372720000000  0.4035700000000 1.0
C      1  0.4987650000000  0.5468330000000  0.5322830000000 1.0
C      1  0.5194630000000  0.4312670000000  0.5187250000000 1.0
C      1  0.4336240000000  0.5388310000000  0.5123800000000 1.0
C      1  0.4665130000000  0.4671520000000  0.5271020000000 1.0
C      1  0.4629310000000  0.4231020000000  0.5069480000000 1.0
C      1  0.4596110000000  0.5994150000000  0.5444880000000 1.0
C      1  0.5045330000000  0.6008220000000  0.4315050000000 1.0
C      1  0.4809970000000  0.5806410000000  0.5631210000000 1.0
C      1  0.5594300000000  0.5685990000000  0.4697320000000 1.0
C      1  0.4127060000000  0.5458220000000  0.4371560000000 1.0
C      1  0.4880760000000  0.3765230000000  0.5145490000000 1.0
C      1  0.4793250000000  0.4452360000000  0.4012210000000 1.0
C      1  0.4557230000000  0.5582740000000  0.5696810000000 1.0
C      1  0.5102370000000  0.5904450000000  0.5487510000000 1.0
C      1  0.4595110000000  0.5412360000000  0.4906680000000 1.0
C      1  0.4898500000000  0.5868350000000  0.6167270000000 1.0
C      1  0.5354970000000  0.6117860000000  0.4627930000000 1.0
C      1  0.3949090000000  0.5322210000000  0.4803120000000 1.0
C      1  0.4999540000000  0.5240960000000  0.4550800000000 1.0
C      1  0.5673440000000  0.4305240000000  0.5256640000000 1.0
C      1  0.5774080000000  0.4844890000000  0.5195180000000 1.0
C      1  0.5147740000000  0.4749630000000  0.6095590000000 1.0
C      1  0.4094120000000  0.5534300000000  0.4979510000000 1.0
C      1  0.4420610000000  0.5984300000000  0.4928070000000 1.0
C      1  0.4160130000000  0.4369240000000  0.4869310000000 1.0
C      1  0.4760390000000  0.4741860000000  0.4189100000000 1.0
C      1  0.5410730000000  0.4932050000000  0.4434580000000 1.0
C      1  0.4317580000000  0.5025540000000  0.5580580000000 1.0
C      1  0.4654990000000  0.5564770000000  0.4263850000000 1.0
C      1  0.5854550000000  0.5424360000000  0.5094230000000 1.0
C      1  0.5415070000000  0.4709920000000  0.5915990000000 1.0
C      1  0.5293680000000  0.4102600000000  0.5571400000000 1.0
C      1  0.5093400000000  0.4971600000000  0.4391360000000 1.0
C      1  0.4747340000000  0.5628230000000  0.5348790000000 1.0
C      1  0.4524290000000  0.4678950000000  0.4983510000000 1.0
C      1  0.4664060000000  0.3828210000000  0.4410060000000 1.0
C      1  0.5474190000000  0.5931510000000  0.5130070000000 1.0
C      1  0.4249690000000  0.5103920000000  0.5260550000000 1.0
C      1  0.4415270000000  0.4011530000000  0.5167290000000 1.0
C      1  0.5904330000000  0.4433540000000  0.5459010000000 1.0
C      1  0.4597940000000  0.5330840000000  0.4020170000000 1.0
C      1  0.5620890000000  0.5009710000000  0.4178690000000 1.0
C      1  0.5161110000000  0.5836230000000  0.5037660000000 1.0
C      1  0.5047450000000  0.4311070000000  0.5912710000000 1.0
C      1  0.5957360000000  0.4863520000000  0.5732090000000 1.0
C      1  0.4944500000000  0.5116340000000  0.5831600000000 1.0
C      1  0.4135860000000  0.5817930000000  0.5157280000000 1.0
C      1  0.5380420000000  0.4795700000000  0.4716910000000 1.0
C      1  0.5229990000000  0.4315670000000  0.4872030000000 1.0
C      1  0.4236140000000  0.4702000000000  0.4291150000000 1.0
C      1  0.4721760000000  0.5271340000000  0.4392540000000 1.0
C      1  0.5069090000000  0.5397510000000  0.5976680000000 1.0
C      1  0.5420950000000  0.3888520000000  0.5061820000000 1.0
C      1  0.5568750000000  0.4721000000000  0.4953610000000 1.0
C      1  0.4649630000000  0.4476080000000  0.4463410000000 1.0
C      1  0.4870880000000  0.5789220000000  0.4866450000000 1.0
C      1  0.5594710000000  0.4688500000000  0.4273950000000 1.0
C      1  0.4944470000000  0.3951000000000  0.4310070000000 1.0
C      1  0.5969910000000  0.5605450000000  0.4591470000000 1.0
C      1  0.4467700000000  0.4787320000000  0.4051490000000 1.0
C      1  0.5386870000000  0.4769920000000  0.5214300000000 1.0
C      1  0.5693180000000  0.4878850000000  0.5879330000000 1.0
C      1  0.5538250000000  0.5366180000000  0.5207480000000 1.0
C      1  0.5378350000000  0.5377310000000  0.6006040000000 1.0
C      1  0.5352480000000  0.5281080000000  0.5479530000000 1.0
C      1  0.4760190000000  0.4290670000000  0.4696400000000 1.0
C      1  0.4941780000000  0.4443820000000  0.4907600000000 1.0
C      1  0.4550150000000  0.4976160000000  0.5263040000000 1.0
C      1  0.4020580000000  0.4861760000000  0.5191750000000 1.0
C      1  0.4765060000000  0.4613820000000  0.5703810000000 1.0
C      1  0.4240800000000  0.4428850000000  0.5868820000000 1.0
C      1  0.5007350000000  0.4241810000000  0.4468910000000 1.0
C      1  0.4407640000000  0.5756960000000  0.4351570000000 1.0
C      1  0.5843910000000  0.4663870000000  0.4842710000000 1.0
C      1  0.5176330000000  0.4521170000000  0.4453130000000 1.0
C      1  0.5073460000000  0.5544410000000  0.4555480000000 1.0
C      1  0.5019360000000  0.5248020000000  0.5539590000000 1.0
C      1  0.5365500000000  0.5367340000000  0.4762250000000 1.0
C      1  0.6044300000000  0.5573720000000  0.4854160000000 1.0
C      1  0.5208150000000  0.5722150000000  0.4319870000000 1.0
C      1  0.4901750000000  0.4915860000000  0.3857960000000 1.0
C      1  0.4181230000000  0.5820730000000  0.4818250000000 1.0
C      1  0.4977200000000  0.3881950000000  0.4645130000000 1.0
C      1  0.4409130000000  0.5119340000000  0.4034780000000 1.0
C      1  0.6108450000000  0.4954820000000  0.4772940000000 1.0
C      1  0.5550590000000  0.5809180000000  0.5360570000000 1.0
C      1  0.4785840000000  0.5690130000000  0.4552310000000 1.0
C      1  0.4888880000000  0.4831660000000  0.5934290000000 1.0
C      1  0.4925140000000  0.5457270000000  0.4916430000000 1.0
C      1  0.4696000000000  0.3905320000000  0.5289650000000 1.0
C      1  0.4113880000000  0.4272020000000  0.5161600000000 1.0
C      1  0.5178540000000  0.4896100000000  0.3986590000000 1.0
C      1  0.6268070000000  0.5615500000000  0.5618190000000 1.0
C      1  0.5667180000000  0.5352730000000  0.5851900000000 1.0
C      1  0.6040880000000  0.5498640000000  0.5532010000000 1.0
C      1  0.5414040000000  0.4484730000000  0.5337230000000 1.0
C      1  0.3970290000000  0.4590580000000  0.4471580000000 1.0
C      1  0.5787690000000  0.5556420000000  0.5636280000000 1.0
C      1  0.4639830000000  0.5791780000000  0.5102660000000 1.0
C      1  0.5192100000000  0.5278470000000  0.5027910000000 1.0
C      1  0.5852910000000  0.4589700000000  0.4382100000000 1.0
C      1  0.5831480000000  0.5152660000000  0.4338420000000 1.0
C      1  0.4000580000000  0.5129720000000  0.5973600000000 1.0
C      1  0.5652100000000  0.4941020000000  0.5487230000000 1.0
C      1  0.4372320000000  0.5856550000000  0.5302370000000 1.0
C      1  0.4810640000000  0.4741720000000  0.4808860000000 1.0
C      1  0.5252410000000  0.4194820000000  0.4237840000000 1.0
C      1  0.4899260000000  0.4706340000000  0.4482370000000 1.0
C      1  0.4465900000000  0.5477680000000  0.5386600000000 1.0
C      1  0.4276630000000  0.4817290000000  0.4988910000000 1.0
C      1  0.5181150000000  0.5500880000000  0.4088110000000 1.0
C      1  0.5794470000000  0.5845630000000  0.4473590000000 1.0
C      1  0.4963410000000  0.5707100000000  0.5921770000000 1.0
C      1  0.5258320000000  0.5559170000000  0.5208010000000 1.0
C      1  0.4871020000000  0.5134090000000  0.4840360000000 1.0
C      1  0.4897640000000  0.4849660000000  0.5119360000000 1.0
C      1  0.3969430000000  0.4582940000000  0.4749070000000 1.0
C      1  0.5490330000000  0.5390570000000  0.4177570000000 1.0
C      1  0.5277010000000  0.5690360000000  0.4759710000000 1.0
C      1  0.4115980000000  0.4966530000000  0.4114420000000 1.0
C      1  0.5084010000000  0.6154370000000  0.4546450000000 1.0
C      1  0.4736050000000  0.6147830000000  0.5259780000000 1.0
C      1  0.5158610000000  0.4565110000000  0.5746090000000 1.0
C      1  0.3895450000000  0.4821040000000  0.4878100000000 1.0
C      1  0.5663470000000  0.4412310000000  0.5641430000000 1.0
C      1  0.4711470000000  0.4972900000000  0.5542630000000 1.0
C      1  0.4890100000000  0.6121050000000  0.4794200000000 1.0
C      1  0.6141960000000  0.4840880000000  0.5039050000000 1.0
C      1  0.5863390000000  0.5160520000000  0.4657880000000 1.0
C      1  0.5419690000000  0.4440170000000  0.4148340000000 1.0
C      1  0.6118630000000  0.5021200000000  0.5284960000000 1.0
C      1  0.5993470000000  0.4741750000000  0.5433570000000 1.0
C      1  0.5771280000000  0.5058920000000  0.4955760000000 1.0
C      1  0.5029130000000  0.5082020000000  0.5242950000000 1.0
C      1  0.5132370000000  0.6232930000000  0.4999140000000 1.0
C      1  0.4262590000000  0.4227840000000  0.4591540000000 1.0
C      1  0.5486710000000  0.5103130000000  0.5736300000000 1.0
C      1  0.5236050000000  0.4045140000000  0.4744220000000 1.0
C      1  0.5962200000000  0.4747400000000  0.4582700000000 1.0
END
