TITL C-2847954-6904-705 0.00146285217534716 125000 -179.006937023565 0 0 34 (C1) n - 1
REM
REM in /home/bkarasulu/work/CARBON/AIRSS/Generating-Clusters/AIREBO/with-SteepDescent/Only-C1/SD-CG-opt/Try1-1.4A-POS3A/HFTN-CG
REM
REM
REM
REM
REM
REM ./C.cell (11c1c37f851c82e70ff6c80c92926a4b)
REM
REM compiler GCC version 9.2.1 20190827 (Red Hat 9.2.1-1)
REM options -cpp -mtune=generic -march=x86-64 -g -O0 -fpre-include=/usr/include/finclude/math-vector-fortran.h
REM seed 1090022946 -1346263735 1735632806 -124593188 93084886 1190163350 -1948153470 491436133 1118005160 1753198124 1208381859 2117298184 -1491855241 1185872483 1588764720 351986261 -764696641 349618915 -724429919 124613730 -1846012857 887800091 478415459 -2125081919 -1070179998 1510391079 -536443062 1878902604 140855203 -1475375308 1332458742 -1505238985 561764096
REM
CELL 1.54180   50.00000   50.00000   50.00000   90.00000   90.00000   90.00000
LATT -1
SFAC C  
C      1  0.4548410000000  0.4762340000000  0.4866590000000 1.0
C      1  0.5241910000000  0.4505540000000  0.5626580000000 1.0
C      1  0.5411940000000  0.4415710000000  0.5010340000000 1.0
C      1  0.5050590000000  0.4219260000000  0.4553700000000 1.0
C      1  0.5796800000000  0.5558210000000  0.4539090000000 1.0
C      1  0.4649460000000  0.5347190000000  0.4496100000000 1.0
C      1  0.5358170000000  0.5286600000000  0.5025840000000 1.0
C      1  0.4833940000000  0.4387470000000  0.4562360000000 1.0
C      1  0.4813400000000  0.4242210000000  0.5115840000000 1.0
C      1  0.5540190000000  0.5480420000000  0.5006680000000 1.0
C      1  0.4738860000000  0.4737520000000  0.5124910000000 1.0
C      1  0.4695940000000  0.5644160000000  0.4952370000000 1.0
C      1  0.5429100000000  0.5041470000000  0.5624110000000 1.0
C      1  0.4836060000000  0.4898100000000  0.4553580000000 1.0
C      1  0.5587060000000  0.5649900000000  0.5212040000000 1.0
C      1  0.5243850000000  0.4655950000000  0.5401430000000 1.0
C      1  0.4841850000000  0.4625100000000  0.4756370000000 1.0
C      1  0.5205410000000  0.4528950000000  0.5150990000000 1.0
C      1  0.5086160000000  0.4879540000000  0.4742560000000 1.0
C      1  0.5681920000000  0.5512300000000  0.4770160000000 1.0
C      1  0.4923480000000  0.4494010000000  0.5059400000000 1.0
C      1  0.5281730000000  0.4930960000000  0.5420270000000 1.0
C      1  0.4781360000000  0.5516390000000  0.5171870000000 1.0
C      1  0.4629930000000  0.5905860000000  0.4953850000000 1.0
C      1  0.4878890000000  0.5211740000000  0.5282170000000 1.0
C      1  0.4554900000000  0.4959590000000  0.5555130000000 1.0
C      1  0.4683880000000  0.5498870000000  0.4715900000000 1.0
C      1  0.5152510000000  0.5112420000000  0.5223850000000 1.0
C      1  0.4613880000000  0.4359170000000  0.4400820000000 1.0
C      1  0.4457950000000  0.4996380000000  0.5031860000000 1.0
C      1  0.4732380000000  0.5102450000000  0.4408730000000 1.0
C      1  0.4845370000000  0.5489130000000  0.5476970000000 1.0
C      1  0.4664590000000  0.5002370000000  0.5302570000000 1.0
C      1  0.5208120000000  0.5042730000000  0.4904980000000 1.0
END
