TITL C-2848500-1637-12 0.00731059743395096 125000 -893.82526873565 0 0 172 (C1) n - 1
REM
REM in /home/bkarasulu/work/CARBON/AIRSS/Generating-Clusters/AIREBO/with-SteepDescent/Only-C1/SD-CG-opt/Try1-1.4A-POS3A/HFTN-CG
REM
REM
REM
REM
REM
REM ./C.cell (11c1c37f851c82e70ff6c80c92926a4b)
REM
REM compiler GCC version 9.2.1 20190827 (Red Hat 9.2.1-1)
REM options -cpp -mtune=generic -march=x86-64 -g -O0 -fpre-include=/usr/include/finclude/math-vector-fortran.h
REM seed -626691134 -1349922487 -208795609 -1721334244 1204070279 1513533403 -2105956352 -1309950463 -237765247 2126938915 1953025928 779544403 773987562 -1778293422 633904070 -693594177 1867017647 1349670208 -2036973634 679883613 -1533443153 -350505106 288739044 661677391 878086957 -665374612 -1383598408 -1594139413 -1299606567 -93168450 -1308828082 -578056253 -1849152501
REM
CELL 1.54180   50.00000   50.00000   50.00000   90.00000   90.00000   90.00000
LATT -1
SFAC C  
C      1  0.4216920000000  0.4861640000000  0.5297760000000 1.0
C      1  0.5240070000000  0.5983700000000  0.4663640000000 1.0
C      1  0.5857330000000  0.5485360000000  0.4717030000000 1.0
C      1  0.5100940000000  0.4856300000000  0.4940340000000 1.0
C      1  0.4650870000000  0.3986030000000  0.5270820000000 1.0
C      1  0.5864950000000  0.5128810000000  0.5483370000000 1.0
C      1  0.4320660000000  0.4493510000000  0.4508050000000 1.0
C      1  0.4692350000000  0.5256810000000  0.4722420000000 1.0
C      1  0.5159730000000  0.4525970000000  0.4329850000000 1.0
C      1  0.5030530000000  0.4225770000000  0.5822360000000 1.0
C      1  0.5516390000000  0.4425850000000  0.5627570000000 1.0
C      1  0.5823890000000  0.5421490000000  0.5484060000000 1.0
C      1  0.5699760000000  0.4502740000000  0.5351580000000 1.0
C      1  0.4878830000000  0.5531400000000  0.4678490000000 1.0
C      1  0.4850730000000  0.4024850000000  0.4762570000000 1.0
C      1  0.4065360000000  0.5472350000000  0.4793860000000 1.0
C      1  0.4276740000000  0.5129360000000  0.5151960000000 1.0
C      1  0.5512160000000  0.5303770000000  0.5551630000000 1.0
C      1  0.4876790000000  0.4863800000000  0.5195990000000 1.0
C      1  0.4970560000000  0.5127060000000  0.5945530000000 1.0
C      1  0.5260980000000  0.5425600000000  0.5391050000000 1.0
C      1  0.3967370000000  0.4965560000000  0.4615410000000 1.0
C      1  0.4212990000000  0.5419100000000  0.5320560000000 1.0
C      1  0.4978880000000  0.4157040000000  0.5552780000000 1.0
C      1  0.4541500000000  0.4466660000000  0.5977210000000 1.0
C      1  0.5322330000000  0.5971770000000  0.5303170000000 1.0
C      1  0.4530880000000  0.3978660000000  0.4739790000000 1.0
C      1  0.5815440000000  0.5688810000000  0.5191360000000 1.0
C      1  0.5551370000000  0.5194820000000  0.5871730000000 1.0
C      1  0.4476290000000  0.5763000000000  0.5616500000000 1.0
C      1  0.4703560000000  0.4036670000000  0.4479110000000 1.0
C      1  0.4442610000000  0.4091950000000  0.5446420000000 1.0
C      1  0.5722580000000  0.4991030000000  0.5678500000000 1.0
C      1  0.4952310000000  0.5223050000000  0.4423020000000 1.0
C      1  0.4404380000000  0.5703660000000  0.5289470000000 1.0
C      1  0.5101660000000  0.5157110000000  0.5348800000000 1.0
C      1  0.4956310000000  0.5663600000000  0.5279500000000 1.0
C      1  0.4298630000000  0.5012830000000  0.4833250000000 1.0
C      1  0.4754070000000  0.5340760000000  0.5586460000000 1.0
C      1  0.5322750000000  0.5413600000000  0.4154350000000 1.0
C      1  0.5069640000000  0.5013760000000  0.3897420000000 1.0
C      1  0.4899070000000  0.4535970000000  0.5125710000000 1.0
C      1  0.4777440000000  0.4536160000000  0.4217570000000 1.0
C      1  0.4959670000000  0.5892460000000  0.5685200000000 1.0
C      1  0.4430030000000  0.4895770000000  0.5650680000000 1.0
C      1  0.5415340000000  0.4893480000000  0.5929760000000 1.0
C      1  0.4068770000000  0.4663910000000  0.4606240000000 1.0
C      1  0.4180110000000  0.4495060000000  0.4879580000000 1.0
C      1  0.5185700000000  0.4066630000000  0.5329980000000 1.0
C      1  0.4024540000000  0.5090340000000  0.4345180000000 1.0
C      1  0.4839190000000  0.4396790000000  0.5430370000000 1.0
C      1  0.5352030000000  0.5740150000000  0.4960510000000 1.0
C      1  0.4782310000000  0.4514400000000  0.4803650000000 1.0
C      1  0.5543340000000  0.4819080000000  0.5561640000000 1.0
C      1  0.4994220000000  0.4923510000000  0.4278970000000 1.0
C      1  0.5101210000000  0.5417990000000  0.5982550000000 1.0
C      1  0.4469690000000  0.4976370000000  0.4540810000000 1.0
C      1  0.5537680000000  0.5977950000000  0.4802810000000 1.0
C      1  0.4730250000000  0.6062740000000  0.4706680000000 1.0
C      1  0.5109710000000  0.4852630000000  0.6034460000000 1.0
C      1  0.4617040000000  0.5456320000000  0.4967970000000 1.0
C      1  0.5312630000000  0.4952760000000  0.5265370000000 1.0
C      1  0.4654620000000  0.4927460000000  0.4259540000000 1.0
C      1  0.5380370000000  0.4276130000000  0.5051470000000 1.0
C      1  0.4419320000000  0.4787310000000  0.5972910000000 1.0
C      1  0.4464490000000  0.5194250000000  0.5591170000000 1.0
C      1  0.4349030000000  0.4238820000000  0.4812690000000 1.0
C      1  0.5750460000000  0.4310330000000  0.4905090000000 1.0
C      1  0.4686560000000  0.5636650000000  0.4469500000000 1.0
C      1  0.5584020000000  0.5908880000000  0.5131760000000 1.0
C      1  0.5425970000000  0.4646130000000  0.4654760000000 1.0
C      1  0.5649080000000  0.5415280000000  0.4382200000000 1.0
C      1  0.5475340000000  0.4981100000000  0.4614150000000 1.0
C      1  0.4292300000000  0.4164520000000  0.4485340000000 1.0
C      1  0.6091400000000  0.4816530000000  0.4981520000000 1.0
C      1  0.5067070000000  0.4618180000000  0.5521880000000 1.0
C      1  0.5490870000000  0.5076220000000  0.5046850000000 1.0
C      1  0.5242350000000  0.5190650000000  0.3914600000000 1.0
C      1  0.4726510000000  0.4826250000000  0.5498980000000 1.0
C      1  0.5862370000000  0.4444140000000  0.4654190000000 1.0
C      1  0.5067900000000  0.4561940000000  0.5857310000000 1.0
C      1  0.5252510000000  0.5130370000000  0.4815170000000 1.0
C      1  0.5634350000000  0.5736080000000  0.4614980000000 1.0
C      1  0.4728390000000  0.5756320000000  0.5745770000000 1.0
C      1  0.4316100000000  0.5344120000000  0.5843340000000 1.0
C      1  0.4454110000000  0.5311870000000  0.4486160000000 1.0
C      1  0.5919570000000  0.4733970000000  0.4720390000000 1.0
C      1  0.5003510000000  0.5966320000000  0.4884760000000 1.0
C      1  0.5467070000000  0.5444810000000  0.4668040000000 1.0
C      1  0.5409820000000  0.4659560000000  0.5321090000000 1.0
C      1  0.4502340000000  0.4695610000000  0.5279050000000 1.0
C      1  0.5695580000000  0.4840330000000  0.4959900000000 1.0
C      1  0.5158260000000  0.5665280000000  0.4619070000000 1.0
C      1  0.4540630000000  0.5978780000000  0.5142760000000 1.0
C      1  0.4228510000000  0.4842480000000  0.4341890000000 1.0
C      1  0.5628780000000  0.4478340000000  0.4439510000000 1.0
C      1  0.5535100000000  0.5335850000000  0.5211000000000 1.0
C      1  0.5564260000000  0.5175730000000  0.4189740000000 1.0
C      1  0.4752780000000  0.4661410000000  0.5795420000000 1.0
C      1  0.5747450000000  0.5163600000000  0.4708190000000 1.0
C      1  0.5437090000000  0.5663200000000  0.4334740000000 1.0
C      1  0.5117480000000  0.4563510000000  0.4772230000000 1.0
C      1  0.4359630000000  0.4568700000000  0.5711450000000 1.0
C      1  0.5276220000000  0.4006570000000  0.4702720000000 1.0
C      1  0.5443650000000  0.4255040000000  0.4573750000000 1.0
C      1  0.5457850000000  0.4196000000000  0.5435220000000 1.0
C      1  0.4911640000000  0.4134310000000  0.5138720000000 1.0
C      1  0.4996500000000  0.4278340000000  0.4162010000000 1.0
C      1  0.5122700000000  0.6115240000000  0.5166360000000 1.0
C      1  0.4384940000000  0.4728030000000  0.4961550000000 1.0
C      1  0.4662940000000  0.5432130000000  0.4244410000000 1.0
C      1  0.5190870000000  0.4457280000000  0.5251860000000 1.0
C      1  0.6004820000000  0.5437990000000  0.5082820000000 1.0
C      1  0.4983530000000  0.5399970000000  0.4135730000000 1.0
C      1  0.5067390000000  0.5655290000000  0.5006370000000 1.0
C      1  0.5925090000000  0.4669530000000  0.5239080000000 1.0
C      1  0.4394960000000  0.5552420000000  0.4729060000000 1.0
C      1  0.4271100000000  0.5540850000000  0.5627580000000 1.0
C      1  0.4008170000000  0.5170800000000  0.4856370000000 1.0
C      1  0.4160950000000  0.5326980000000  0.4338350000000 1.0
C      1  0.5680020000000  0.4200560000000  0.5199230000000 1.0
C      1  0.4550160000000  0.4372620000000  0.5287210000000 1.0
C      1  0.4093260000000  0.4885900000000  0.5604690000000 1.0
C      1  0.4497280000000  0.5842510000000  0.4599060000000 1.0
C      1  0.4701840000000  0.4828120000000  0.4907520000000 1.0
C      1  0.5744610000000  0.4921380000000  0.4276060000000 1.0
C      1  0.4805300000000  0.6043450000000  0.5156920000000 1.0
C      1  0.5092460000000  0.4238640000000  0.4870090000000 1.0
C      1  0.5305210000000  0.3944790000000  0.5035840000000 1.0
C      1  0.5275430000000  0.5913230000000  0.4359180000000 1.0
C      1  0.5326830000000  0.4239540000000  0.4254770000000 1.0
C      1  0.4593580000000  0.5273670000000  0.5959980000000 1.0
C      1  0.4746060000000  0.5161670000000  0.4075560000000 1.0
C      1  0.4549530000000  0.5209680000000  0.5273040000000 1.0
C      1  0.5969930000000  0.5135780000000  0.4963800000000 1.0
C      1  0.5535100000000  0.4554420000000  0.4932070000000 1.0
C      1  0.5079840000000  0.4154260000000  0.4467410000000 1.0
C      1  0.4808000000000  0.4355180000000  0.4504050000000 1.0
C      1  0.5407330000000  0.4566150000000  0.5837780000000 1.0
C      1  0.5019890000000  0.5349760000000  0.4928970000000 1.0
C      1  0.4992310000000  0.4707310000000  0.4016510000000 1.0
C      1  0.4460600000000  0.6026690000000  0.4877770000000 1.0
C      1  0.4853170000000  0.4987640000000  0.4647630000000 1.0
C      1  0.4553470000000  0.4650750000000  0.4592110000000 1.0
C      1  0.4945020000000  0.5060680000000  0.5613010000000 1.0
C      1  0.4233490000000  0.5688020000000  0.4995910000000 1.0
C      1  0.5309380000000  0.4721350000000  0.4138530000000 1.0
C      1  0.5937320000000  0.5524590000000  0.4409820000000 1.0
C      1  0.4346250000000  0.4341620000000  0.4211660000000 1.0
C      1  0.4807570000000  0.5482840000000  0.5865780000000 1.0
C      1  0.4863360000000  0.5194490000000  0.5143080000000 1.0
C      1  0.4636680000000  0.4270280000000  0.4990480000000 1.0
C      1  0.5193540000000  0.5742560000000  0.5494280000000 1.0
C      1  0.4692930000000  0.4961310000000  0.5944000000000 1.0
C      1  0.5944140000000  0.4909410000000  0.4472980000000 1.0
C      1  0.5221940000000  0.4866990000000  0.5651270000000 1.0
C      1  0.5623550000000  0.5676930000000  0.5471950000000 1.0
C      1  0.4983340000000  0.4710800000000  0.4519170000000 1.0
C      1  0.3978070000000  0.4461210000000  0.5105150000000 1.0
C      1  0.6056820000000  0.5163600000000  0.4566840000000 1.0
C      1  0.4463140000000  0.4659070000000  0.4176160000000 1.0
C      1  0.4079760000000  0.4562750000000  0.5339880000000 1.0
C      1  0.5364500000000  0.5458920000000  0.5887780000000 1.0
C      1  0.5611620000000  0.4680600000000  0.4214550000000 1.0
C      1  0.3938520000000  0.5333100000000  0.5144200000000 1.0
C      1  0.5443520000000  0.5667370000000  0.5712120000000 1.0
C      1  0.4281580000000  0.4390920000000  0.5495230000000 1.0
C      1  0.5841290000000  0.4990600000000  0.5227950000000 1.0
C      1  0.5200090000000  0.5335050000000  0.4548660000000 1.0
C      1  0.4689740000000  0.5518750000000  0.5294230000000 1.0
C      1  0.5621830000000  0.5533180000000  0.4957780000000 1.0
C      1  0.5331020000000  0.4989460000000  0.4317340000000 1.0
END
