TITL C-2847955-7945-536 0.00300532130631725 125000 -796.001803141599 0 0 148 (C1) n - 1
REM
REM in /home/bkarasulu/work/CARBON/AIRSS/Generating-Clusters/AIREBO/with-SteepDescent/Only-C1/SD-CG-opt/Try1-1.4A-POS3A/HFTN-CG
REM
REM
REM
REM
REM
REM ./C.cell (11c1c37f851c82e70ff6c80c92926a4b)
REM
REM compiler GCC version 9.2.1 20190827 (Red Hat 9.2.1-1)
REM options -cpp -mtune=generic -march=x86-64 -g -O0 -fpre-include=/usr/include/finclude/math-vector-fortran.h
REM seed -185340533 1771399256 1463468870 431830243 2045181718 745707255 -1365183858 -1304265483 -804370739 -1682551663 -358232836 -1926916141 443878049 953410305 412979171 -1596769173 152390488 -1435284862 1210122006 67998657 2137282476 -2096416098 -2060179376 -2010265442 1930396890 387642734 -584732121 -531680681 1981371852 -1468395663 95042228 1881246871 1659319276
REM
CELL 1.54180   50.00000   50.00000   50.00000   90.00000   90.00000   90.00000
LATT -1
SFAC C  
C      1  0.4711820000000  0.5330020000000  0.5949260000000 1.0
C      1  0.4494750000000  0.4862360000000  0.4058820000000 1.0
C      1  0.4595640000000  0.4607220000000  0.4609890000000 1.0
C      1  0.5231260000000  0.3998880000000  0.5184010000000 1.0
C      1  0.5088010000000  0.5633200000000  0.5811270000000 1.0
C      1  0.5366970000000  0.5749690000000  0.5651810000000 1.0
C      1  0.4801760000000  0.5554540000000  0.4118520000000 1.0
C      1  0.4260460000000  0.5646940000000  0.5032230000000 1.0
C      1  0.4613930000000  0.5635580000000  0.5445460000000 1.0
C      1  0.5847350000000  0.5073570000000  0.5587910000000 1.0
C      1  0.5540900000000  0.5160750000000  0.4105140000000 1.0
C      1  0.5774860000000  0.4813660000000  0.4882840000000 1.0
C      1  0.4515780000000  0.5862330000000  0.4707150000000 1.0
C      1  0.4437110000000  0.5052950000000  0.5532080000000 1.0
C      1  0.5554300000000  0.4712960000000  0.5677130000000 1.0
C      1  0.4957070000000  0.5649060000000  0.4371830000000 1.0
C      1  0.5057980000000  0.5625090000000  0.5413670000000 1.0
C      1  0.5596380000000  0.5667890000000  0.4504390000000 1.0
C      1  0.4550350000000  0.5331250000000  0.4095760000000 1.0
C      1  0.5250630000000  0.5322120000000  0.5018750000000 1.0
C      1  0.4986680000000  0.5877480000000  0.4973480000000 1.0
C      1  0.5475600000000  0.5153030000000  0.5366440000000 1.0
C      1  0.4312380000000  0.4197410000000  0.4906350000000 1.0
C      1  0.5758660000000  0.5128430000000  0.4364150000000 1.0
C      1  0.5518010000000  0.4380950000000  0.5743120000000 1.0
C      1  0.4829030000000  0.4517840000000  0.5515110000000 1.0
C      1  0.4729100000000  0.4168980000000  0.4539830000000 1.0
C      1  0.4942220000000  0.4663390000000  0.4944280000000 1.0
C      1  0.5722030000000  0.4583210000000  0.4444190000000 1.0
C      1  0.4554600000000  0.4730450000000  0.4347530000000 1.0
C      1  0.5468220000000  0.4113680000000  0.4536360000000 1.0
C      1  0.4466150000000  0.5818750000000  0.4973360000000 1.0
C      1  0.4596720000000  0.4937100000000  0.5185910000000 1.0
C      1  0.5290970000000  0.5689930000000  0.4322230000000 1.0
C      1  0.5396640000000  0.5274530000000  0.5844420000000 1.0
C      1  0.4824350000000  0.4283390000000  0.5761400000000 1.0
C      1  0.5814720000000  0.4601270000000  0.5358570000000 1.0
C      1  0.5445790000000  0.5342640000000  0.4677180000000 1.0
C      1  0.5057460000000  0.5122810000000  0.5630680000000 1.0
C      1  0.4120870000000  0.4630270000000  0.4638430000000 1.0
C      1  0.4577260000000  0.5607150000000  0.3896660000000 1.0
C      1  0.5342410000000  0.4910200000000  0.4526240000000 1.0
C      1  0.4991590000000  0.4600750000000  0.4084530000000 1.0
C      1  0.5205240000000  0.5115160000000  0.4752670000000 1.0
C      1  0.5381180000000  0.5663970000000  0.4767740000000 1.0
C      1  0.4606570000000  0.5122510000000  0.4900940000000 1.0
C      1  0.4218600000000  0.5002390000000  0.5302420000000 1.0
C      1  0.4923600000000  0.4827430000000  0.5753920000000 1.0
C      1  0.5483220000000  0.4077780000000  0.5323390000000 1.0
C      1  0.4892730000000  0.5381460000000  0.5326250000000 1.0
C      1  0.4586030000000  0.4375570000000  0.4962500000000 1.0
C      1  0.3985710000000  0.5702620000000  0.4641550000000 1.0
C      1  0.5601550000000  0.5717720000000  0.5138240000000 1.0
C      1  0.4427570000000  0.4262970000000  0.5221730000000 1.0
C      1  0.4917030000000  0.5944760000000  0.4710120000000 1.0
C      1  0.5198240000000  0.4621340000000  0.4545180000000 1.0
C      1  0.4650000000000  0.5068650000000  0.3977520000000 1.0
C      1  0.5446180000000  0.5431930000000  0.5559160000000 1.0
C      1  0.4790160000000  0.5918440000000  0.5450710000000 1.0
C      1  0.4191190000000  0.4947500000000  0.4577820000000 1.0
C      1  0.5115490000000  0.4861990000000  0.4028070000000 1.0
C      1  0.4763250000000  0.5693380000000  0.4598360000000 1.0
C      1  0.5727360000000  0.5265170000000  0.4645990000000 1.0
C      1  0.5408370000000  0.4828240000000  0.5039590000000 1.0
C      1  0.4875990000000  0.4353710000000  0.5056920000000 1.0
C      1  0.6037890000000  0.4972840000000  0.5028110000000 1.0
C      1  0.3986360000000  0.4668910000000  0.4948530000000 1.0
C      1  0.5582020000000  0.5387070000000  0.5060570000000 1.0
C      1  0.5275930000000  0.4457990000000  0.5309300000000 1.0
C      1  0.4621900000000  0.4783060000000  0.5465830000000 1.0
C      1  0.5019010000000  0.4786630000000  0.5429810000000 1.0
C      1  0.4846870000000  0.4516340000000  0.4694290000000 1.0
C      1  0.4822270000000  0.5035230000000  0.5994210000000 1.0
C      1  0.5061610000000  0.5894060000000  0.5612000000000 1.0
C      1  0.4070030000000  0.4357030000000  0.4834590000000 1.0
C      1  0.5149610000000  0.4464340000000  0.5615800000000 1.0
C      1  0.5336790000000  0.4578360000000  0.4833770000000 1.0
C      1  0.4396090000000  0.4628900000000  0.4838230000000 1.0
C      1  0.5874260000000  0.5196250000000  0.4871350000000 1.0
C      1  0.5954340000000  0.4454700000000  0.4634810000000 1.0
C      1  0.5103270000000  0.4892500000000  0.5137230000000 1.0
C      1  0.4929510000000  0.5064200000000  0.4020380000000 1.0
C      1  0.5578980000000  0.5420520000000  0.4309840000000 1.0
C      1  0.5288550000000  0.4969430000000  0.5827420000000 1.0
C      1  0.5768610000000  0.5480270000000  0.5518870000000 1.0
C      1  0.4288750000000  0.5235850000000  0.4943510000000 1.0
C      1  0.4188570000000  0.5534830000000  0.5275200000000 1.0
C      1  0.4791050000000  0.4554310000000  0.5907400000000 1.0
C      1  0.4032780000000  0.4755980000000  0.5261470000000 1.0
C      1  0.4104210000000  0.4535730000000  0.4325940000000 1.0
C      1  0.5177740000000  0.5435660000000  0.4518010000000 1.0
C      1  0.5521660000000  0.4645980000000  0.5284700000000 1.0
C      1  0.4999380000000  0.5296630000000  0.4191370000000 1.0
C      1  0.5350730000000  0.4862160000000  0.5449280000000 1.0
C      1  0.4333080000000  0.5328220000000  0.5663430000000 1.0
C      1  0.5197240000000  0.5431670000000  0.6009590000000 1.0
C      1  0.4735330000000  0.5212460000000  0.5568670000000 1.0
C      1  0.5023700000000  0.4333580000000  0.4495120000000 1.0
C      1  0.4738420000000  0.5855350000000  0.5141670000000 1.0
C      1  0.4995760000000  0.4127800000000  0.5282400000000 1.0
C      1  0.4514690000000  0.5052400000000  0.4581140000000 1.0
C      1  0.5904260000000  0.4527990000000  0.4895610000000 1.0
C      1  0.5272140000000  0.4051500000000  0.4897790000000 1.0
C      1  0.4740010000000  0.5417380000000  0.4796380000000 1.0
C      1  0.5144100000000  0.5178360000000  0.5305750000000 1.0
C      1  0.4785470000000  0.4969730000000  0.4418600000000 1.0
C      1  0.5186920000000  0.5659320000000  0.5000610000000 1.0
C      1  0.4345140000000  0.4617910000000  0.5574290000000 1.0
C      1  0.5616670000000  0.5027320000000  0.5759580000000 1.0
C      1  0.5859560000000  0.4396100000000  0.5137210000000 1.0
C      1  0.5378570000000  0.4902210000000  0.4186870000000 1.0
C      1  0.4943560000000  0.6179270000000  0.4575020000000 1.0
C      1  0.4880820000000  0.5282700000000  0.4512330000000 1.0
C      1  0.4043890000000  0.4997380000000  0.4943830000000 1.0
C      1  0.5569750000000  0.4150160000000  0.4853060000000 1.0
C      1  0.4341640000000  0.5547070000000  0.5500660000000 1.0
C      1  0.4118840000000  0.5476800000000  0.4774020000000 1.0
C      1  0.5329660000000  0.4177390000000  0.5586720000000 1.0
C      1  0.4308430000000  0.4620140000000  0.4167170000000 1.0
C      1  0.5225320000000  0.4111370000000  0.4410900000000 1.0
C      1  0.5557900000000  0.4414380000000  0.4654760000000 1.0
C      1  0.5699740000000  0.5619860000000  0.4827650000000 1.0
C      1  0.4984810000000  0.5282260000000  0.6121890000000 1.0
C      1  0.5655040000000  0.5056280000000  0.5093850000000 1.0
C      1  0.4161230000000  0.4621810000000  0.5770270000000 1.0
C      1  0.4338570000000  0.4848970000000  0.5023530000000 1.0
C      1  0.4414660000000  0.5287390000000  0.4353130000000 1.0
C      1  0.4953090000000  0.4698970000000  0.4354930000000 1.0
C      1  0.5670250000000  0.4876450000000  0.4574700000000 1.0
C      1  0.3895680000000  0.5292220000000  0.4952230000000 1.0
C      1  0.4548740000000  0.4084930000000  0.4690590000000 1.0
C      1  0.4172360000000  0.5248860000000  0.4527780000000 1.0
C      1  0.4513640000000  0.4399750000000  0.5448770000000 1.0
C      1  0.4992580000000  0.4103600000000  0.5581970000000 1.0
C      1  0.4699460000000  0.5518270000000  0.5120920000000 1.0
C      1  0.5204740000000  0.4665570000000  0.5855840000000 1.0
C      1  0.5685880000000  0.4173200000000  0.5130440000000 1.0
C      1  0.5293800000000  0.5402680000000  0.4140100000000 1.0
C      1  0.4800370000000  0.5519030000000  0.5700580000000 1.0
C      1  0.5584920000000  0.5859430000000  0.5446870000000 1.0
C      1  0.5815760000000  0.4497450000000  0.5653430000000 1.0
C      1  0.5871990000000  0.4915600000000  0.5314750000000 1.0
C      1  0.4063980000000  0.5269940000000  0.5233030000000 1.0
C      1  0.5839290000000  0.5429340000000  0.5279020000000 1.0
C      1  0.5574130000000  0.4647680000000  0.4174860000000 1.0
C      1  0.5196070000000  0.4360200000000  0.5018370000000 1.0
C      1  0.5333260000000  0.5600550000000  0.5286240000000 1.0
C      1  0.4922280000000  0.4999620000000  0.4870070000000 1.0
END
