TITL C-2848503-6230-494 2.61220433019293e-05 125000 -795.101727581958 0 0 153 (C1) n - 1
REM
REM in /home/bkarasulu/work/CARBON/AIRSS/Generating-Clusters/AIREBO/with-SteepDescent/Only-C1/SD-CG-opt/Try1-1.4A-POS3A/HFTN-CG
REM
REM
REM
REM
REM
REM ./C.cell (11c1c37f851c82e70ff6c80c92926a4b)
REM
REM compiler GCC version 9.2.1 20190827 (Red Hat 9.2.1-1)
REM options -cpp -mtune=generic -march=x86-64 -g -O0 -fpre-include=/usr/include/finclude/math-vector-fortran.h
REM seed 1157400583 -625889988 2003916321 506584215 648023507 1184200191 1549587815 679691862 1042808798 704551852 1825583331 176974563 1882101527 549363331 1955692454 -1257880520 1253490882 569404428 26838603 -1891758804 -1570531954 1107267092 1396502292 1599485729 1387112899 -107187341 -2059219847 168872319 -684702967 -294772374 -600212334 666753434 -1906396796
REM
CELL 1.54180   50.00000   50.00000   50.00000   90.00000   90.00000   90.00000
LATT -1
SFAC C  
C      1  0.4484160000000  0.4065120000000  0.4844090000000 1.0
C      1  0.5356060000000  0.5277520000000  0.5170280000000 1.0
C      1  0.4969310000000  0.4271170000000  0.4168250000000 1.0
C      1  0.5849410000000  0.4664150000000  0.5187670000000 1.0
C      1  0.4305400000000  0.4626310000000  0.5059630000000 1.0
C      1  0.4005630000000  0.4592740000000  0.5330070000000 1.0
C      1  0.4156500000000  0.5717170000000  0.5367810000000 1.0
C      1  0.5641720000000  0.4288160000000  0.4907560000000 1.0
C      1  0.4761390000000  0.5307210000000  0.4906000000000 1.0
C      1  0.4083360000000  0.4878330000000  0.5272430000000 1.0
C      1  0.5642530000000  0.5049570000000  0.4758670000000 1.0
C      1  0.4946760000000  0.4554230000000  0.5494490000000 1.0
C      1  0.4397210000000  0.5697080000000  0.5578490000000 1.0
C      1  0.4927580000000  0.4620480000000  0.5161520000000 1.0
C      1  0.4160080000000  0.4513070000000  0.5556220000000 1.0
C      1  0.5360050000000  0.5036220000000  0.4093500000000 1.0
C      1  0.5142130000000  0.5752440000000  0.4488660000000 1.0
C      1  0.5194340000000  0.4794560000000  0.5284230000000 1.0
C      1  0.4177370000000  0.4923730000000  0.4955850000000 1.0
C      1  0.4437960000000  0.4410540000000  0.5469080000000 1.0
C      1  0.5094420000000  0.5097490000000  0.5537840000000 1.0
C      1  0.4348280000000  0.4491960000000  0.4631150000000 1.0
C      1  0.5029930000000  0.4023250000000  0.5183100000000 1.0
C      1  0.4634480000000  0.4689380000000  0.5463250000000 1.0
C      1  0.5001810000000  0.4030110000000  0.5523260000000 1.0
C      1  0.5318030000000  0.4990870000000  0.5075740000000 1.0
C      1  0.4399540000000  0.4591450000000  0.4117670000000 1.0
C      1  0.4608480000000  0.4295100000000  0.4534630000000 1.0
C      1  0.4735880000000  0.5646860000000  0.4932610000000 1.0
C      1  0.5798040000000  0.4898740000000  0.5618170000000 1.0
C      1  0.5757090000000  0.4337310000000  0.5206260000000 1.0
C      1  0.5740220000000  0.5711770000000  0.4891590000000 1.0
C      1  0.4766410000000  0.5390140000000  0.5231920000000 1.0
C      1  0.4024720000000  0.5140180000000  0.4531530000000 1.0
C      1  0.5074860000000  0.5754460000000  0.6022950000000 1.0
C      1  0.4300510000000  0.5185910000000  0.5606600000000 1.0
C      1  0.5052080000000  0.3749950000000  0.5384130000000 1.0
C      1  0.4598900000000  0.4824950000000  0.4372130000000 1.0
C      1  0.5930900000000  0.4579710000000  0.4868090000000 1.0
C      1  0.5567540000000  0.4454370000000  0.5682490000000 1.0
C      1  0.4355610000000  0.4827480000000  0.4687850000000 1.0
C      1  0.4936740000000  0.5397470000000  0.4110080000000 1.0
C      1  0.4335080000000  0.4890080000000  0.4183130000000 1.0
C      1  0.4558110000000  0.4922380000000  0.5966630000000 1.0
C      1  0.5140650000000  0.5020570000000  0.6038340000000 1.0
C      1  0.5122580000000  0.5435370000000  0.5588550000000 1.0
C      1  0.4543890000000  0.5108860000000  0.4735020000000 1.0
C      1  0.5629870000000  0.4723000000000  0.5827250000000 1.0
C      1  0.5219690000000  0.4904500000000  0.3888090000000 1.0
C      1  0.5321540000000  0.4861660000000  0.3637000000000 1.0
C      1  0.4517330000000  0.5566490000000  0.5297080000000 1.0
C      1  0.5457770000000  0.5747830000000  0.4612130000000 1.0
C      1  0.5453450000000  0.5478940000000  0.4112630000000 1.0
C      1  0.4778900000000  0.4213370000000  0.4817240000000 1.0
C      1  0.5182300000000  0.5247700000000  0.4291810000000 1.0
C      1  0.5068520000000  0.4529400000000  0.5864770000000 1.0
C      1  0.5992080000000  0.4609480000000  0.4534960000000 1.0
C      1  0.4081340000000  0.5268530000000  0.4765540000000 1.0
C      1  0.5272770000000  0.4457310000000  0.5512940000000 1.0
C      1  0.4735250000000  0.4730870000000  0.5785180000000 1.0
C      1  0.5601020000000  0.4949130000000  0.4211000000000 1.0
C      1  0.4481690000000  0.5182890000000  0.5823460000000 1.0
C      1  0.5824570000000  0.4345270000000  0.4640900000000 1.0
C      1  0.4401960000000  0.4318950000000  0.5168400000000 1.0
C      1  0.5557840000000  0.5909790000000  0.4991000000000 1.0
C      1  0.4576000000000  0.4784530000000  0.5080790000000 1.0
C      1  0.5047710000000  0.4847340000000  0.5764620000000 1.0
C      1  0.4679720000000  0.4566820000000  0.4002800000000 1.0
C      1  0.5717430000000  0.5528290000000  0.4606090000000 1.0
C      1  0.4507010000000  0.5090910000000  0.5199920000000 1.0
C      1  0.5021310000000  0.5832440000000  0.5484790000000 1.0
C      1  0.4203350000000  0.5748320000000  0.4859390000000 1.0
C      1  0.4783670000000  0.5106900000000  0.5399950000000 1.0
C      1  0.4831720000000  0.5094960000000  0.5986990000000 1.0
C      1  0.5359530000000  0.5797220000000  0.5484250000000 1.0
C      1  0.4719030000000  0.5607400000000  0.4274730000000 1.0
C      1  0.5633840000000  0.5455840000000  0.5088600000000 1.0
C      1  0.4370980000000  0.4904620000000  0.5449830000000 1.0
C      1  0.4553170000000  0.5345820000000  0.4214990000000 1.0
C      1  0.5879580000000  0.5269470000000  0.4704810000000 1.0
C      1  0.4953160000000  0.4270980000000  0.5675970000000 1.0
C      1  0.6029510000000  0.4951190000000  0.5157840000000 1.0
C      1  0.5266770000000  0.5813160000000  0.5069110000000 1.0
C      1  0.5008090000000  0.5453800000000  0.4498710000000 1.0
C      1  0.4789240000000  0.5045770000000  0.4332930000000 1.0
C      1  0.5397770000000  0.4661560000000  0.4567320000000 1.0
C      1  0.4909530000000  0.5895830000000  0.4678680000000 1.0
C      1  0.4252860000000  0.4287370000000  0.4864380000000 1.0
C      1  0.5517790000000  0.4568300000000  0.4988070000000 1.0
C      1  0.5376140000000  0.4906840000000  0.5529860000000 1.0
C      1  0.5856670000000  0.4776700000000  0.4356210000000 1.0
C      1  0.5543210000000  0.5732320000000  0.5762920000000 1.0
C      1  0.5457210000000  0.5440130000000  0.5649030000000 1.0
C      1  0.5295580000000  0.5302180000000  0.6033020000000 1.0
C      1  0.5229870000000  0.5508440000000  0.3992890000000 1.0
C      1  0.4110140000000  0.5189970000000  0.5158510000000 1.0
C      1  0.4731890000000  0.4543750000000  0.4338130000000 1.0
C      1  0.5384420000000  0.5227120000000  0.4718070000000 1.0
C      1  0.5126070000000  0.5670040000000  0.4813100000000 1.0
C      1  0.4365880000000  0.5276430000000  0.4951710000000 1.0
C      1  0.4303050000000  0.4424310000000  0.4311460000000 1.0
C      1  0.4028590000000  0.4420090000000  0.5082770000000 1.0
C      1  0.5368560000000  0.4137000000000  0.4759370000000 1.0
C      1  0.4229110000000  0.4747030000000  0.5715780000000 1.0
C      1  0.6152720000000  0.5240440000000  0.4579460000000 1.0
C      1  0.5414500000000  0.4854820000000  0.5923290000000 1.0
C      1  0.6008750000000  0.5095000000000  0.5454170000000 1.0
C      1  0.4470890000000  0.5124710000000  0.4038660000000 1.0
C      1  0.4662990000000  0.4450290000000  0.5032210000000 1.0
C      1  0.5613230000000  0.4682340000000  0.5432110000000 1.0
C      1  0.4914860000000  0.4679860000000  0.4826170000000 1.0
C      1  0.5308740000000  0.4509620000000  0.5197980000000 1.0
C      1  0.5413320000000  0.5142240000000  0.5772920000000 1.0
C      1  0.5051820000000  0.5282010000000  0.4754280000000 1.0
C      1  0.5059230000000  0.4023210000000  0.4847120000000 1.0
C      1  0.5189110000000  0.4394910000000  0.4818690000000 1.0
C      1  0.4802960000000  0.5103680000000  0.4018400000000 1.0
C      1  0.4919960000000  0.4805060000000  0.3949380000000 1.0
C      1  0.4825300000000  0.5563810000000  0.5692730000000 1.0
C      1  0.4791130000000  0.6072190000000  0.5139230000000 1.0
C      1  0.5452840000000  0.5392060000000  0.4438900000000 1.0
C      1  0.5692100000000  0.5056920000000  0.5334690000000 1.0
C      1  0.4660060000000  0.5677600000000  0.4602380000000 1.0
C      1  0.5557020000000  0.4278370000000  0.5407910000000 1.0
C      1  0.5630810000000  0.4883640000000  0.5047030000000 1.0
C      1  0.4912160000000  0.5682890000000  0.5221980000000 1.0
C      1  0.4660040000000  0.4404510000000  0.5726490000000 1.0
C      1  0.4709570000000  0.5291330000000  0.4511120000000 1.0
C      1  0.5060910000000  0.4999270000000  0.4472550000000 1.0
C      1  0.5623020000000  0.5597870000000  0.5397530000000 1.0
C      1  0.5400110000000  0.5508520000000  0.4847290000000 1.0
C      1  0.4779510000000  0.4151110000000  0.4285990000000 1.0
C      1  0.5220640000000  0.5554520000000  0.5285270000000 1.0
C      1  0.4250600000000  0.5833220000000  0.5126860000000 1.0
C      1  0.4604660000000  0.5706590000000  0.5763640000000 1.0
C      1  0.5184660000000  0.4743610000000  0.4384080000000 1.0
C      1  0.4239110000000  0.5387670000000  0.5382310000000 1.0
C      1  0.4763960000000  0.5260990000000  0.5702460000000 1.0
C      1  0.5004690000000  0.6008810000000  0.4974210000000 1.0
C      1  0.4193200000000  0.4947910000000  0.4448300000000 1.0
C      1  0.5879510000000  0.5227090000000  0.5027030000000 1.0
C      1  0.4564070000000  0.5858310000000  0.5136110000000 1.0
C      1  0.4385480000000  0.5561510000000  0.4766930000000 1.0
C      1  0.5501090000000  0.4372650000000  0.4551780000000 1.0
C      1  0.5250060000000  0.4726010000000  0.4866730000000 1.0
C      1  0.5160710000000  0.5519480000000  0.5915910000000 1.0
C      1  0.4952000000000  0.4980110000000  0.4781100000000 1.0
C      1  0.5603270000000  0.4870460000000  0.4524930000000 1.0
C      1  0.4870570000000  0.4951820000000  0.5110100000000 1.0
C      1  0.5075710000000  0.4318530000000  0.5111510000000 1.0
C      1  0.4960670000000  0.4478570000000  0.4581130000000 1.0
C      1  0.5031560000000  0.4593890000000  0.4185370000000 1.0
C      1  0.5799370000000  0.5347710000000  0.5434590000000 1.0
END
