TITL C-2847957-7266-673 0.000373592875676882 125000 -895.549819992284 0 0 167 (C1) n - 1
REM
REM in /home/bkarasulu/work/CARBON/AIRSS/Generating-Clusters/AIREBO/with-SteepDescent/Only-C1/SD-CG-opt/Try1-1.4A-POS3A/HFTN-CG
REM
REM
REM
REM
REM
REM ./C.cell (11c1c37f851c82e70ff6c80c92926a4b)
REM
REM compiler GCC version 9.2.1 20190827 (Red Hat 9.2.1-1)
REM options -cpp -mtune=generic -march=x86-64 -g -O0 -fpre-include=/usr/include/finclude/math-vector-fortran.h
REM seed 2022209889 1179347489 1305794150 412926035 -1469288597 -2049511221 -1269846688 1226278225 -707534980 -636008490 190399388 -512297793 116594061 -2095519595 -1670418678 3841983 1638354601 -245647864 441746920 2098063407 1472669568 2077540167 326963340 502369978 -1804640541 -1752311512 489738962 787981098 -401747859 899598824 -568112403 -860774992 65520002
REM
CELL 1.54180   50.00000   50.00000   50.00000   90.00000   90.00000   90.00000
LATT -1
SFAC C  
C      1  0.5831290000000  0.5426420000000  0.4535240000000 1.0
C      1  0.5667040000000  0.4823030000000  0.5707510000000 1.0
C      1  0.5619920000000  0.4795060000000  0.5199180000000 1.0
C      1  0.5414270000000  0.5736580000000  0.4546050000000 1.0
C      1  0.4313330000000  0.4574920000000  0.4513930000000 1.0
C      1  0.5142550000000  0.4272810000000  0.4144980000000 1.0
C      1  0.6000330000000  0.4684740000000  0.5160000000000 1.0
C      1  0.4714760000000  0.4078190000000  0.4944050000000 1.0
C      1  0.4992720000000  0.3989510000000  0.5614420000000 1.0
C      1  0.4699890000000  0.4369830000000  0.5118530000000 1.0
C      1  0.5657590000000  0.4981800000000  0.4918400000000 1.0
C      1  0.5117980000000  0.5696560000000  0.5358390000000 1.0
C      1  0.5844000000000  0.4963210000000  0.4063080000000 1.0
C      1  0.5173120000000  0.5188210000000  0.4394690000000 1.0
C      1  0.4910050000000  0.5640410000000  0.4392770000000 1.0
C      1  0.4669200000000  0.5392100000000  0.5644720000000 1.0
C      1  0.4066700000000  0.4754040000000  0.4665290000000 1.0
C      1  0.5898720000000  0.4384410000000  0.5282060000000 1.0
C      1  0.4626620000000  0.4602580000000  0.4643100000000 1.0
C      1  0.5158520000000  0.4863390000000  0.5981440000000 1.0
C      1  0.4957540000000  0.4989610000000  0.5615310000000 1.0
C      1  0.4966450000000  0.4833970000000  0.3652550000000 1.0
C      1  0.4889620000000  0.6146140000000  0.5196810000000 1.0
C      1  0.4808470000000  0.6121880000000  0.4442490000000 1.0
C      1  0.4088670000000  0.4992100000000  0.4820540000000 1.0
C      1  0.5124380000000  0.3902250000000  0.5376220000000 1.0
C      1  0.5356390000000  0.5471750000000  0.4353850000000 1.0
C      1  0.4365660000000  0.5403540000000  0.5515950000000 1.0
C      1  0.5319370000000  0.5894440000000  0.4953260000000 1.0
C      1  0.5640510000000  0.4867580000000  0.4270700000000 1.0
C      1  0.4642530000000  0.4321420000000  0.4178310000000 1.0
C      1  0.6017030000000  0.5321060000000  0.5066860000000 1.0
C      1  0.5471580000000  0.5086600000000  0.5664250000000 1.0
C      1  0.5148720000000  0.4827250000000  0.3939340000000 1.0
C      1  0.5369310000000  0.5101980000000  0.4658800000000 1.0
C      1  0.5820310000000  0.5772410000000  0.5084030000000 1.0
C      1  0.4827600000000  0.4702900000000  0.3901140000000 1.0
C      1  0.5400230000000  0.4812020000000  0.4774960000000 1.0
C      1  0.5584970000000  0.5746800000000  0.4839970000000 1.0
C      1  0.4982490000000  0.5793030000000  0.5656290000000 1.0
C      1  0.4309210000000  0.5674320000000  0.5318160000000 1.0
C      1  0.5026060000000  0.5342120000000  0.5070310000000 1.0
C      1  0.5511560000000  0.5241470000000  0.4188750000000 1.0
C      1  0.5682700000000  0.5543180000000  0.5946170000000 1.0
C      1  0.5138290000000  0.4163050000000  0.4623180000000 1.0
C      1  0.4787750000000  0.5639510000000  0.5826750000000 1.0
C      1  0.5337890000000  0.4372740000000  0.5897440000000 1.0
C      1  0.5163800000000  0.4711240000000  0.4945580000000 1.0
C      1  0.4995370000000  0.4821050000000  0.4693340000000 1.0
C      1  0.5184050000000  0.5983900000000  0.5246910000000 1.0
C      1  0.4677970000000  0.5103770000000  0.5353120000000 1.0
C      1  0.4901010000000  0.5608850000000  0.4731350000000 1.0
C      1  0.5917930000000  0.4938590000000  0.5601840000000 1.0
C      1  0.5896530000000  0.4955630000000  0.5314550000000 1.0
C      1  0.4016110000000  0.5257840000000  0.4928960000000 1.0
C      1  0.5521660000000  0.4524600000000  0.4682780000000 1.0
C      1  0.5095950000000  0.4498250000000  0.5501980000000 1.0
C      1  0.5201820000000  0.5508420000000  0.4648370000000 1.0
C      1  0.4475510000000  0.5226640000000  0.4816040000000 1.0
C      1  0.4938270000000  0.4703490000000  0.6033290000000 1.0
C      1  0.5428960000000  0.5165670000000  0.5349970000000 1.0
C      1  0.5315720000000  0.4785360000000  0.5303360000000 1.0
C      1  0.4410600000000  0.5721220000000  0.5008220000000 1.0
C      1  0.5028910000000  0.5964550000000  0.4023490000000 1.0
C      1  0.4880320000000  0.4532510000000  0.4943100000000 1.0
C      1  0.4595590000000  0.6005450000000  0.4560670000000 1.0
C      1  0.5284950000000  0.5764460000000  0.5714300000000 1.0
C      1  0.3835940000000  0.4547860000000  0.5612260000000 1.0
C      1  0.4429700000000  0.5525640000000  0.4660260000000 1.0
C      1  0.4633640000000  0.5636810000000  0.4240280000000 1.0
C      1  0.4610390000000  0.5958500000000  0.5147640000000 1.0
C      1  0.6071520000000  0.4832630000000  0.3994360000000 1.0
C      1  0.5274290000000  0.4093030000000  0.4899430000000 1.0
C      1  0.4880390000000  0.4033120000000  0.4463990000000 1.0
C      1  0.5217640000000  0.4493620000000  0.4616050000000 1.0
C      1  0.4411210000000  0.4529290000000  0.4896030000000 1.0
C      1  0.4344610000000  0.5098740000000  0.4534530000000 1.0
C      1  0.4547510000000  0.5361250000000  0.4188140000000 1.0
C      1  0.4699690000000  0.3973740000000  0.5550470000000 1.0
C      1  0.5627930000000  0.5207300000000  0.4480560000000 1.0
C      1  0.4466120000000  0.5771590000000  0.4428310000000 1.0
C      1  0.6039040000000  0.5604700000000  0.5065110000000 1.0
C      1  0.4761440000000  0.4148630000000  0.5331330000000 1.0
C      1  0.4462830000000  0.5672440000000  0.5920510000000 1.0
C      1  0.5495330000000  0.4347770000000  0.4955090000000 1.0
C      1  0.5317590000000  0.4978520000000  0.4166840000000 1.0
C      1  0.5099900000000  0.5291030000000  0.5585530000000 1.0
C      1  0.4784220000000  0.4720950000000  0.4370230000000 1.0
C      1  0.4861280000000  0.5389950000000  0.5364120000000 1.0
C      1  0.5586170000000  0.4284260000000  0.5344940000000 1.0
C      1  0.5271920000000  0.4490810000000  0.5143520000000 1.0
C      1  0.4488190000000  0.4964190000000  0.5564420000000 1.0
C      1  0.5213060000000  0.4593910000000  0.4139330000000 1.0
C      1  0.5737460000000  0.4914660000000  0.4593550000000 1.0
C      1  0.5743800000000  0.5214310000000  0.3983540000000 1.0
C      1  0.5010920000000  0.3958550000000  0.5061330000000 1.0
C      1  0.4873090000000  0.5321340000000  0.4280360000000 1.0
C      1  0.5339190000000  0.4191050000000  0.4355700000000 1.0
C      1  0.4808990000000  0.5291960000000  0.4813380000000 1.0
C      1  0.4153250000000  0.5533270000000  0.4462360000000 1.0
C      1  0.4797540000000  0.5922060000000  0.5433210000000 1.0
C      1  0.4618730000000  0.4573850000000  0.5510490000000 1.0
C      1  0.5298520000000  0.5322310000000  0.4867660000000 1.0
C      1  0.5021850000000  0.5932190000000  0.4304650000000 1.0
C      1  0.5052870000000  0.4283820000000  0.5284670000000 1.0
C      1  0.5546180000000  0.5546960000000  0.5703310000000 1.0
C      1  0.4523620000000  0.4651060000000  0.5193020000000 1.0
C      1  0.4096340000000  0.5008760000000  0.5654720000000 1.0
C      1  0.4397370000000  0.4043260000000  0.4940590000000 1.0
C      1  0.4484420000000  0.5305810000000  0.5212680000000 1.0
C      1  0.4631480000000  0.5782430000000  0.4789300000000 1.0
C      1  0.5255590000000  0.4852090000000  0.5594380000000 1.0
C      1  0.4686370000000  0.4529920000000  0.6097870000000 1.0
C      1  0.5732310000000  0.5402860000000  0.5453620000000 1.0
C      1  0.4320420000000  0.5063060000000  0.5843220000000 1.0
C      1  0.5392870000000  0.4688820000000  0.5859290000000 1.0
C      1  0.5828740000000  0.5659450000000  0.4622640000000 1.0
C      1  0.4648780000000  0.5653400000000  0.5319150000000 1.0
C      1  0.4491810000000  0.4944690000000  0.5008080000000 1.0
C      1  0.3810570000000  0.4671720000000  0.4598290000000 1.0
C      1  0.6143710000000  0.4849140000000  0.4918780000000 1.0
C      1  0.4788280000000  0.4839690000000  0.4962190000000 1.0
C      1  0.4893120000000  0.4929140000000  0.5226560000000 1.0
C      1  0.4416040000000  0.4858510000000  0.4393370000000 1.0
C      1  0.5084120000000  0.4675210000000  0.4404270000000 1.0
C      1  0.5537900000000  0.4389340000000  0.4400590000000 1.0
C      1  0.4883340000000  0.4157870000000  0.4200430000000 1.0
C      1  0.5712950000000  0.5206720000000  0.5167490000000 1.0
C      1  0.5910960000000  0.4712210000000  0.4773580000000 1.0
C      1  0.5146660000000  0.6188270000000  0.4977830000000 1.0
C      1  0.5777170000000  0.4495240000000  0.4986210000000 1.0
C      1  0.4812100000000  0.4498720000000  0.5783500000000 1.0
C      1  0.4639910000000  0.4102490000000  0.4612800000000 1.0
C      1  0.5301230000000  0.5970590000000  0.4434530000000 1.0
C      1  0.4488230000000  0.4294420000000  0.4432320000000 1.0
C      1  0.5585810000000  0.5615460000000  0.5245260000000 1.0
C      1  0.4274330000000  0.5558620000000  0.5791790000000 1.0
C      1  0.4037640000000  0.5511090000000  0.5318740000000 1.0
C      1  0.4303110000000  0.4790400000000  0.5394800000000 1.0
C      1  0.4905870000000  0.4712050000000  0.5460640000000 1.0
C      1  0.4707910000000  0.5103530000000  0.5763140000000 1.0
C      1  0.6184320000000  0.5121560000000  0.4962350000000 1.0
C      1  0.5547320000000  0.5434680000000  0.4977100000000 1.0
C      1  0.5513300000000  0.4595090000000  0.4206210000000 1.0
C      1  0.4360850000000  0.4500470000000  0.5660030000000 1.0
C      1  0.4182140000000  0.4968220000000  0.5146740000000 1.0
C      1  0.4703230000000  0.5039800000000  0.4367460000000 1.0
C      1  0.5067430000000  0.5678180000000  0.5019740000000 1.0
C      1  0.4281500000000  0.3796650000000  0.4927470000000 1.0
C      1  0.5623380000000  0.4600230000000  0.5475640000000 1.0
C      1  0.4275990000000  0.5420710000000  0.5011400000000 1.0
C      1  0.5389340000000  0.4403660000000  0.5580010000000 1.0
C      1  0.5341650000000  0.5480630000000  0.5439830000000 1.0
C      1  0.3883720000000  0.4806540000000  0.5166860000000 1.0
C      1  0.4317270000000  0.5307230000000  0.4345110000000 1.0
C      1  0.4922210000000  0.5100900000000  0.4606980000000 1.0
C      1  0.4273250000000  0.4295070000000  0.4917040000000 1.0
C      1  0.4076550000000  0.4678020000000  0.5599320000000 1.0
C      1  0.5054290000000  0.4263340000000  0.5744230000000 1.0
C      1  0.4706520000000  0.4589010000000  0.4112940000000 1.0
C      1  0.4897870000000  0.4402100000000  0.4666230000000 1.0
C      1  0.4689060000000  0.5207900000000  0.6058970000000 1.0
C      1  0.5339390000000  0.4108170000000  0.5233020000000 1.0
C      1  0.4124150000000  0.5192030000000  0.5398240000000 1.0
C      1  0.5171100000000  0.5061080000000  0.5195190000000 1.0
C      1  0.4745580000000  0.5453090000000  0.6096690000000 1.0
C      1  0.5218620000000  0.5138590000000  0.5870620000000 1.0
END
