TITL C-2848496-4490-328 5.15574745320292e-05 125000 -782.955177463534 0 0 146 (C1) n - 1
REM
REM in /home/bkarasulu/work/CARBON/AIRSS/Generating-Clusters/AIREBO/with-SteepDescent/Only-C1/SD-CG-opt/Try1-1.4A-POS3A/HFTN-CG
REM
REM
REM
REM
REM
REM ./C.cell (11c1c37f851c82e70ff6c80c92926a4b)
REM
REM compiler GCC version 9.2.1 20190827 (Red Hat 9.2.1-1)
REM options -cpp -mtune=generic -march=x86-64 -g -O0 -fpre-include=/usr/include/finclude/math-vector-fortran.h
REM seed -731111653 2110121913 1329993015 -97102563 -1577811939 1245270614 -1173757941 578391270 1318278472 1630938537 1701995439 259083456 -412778669 17666083 -1463861649 -1398531572 -658081126 -1662659808 1842410279 -1737803619 846428180 98216949 3782125 -854651258 -674553959 572060257 -1342528334 -1328530518 71638333 -489089368 1564232553 -11451881 -1834718459
REM
CELL 1.54180   50.00000   50.00000   50.00000   90.00000   90.00000   90.00000
LATT -1
SFAC C  
C      1  0.5797780000000  0.4969910000000  0.4982640000000 1.0
C      1  0.4601070000000  0.5684750000000  0.4912760000000 1.0
C      1  0.4763690000000  0.5776430000000  0.4559560000000 1.0
C      1  0.5000210000000  0.4226600000000  0.4381830000000 1.0
C      1  0.4754100000000  0.4156190000000  0.4492740000000 1.0
C      1  0.5102140000000  0.5262590000000  0.4046130000000 1.0
C      1  0.5199950000000  0.4135860000000  0.5365910000000 1.0
C      1  0.5646290000000  0.5756830000000  0.4538530000000 1.0
C      1  0.4685620000000  0.6065220000000  0.5914070000000 1.0
C      1  0.5806020000000  0.5388610000000  0.5495550000000 1.0
C      1  0.5311620000000  0.5998380000000  0.4899330000000 1.0
C      1  0.5185420000000  0.5812540000000  0.4709480000000 1.0
C      1  0.4665950000000  0.5878480000000  0.5744680000000 1.0
C      1  0.5588740000000  0.4100040000000  0.4790490000000 1.0
C      1  0.4247240000000  0.5672950000000  0.4518520000000 1.0
C      1  0.5106840000000  0.5268720000000  0.4728860000000 1.0
C      1  0.4638640000000  0.5354930000000  0.5828380000000 1.0
C      1  0.6124790000000  0.5226520000000  0.5829220000000 1.0
C      1  0.5394710000000  0.5230560000000  0.5246060000000 1.0
C      1  0.4862450000000  0.4169130000000  0.5333850000000 1.0
C      1  0.5266740000000  0.4978190000000  0.4643450000000 1.0
C      1  0.5376680000000  0.5318720000000  0.4918040000000 1.0
C      1  0.4788290000000  0.4952390000000  0.4514330000000 1.0
C      1  0.5426210000000  0.4615150000000  0.4919910000000 1.0
C      1  0.4467630000000  0.5165460000000  0.4738570000000 1.0
C      1  0.4902360000000  0.4143700000000  0.4938210000000 1.0
C      1  0.4808650000000  0.5285890000000  0.4118550000000 1.0
C      1  0.5499310000000  0.5479660000000  0.4095750000000 1.0
C      1  0.4473890000000  0.4992190000000  0.4446050000000 1.0
C      1  0.5403050000000  0.4920660000000  0.4942520000000 1.0
C      1  0.5277110000000  0.4523080000000  0.4670110000000 1.0
C      1  0.4747270000000  0.4630260000000  0.4279620000000 1.0
C      1  0.4595790000000  0.4102460000000  0.4796870000000 1.0
C      1  0.5019780000000  0.4966740000000  0.5667280000000 1.0
C      1  0.5797430000000  0.4833890000000  0.4480740000000 1.0
C      1  0.4288390000000  0.4516730000000  0.4640430000000 1.0
C      1  0.5169190000000  0.5521230000000  0.4526170000000 1.0
C      1  0.4514350000000  0.4684040000000  0.5409940000000 1.0
C      1  0.4814160000000  0.6033030000000  0.5327900000000 1.0
C      1  0.5441530000000  0.5630650000000  0.5037050000000 1.0
C      1  0.5856750000000  0.5284940000000  0.4492030000000 1.0
C      1  0.5607770000000  0.5134710000000  0.4774380000000 1.0
C      1  0.5164940000000  0.4813760000000  0.5934240000000 1.0
C      1  0.4548500000000  0.5611730000000  0.4387450000000 1.0
C      1  0.5423310000000  0.4602700000000  0.5663140000000 1.0
C      1  0.5166400000000  0.4035710000000  0.5041090000000 1.0
C      1  0.5502100000000  0.4748710000000  0.4551090000000 1.0
C      1  0.4273540000000  0.5581660000000  0.5422110000000 1.0
C      1  0.5382250000000  0.6277030000000  0.5041410000000 1.0
C      1  0.4170250000000  0.5296380000000  0.4839450000000 1.0
C      1  0.5096710000000  0.4993010000000  0.5028940000000 1.0
C      1  0.5159380000000  0.4686090000000  0.5535440000000 1.0
C      1  0.4818380000000  0.5135030000000  0.5451130000000 1.0
C      1  0.5119120000000  0.5606290000000  0.5044880000000 1.0
C      1  0.5242350000000  0.4314890000000  0.5655400000000 1.0
C      1  0.5978670000000  0.4904460000000  0.4714890000000 1.0
C      1  0.5573330000000  0.4949700000000  0.5220410000000 1.0
C      1  0.5268930000000  0.5170000000000  0.5556570000000 1.0
C      1  0.5222900000000  0.4999080000000  0.4336870000000 1.0
C      1  0.4376350000000  0.5902690000000  0.5031970000000 1.0
C      1  0.4903550000000  0.5730370000000  0.4832660000000 1.0
C      1  0.4090080000000  0.4711240000000  0.4773470000000 1.0
C      1  0.5021480000000  0.5563950000000  0.5372820000000 1.0
C      1  0.4584050000000  0.4651400000000  0.4873520000000 1.0
C      1  0.4611890000000  0.4414410000000  0.4662430000000 1.0
C      1  0.5561320000000  0.4447080000000  0.4405570000000 1.0
C      1  0.5992020000000  0.5240810000000  0.4762770000000 1.0
C      1  0.5554600000000  0.5759770000000  0.5322140000000 1.0
C      1  0.3819170000000  0.4910760000000  0.5108960000000 1.0
C      1  0.5150350000000  0.4995910000000  0.3943600000000 1.0
C      1  0.5502120000000  0.4027460000000  0.5256000000000 1.0
C      1  0.4091560000000  0.5424540000000  0.4569800000000 1.0
C      1  0.4624640000000  0.4513530000000  0.5155700000000 1.0
C      1  0.4211120000000  0.4699540000000  0.5406010000000 1.0
C      1  0.4481170000000  0.4503820000000  0.4140370000000 1.0
C      1  0.4559450000000  0.5388620000000  0.4189340000000 1.0
C      1  0.4409400000000  0.5353140000000  0.5085420000000 1.0
C      1  0.5636830000000  0.5618500000000  0.5562880000000 1.0
C      1  0.4967920000000  0.4724400000000  0.4039020000000 1.0
C      1  0.4319180000000  0.5168740000000  0.5609260000000 1.0
C      1  0.5647670000000  0.4452520000000  0.5109980000000 1.0
C      1  0.5443370000000  0.5347380000000  0.5961140000000 1.0
C      1  0.5034020000000  0.4732410000000  0.4431480000000 1.0
C      1  0.4832820000000  0.4881360000000  0.4843860000000 1.0
C      1  0.5468700000000  0.6000540000000  0.5186270000000 1.0
C      1  0.4440280000000  0.4673760000000  0.4411900000000 1.0
C      1  0.4795290000000  0.5217910000000  0.4813310000000 1.0
C      1  0.5069050000000  0.5294420000000  0.5170780000000 1.0
C      1  0.5668290000000  0.4240700000000  0.4547780000000 1.0
C      1  0.5318340000000  0.4490850000000  0.5190270000000 1.0
C      1  0.5423010000000  0.5555280000000  0.5754120000000 1.0
C      1  0.5204040000000  0.4237160000000  0.4582300000000 1.0
C      1  0.4993710000000  0.4608260000000  0.4746480000000 1.0
C      1  0.5831410000000  0.4897520000000  0.5613250000000 1.0
C      1  0.5307520000000  0.4052960000000  0.4778310000000 1.0
C      1  0.4731310000000  0.5262390000000  0.5146790000000 1.0
C      1  0.5719020000000  0.5331100000000  0.5225490000000 1.0
C      1  0.4482500000000  0.5503190000000  0.4700690000000 1.0
C      1  0.4276830000000  0.4211140000000  0.4733470000000 1.0
C      1  0.6040510000000  0.4712570000000  0.4962010000000 1.0
C      1  0.3895400000000  0.4817160000000  0.4562520000000 1.0
C      1  0.4530000000000  0.4996230000000  0.5441220000000 1.0
C      1  0.4778680000000  0.4795770000000  0.5835620000000 1.0
C      1  0.4535760000000  0.5583790000000  0.5638560000000 1.0
C      1  0.4677350000000  0.4931400000000  0.5142150000000 1.0
C      1  0.4673180000000  0.3981420000000  0.5121940000000 1.0
C      1  0.3945490000000  0.4671990000000  0.5036140000000 1.0
C      1  0.4109920000000  0.5323750000000  0.5388860000000 1.0
C      1  0.5200080000000  0.5471980000000  0.5593110000000 1.0
C      1  0.4086970000000  0.4524660000000  0.5233900000000 1.0
C      1  0.5846760000000  0.5384180000000  0.4973130000000 1.0
C      1  0.4801170000000  0.4477950000000  0.5856510000000 1.0
C      1  0.4099310000000  0.5265920000000  0.4332360000000 1.0
C      1  0.5381540000000  0.5777430000000  0.4456820000000 1.0
C      1  0.4363010000000  0.5191340000000  0.4252420000000 1.0
C      1  0.4757790000000  0.5120250000000  0.5845810000000 1.0
C      1  0.3986750000000  0.5187630000000  0.5103600000000 1.0
C      1  0.5883710000000  0.4610180000000  0.5183090000000 1.0
C      1  0.5861490000000  0.5055480000000  0.4321780000000 1.0
C      1  0.4132060000000  0.4985410000000  0.5414460000000 1.0
C      1  0.5444590000000  0.5062010000000  0.5796510000000 1.0
C      1  0.5593030000000  0.4820360000000  0.5740670000000 1.0
C      1  0.5323150000000  0.5321730000000  0.4297720000000 1.0
C      1  0.4533420000000  0.4254060000000  0.5349430000000 1.0
C      1  0.4948600000000  0.4786510000000  0.5213090000000 1.0
C      1  0.5110840000000  0.4518330000000  0.5894080000000 1.0
C      1  0.4554420000000  0.5609230000000  0.5234430000000 1.0
C      1  0.5002700000000  0.4478580000000  0.5316260000000 1.0
C      1  0.5929340000000  0.5173980000000  0.5650260000000 1.0
C      1  0.5664220000000  0.5567190000000  0.4798680000000 1.0
C      1  0.4773250000000  0.5731060000000  0.5444220000000 1.0
C      1  0.5048040000000  0.4409270000000  0.4156450000000 1.0
C      1  0.4902220000000  0.4441640000000  0.4993360000000 1.0
C      1  0.5288880000000  0.4587990000000  0.4258630000000 1.0
C      1  0.4358050000000  0.4870290000000  0.4867280000000 1.0
C      1  0.4294980000000  0.5046240000000  0.5121970000000 1.0
C      1  0.4218050000000  0.4270900000000  0.5252170000000 1.0
C      1  0.5369980000000  0.4816640000000  0.4053790000000 1.0
C      1  0.4236460000000  0.5850850000000  0.5237250000000 1.0
C      1  0.5814400000000  0.4816690000000  0.5351200000000 1.0
C      1  0.5550380000000  0.5369670000000  0.4546340000000 1.0
C      1  0.5285460000000  0.5072040000000  0.6085100000000 1.0
C      1  0.4748050000000  0.4534780000000  0.5534520000000 1.0
C      1  0.5648080000000  0.4158000000000  0.5061230000000 1.0
C      1  0.4846880000000  0.5001070000000  0.4202140000000 1.0
C      1  0.4633510000000  0.4247640000000  0.5674750000000 1.0
END
