TITL C-2847950-6905-518 -0.00134453976700084 125000 -843.113880788858 0 0 156 (C1) n - 1
REM
REM in /home/bkarasulu/work/CARBON/AIRSS/Generating-Clusters/AIREBO/with-SteepDescent/Only-C1/SD-CG-opt/Try1-1.4A-POS3A/HFTN-CG
REM
REM
REM
REM
REM
REM ./C.cell (11c1c37f851c82e70ff6c80c92926a4b)
REM
REM compiler GCC version 9.2.1 20190827 (Red Hat 9.2.1-1)
REM options -cpp -mtune=generic -march=x86-64 -g -O0 -fpre-include=/usr/include/finclude/math-vector-fortran.h
REM seed 1580801457 749180157 1803198532 -58613869 -1926532034 1721966947 2067720938 2053870197 292009987 1445164629 -1153891846 1318146636 663153946 -939711047 -671950547 -365853662 -964791761 -669216595 -746748489 -595948463 481635344 -478364805 -1443437371 -57096275 550692313 -58201162 -1372001123 481508380 -1036547762 -962759954 -2139823474 -1696346142 1759511536
REM
CELL 1.54180   50.00000   50.00000   50.00000   90.00000   90.00000   90.00000
LATT -1
SFAC C  
C      1  0.5152280000000  0.4880370000000  0.4813010000000 1.0
C      1  0.4172260000000  0.4606350000000  0.4680130000000 1.0
C      1  0.4915040000000  0.4888240000000  0.5521290000000 1.0
C      1  0.5808280000000  0.4507190000000  0.4637480000000 1.0
C      1  0.4533220000000  0.5041850000000  0.5075310000000 1.0
C      1  0.5653340000000  0.5436260000000  0.5762470000000 1.0
C      1  0.4536480000000  0.4615990000000  0.5629820000000 1.0
C      1  0.5389990000000  0.5688600000000  0.5365840000000 1.0
C      1  0.4784430000000  0.5826860000000  0.5315630000000 1.0
C      1  0.4697190000000  0.3895600000000  0.5318910000000 1.0
C      1  0.4608250000000  0.4837910000000  0.3931540000000 1.0
C      1  0.5100760000000  0.5916140000000  0.5214270000000 1.0
C      1  0.5242840000000  0.5773900000000  0.4940000000000 1.0
C      1  0.5642740000000  0.4921080000000  0.4840140000000 1.0
C      1  0.4930020000000  0.5607960000000  0.4531900000000 1.0
C      1  0.4993850000000  0.3973740000000  0.4671020000000 1.0
C      1  0.4213610000000  0.4730990000000  0.4162840000000 1.0
C      1  0.4645180000000  0.5223350000000  0.5344630000000 1.0
C      1  0.4526030000000  0.4751230000000  0.5044740000000 1.0
C      1  0.5428650000000  0.4207250000000  0.5436750000000 1.0
C      1  0.4743170000000  0.5582580000000  0.4815300000000 1.0
C      1  0.5199480000000  0.4589850000000  0.4696710000000 1.0
C      1  0.4292880000000  0.4274930000000  0.5043200000000 1.0
C      1  0.5070710000000  0.5352870000000  0.4804330000000 1.0
C      1  0.5903490000000  0.4902800000000  0.5022590000000 1.0
C      1  0.4673500000000  0.4596420000000  0.5903000000000 1.0
C      1  0.5564960000000  0.5829590000000  0.4475290000000 1.0
C      1  0.5333050000000  0.5093960000000  0.4658110000000 1.0
C      1  0.3983570000000  0.5315900000000  0.5096990000000 1.0
C      1  0.5567140000000  0.5694530000000  0.5592590000000 1.0
C      1  0.5752560000000  0.5970650000000  0.4366710000000 1.0
C      1  0.4870960000000  0.5339060000000  0.5883820000000 1.0
C      1  0.4331430000000  0.5232330000000  0.4202460000000 1.0
C      1  0.4024840000000  0.5118760000000  0.4677500000000 1.0
C      1  0.5660760000000  0.4968750000000  0.5847400000000 1.0
C      1  0.5512700000000  0.5315870000000  0.5477190000000 1.0
C      1  0.4597600000000  0.5086560000000  0.4048780000000 1.0
C      1  0.5432050000000  0.5521540000000  0.5067480000000 1.0
C      1  0.4477630000000  0.3977520000000  0.5410200000000 1.0
C      1  0.4569900000000  0.4636600000000  0.4743230000000 1.0
C      1  0.4037530000000  0.5125410000000  0.4337780000000 1.0
C      1  0.5302290000000  0.5219390000000  0.5726320000000 1.0
C      1  0.4735780000000  0.5528970000000  0.5225900000000 1.0
C      1  0.5795510000000  0.4278700000000  0.5102110000000 1.0
C      1  0.5308460000000  0.4385600000000  0.5634140000000 1.0
C      1  0.4788930000000  0.5652770000000  0.5855760000000 1.0
C      1  0.5878910000000  0.5433100000000  0.4963980000000 1.0
C      1  0.5496380000000  0.5525630000000  0.4437190000000 1.0
C      1  0.5697150000000  0.4273730000000  0.4849700000000 1.0
C      1  0.4578110000000  0.4924090000000  0.5491780000000 1.0
C      1  0.5079290000000  0.5036550000000  0.5263750000000 1.0
C      1  0.5422210000000  0.4761620000000  0.4979560000000 1.0
C      1  0.4719630000000  0.4914760000000  0.4736500000000 1.0
C      1  0.5218980000000  0.4905850000000  0.5672680000000 1.0
C      1  0.5638880000000  0.5745050000000  0.4915860000000 1.0
C      1  0.4942220000000  0.4080160000000  0.5217820000000 1.0
C      1  0.5371190000000  0.4653730000000  0.5562990000000 1.0
C      1  0.5696820000000  0.5481320000000  0.4708320000000 1.0
C      1  0.4594560000000  0.6079600000000  0.4911950000000 1.0
C      1  0.4788950000000  0.4970550000000  0.5826240000000 1.0
C      1  0.5877760000000  0.5028450000000  0.4416660000000 1.0
C      1  0.4563870000000  0.5216900000000  0.5893770000000 1.0
C      1  0.5151160000000  0.3970550000000  0.4972750000000 1.0
C      1  0.5396830000000  0.4967130000000  0.5318400000000 1.0
C      1  0.5455320000000  0.5926230000000  0.5145290000000 1.0
C      1  0.5729100000000  0.4805110000000  0.4573560000000 1.0
C      1  0.4006420000000  0.4849740000000  0.5090990000000 1.0
C      1  0.5123210000000  0.4789380000000  0.5960460000000 1.0
C      1  0.5039020000000  0.4357380000000  0.5714240000000 1.0
C      1  0.4422610000000  0.4545940000000  0.4234360000000 1.0
C      1  0.4254020000000  0.5576900000000  0.4598590000000 1.0
C      1  0.5237860000000  0.5331230000000  0.5277540000000 1.0
C      1  0.4978000000000  0.4619000000000  0.5323380000000 1.0
C      1  0.5480390000000  0.5306870000000  0.6004370000000 1.0
C      1  0.4866320000000  0.5361030000000  0.5563510000000 1.0
C      1  0.4513780000000  0.4137970000000  0.4902090000000 1.0
C      1  0.4860420000000  0.5127560000000  0.4185130000000 1.0
C      1  0.4238220000000  0.4575040000000  0.5351200000000 1.0
C      1  0.5208370000000  0.5485770000000  0.4379390000000 1.0
C      1  0.5519390000000  0.4652160000000  0.5281300000000 1.0
C      1  0.4181130000000  0.5781460000000  0.4764330000000 1.0
C      1  0.4155270000000  0.4915190000000  0.5371670000000 1.0
C      1  0.5083910000000  0.5573570000000  0.5459710000000 1.0
C      1  0.4322220000000  0.5308420000000  0.5067310000000 1.0
C      1  0.4382010000000  0.4448080000000  0.4509550000000 1.0
C      1  0.4737060000000  0.5359290000000  0.4484820000000 1.0
C      1  0.4876760000000  0.4942570000000  0.4469980000000 1.0
C      1  0.5510580000000  0.4074560000000  0.4559310000000 1.0
C      1  0.4983860000000  0.5398360000000  0.5075870000000 1.0
C      1  0.4931060000000  0.4393010000000  0.4451250000000 1.0
C      1  0.4904080000000  0.4667860000000  0.4299980000000 1.0
C      1  0.5379910000000  0.5151720000000  0.4131810000000 1.0
C      1  0.4708230000000  0.5263720000000  0.4929130000000 1.0
C      1  0.4931670000000  0.5013180000000  0.4983570000000 1.0
C      1  0.4387150000000  0.4948380000000  0.4358420000000 1.0
C      1  0.4531840000000  0.5136890000000  0.4593340000000 1.0
C      1  0.5131000000000  0.4362970000000  0.4906530000000 1.0
C      1  0.4860160000000  0.5548140000000  0.4047860000000 1.0
C      1  0.5071100000000  0.5855450000000  0.4435170000000 1.0
C      1  0.5658440000000  0.5242880000000  0.4463870000000 1.0
C      1  0.5623120000000  0.4365410000000  0.5300380000000 1.0
C      1  0.5400650000000  0.4977220000000  0.6028610000000 1.0
C      1  0.5475120000000  0.4496990000000  0.4586960000000 1.0
C      1  0.4887010000000  0.4323800000000  0.5441040000000 1.0
C      1  0.5105240000000  0.5350680000000  0.4107370000000 1.0
C      1  0.4397710000000  0.4962040000000  0.5764920000000 1.0
C      1  0.4287850000000  0.5282590000000  0.4729980000000 1.0
C      1  0.4784620000000  0.5918810000000  0.4785460000000 1.0
C      1  0.5168080000000  0.4603410000000  0.5099760000000 1.0
C      1  0.5146640000000  0.4962160000000  0.4179540000000 1.0
C      1  0.5694980000000  0.4301540000000  0.4411730000000 1.0
C      1  0.4945840000000  0.4546450000000  0.5905430000000 1.0
C      1  0.4566050000000  0.4371550000000  0.5454940000000 1.0
C      1  0.5942260000000  0.5048320000000  0.5907620000000 1.0
C      1  0.4226020000000  0.4605770000000  0.5002230000000 1.0
C      1  0.5062210000000  0.4146190000000  0.4428720000000 1.0
C      1  0.5329920000000  0.4168650000000  0.4331740000000 1.0
C      1  0.5049250000000  0.5226960000000  0.4525820000000 1.0
C      1  0.5486390000000  0.4437780000000  0.4193740000000 1.0
C      1  0.4356940000000  0.5344590000000  0.5668520000000 1.0
C      1  0.5500660000000  0.5216560000000  0.4932640000000 1.0
C      1  0.5711930000000  0.5480890000000  0.5256330000000 1.0
C      1  0.4313400000000  0.5817360000000  0.5015880000000 1.0
C      1  0.5524660000000  0.4708240000000  0.4157530000000 1.0
C      1  0.5680280000000  0.5090600000000  0.5194270000000 1.0
C      1  0.4295390000000  0.4239820000000  0.5353310000000 1.0
C      1  0.4490570000000  0.4161260000000  0.4571770000000 1.0
C      1  0.6169220000000  0.5006930000000  0.5027570000000 1.0
C      1  0.4308870000000  0.5218050000000  0.5394910000000 1.0
C      1  0.6053590000000  0.5245540000000  0.5162050000000 1.0
C      1  0.5894440000000  0.5249630000000  0.5684970000000 1.0
C      1  0.5600210000000  0.5002130000000  0.5575060000000 1.0
C      1  0.4660190000000  0.5617150000000  0.4177780000000 1.0
C      1  0.5486870000000  0.4955500000000  0.4388190000000 1.0
C      1  0.5325890000000  0.5909380000000  0.4639310000000 1.0
C      1  0.3917880000000  0.5079990000000  0.4954580000000 1.0
C      1  0.4558960000000  0.4846430000000  0.6041030000000 1.0
C      1  0.5280220000000  0.4029570000000  0.5281880000000 1.0
C      1  0.4531290000000  0.5980660000000  0.5186040000000 1.0
C      1  0.5392270000000  0.4164430000000  0.4838680000000 1.0
C      1  0.4735830000000  0.4374310000000  0.4672290000000 1.0
C      1  0.5099290000000  0.5128050000000  0.5983330000000 1.0
C      1  0.4210960000000  0.4729090000000  0.5647240000000 1.0
C      1  0.4442910000000  0.5469300000000  0.4361320000000 1.0
C      1  0.5217270000000  0.4744790000000  0.4408210000000 1.0
C      1  0.4841760000000  0.4231210000000  0.4936060000000 1.0
C      1  0.5102970000000  0.5903500000000  0.5539700000000 1.0
C      1  0.4671450000000  0.4601970000000  0.5254290000000 1.0
C      1  0.4709570000000  0.3936750000000  0.4703060000000 1.0
C      1  0.5997880000000  0.5637670000000  0.5210470000000 1.0
C      1  0.4661440000000  0.4622190000000  0.4113650000000 1.0
C      1  0.4825680000000  0.5813760000000  0.5648280000000 1.0
C      1  0.5919340000000  0.5182660000000  0.5418520000000 1.0
C      1  0.4488650000000  0.5573320000000  0.5045080000000 1.0
C      1  0.4120630000000  0.4852830000000  0.4530800000000 1.0
C      1  0.5043530000000  0.6013000000000  0.4797990000000 1.0
END
