TITL C-2848508-1660-249 -0.000656643073021414 125000 -419.050076090827 0 0 73 (C1) n - 1
REM
REM in /home/bkarasulu/work/CARBON/AIRSS/Generating-Clusters/AIREBO/with-SteepDescent/Only-C1/SD-CG-opt/Try1-1.4A-POS3A/HFTN-CG
REM
REM
REM
REM
REM
REM ./C.cell (11c1c37f851c82e70ff6c80c92926a4b)
REM
REM compiler GCC version 9.2.1 20190827 (Red Hat 9.2.1-1)
REM options -cpp -mtune=generic -march=x86-64 -g -O0 -fpre-include=/usr/include/finclude/math-vector-fortran.h
REM seed 47637354 -351829850 -960006232 -854025980 1658423893 -225163486 1052524311 -1937179412 798914823 -575014789 -403930524 1750929461 -1358507748 -1714317740 -1403182356 -708217985 1604567255 -42642038 -1014335999 -1118879603 -1386223032 -1013042717 -566248938 664337094 -1503955858 -1687461948 -1409674337 1084543325 1472123454 1943932528 1468205455 1799330599 1297194505
REM
CELL 1.54180   50.00000   50.00000   50.00000   90.00000   90.00000   90.00000
LATT -1
SFAC C  
C      1  0.5502520000000  0.4649780000000  0.5236770000000 1.0
C      1  0.5003560000000  0.4812480000000  0.5231670000000 1.0
C      1  0.4801020000000  0.4580370000000  0.5340400000000 1.0
C      1  0.5198700000000  0.4511190000000  0.4869990000000 1.0
C      1  0.4943180000000  0.4343970000000  0.5486910000000 1.0
C      1  0.5610370000000  0.5234930000000  0.5165270000000 1.0
C      1  0.5663320000000  0.4453810000000  0.4826040000000 1.0
C      1  0.4432340000000  0.5102040000000  0.4139950000000 1.0
C      1  0.5275900000000  0.4504940000000  0.4568230000000 1.0
C      1  0.4564900000000  0.5593210000000  0.5571240000000 1.0
C      1  0.4275690000000  0.4977380000000  0.4365590000000 1.0
C      1  0.4755880000000  0.5044880000000  0.5196520000000 1.0
C      1  0.5934430000000  0.5230720000000  0.4658780000000 1.0
C      1  0.4629160000000  0.4439020000000  0.5084930000000 1.0
C      1  0.4860190000000  0.5336750000000  0.4594330000000 1.0
C      1  0.4071650000000  0.4936250000000  0.4805030000000 1.0
C      1  0.4331590000000  0.5452770000000  0.5637810000000 1.0
C      1  0.5150980000000  0.5324310000000  0.5203510000000 1.0
C      1  0.4726220000000  0.4668440000000  0.4338300000000 1.0
C      1  0.4541090000000  0.4941830000000  0.4990770000000 1.0
C      1  0.4298440000000  0.5097460000000  0.4834430000000 1.0
C      1  0.5080170000000  0.4089220000000  0.5105380000000 1.0
C      1  0.5532970000000  0.5176600000000  0.5488210000000 1.0
C      1  0.5804490000000  0.5014900000000  0.4781570000000 1.0
C      1  0.4805530000000  0.4932410000000  0.4816600000000 1.0
C      1  0.4929040000000  0.5280060000000  0.5800070000000 1.0
C      1  0.5108330000000  0.5781110000000  0.5198920000000 1.0
C      1  0.5328970000000  0.5476730000000  0.4469910000000 1.0
C      1  0.5080490000000  0.4809510000000  0.4917470000000 1.0
C      1  0.5017160000000  0.4281620000000  0.4914910000000 1.0
C      1  0.4752970000000  0.4439570000000  0.4557450000000 1.0
C      1  0.5294390000000  0.4789240000000  0.5366900000000 1.0
C      1  0.5324230000000  0.5523160000000  0.4803210000000 1.0
C      1  0.4766870000000  0.4990260000000  0.5720740000000 1.0
C      1  0.5780800000000  0.5013920000000  0.5059930000000 1.0
C      1  0.5037140000000  0.5002000000000  0.5902380000000 1.0
C      1  0.5291700000000  0.4923990000000  0.5831440000000 1.0
C      1  0.4988750000000  0.4671490000000  0.4186010000000 1.0
C      1  0.5097880000000  0.5564810000000  0.5367980000000 1.0
C      1  0.4163450000000  0.4952820000000  0.5537840000000 1.0
C      1  0.4756970000000  0.4358940000000  0.4836170000000 1.0
C      1  0.5236380000000  0.5356560000000  0.4242360000000 1.0
C      1  0.4330670000000  0.4755890000000  0.5413690000000 1.0
C      1  0.5458220000000  0.4474720000000  0.5028790000000 1.0
C      1  0.4321170000000  0.5186450000000  0.5553380000000 1.0
C      1  0.4771360000000  0.5083140000000  0.4579910000000 1.0
C      1  0.5302540000000  0.5086030000000  0.4194650000000 1.0
C      1  0.4329320000000  0.4744170000000  0.5135560000000 1.0
C      1  0.4857730000000  0.5325380000000  0.5102430000000 1.0
C      1  0.5067920000000  0.5952910000000  0.4712180000000 1.0
C      1  0.4574850000000  0.5668690000000  0.4854110000000 1.0
C      1  0.5589750000000  0.5577750000000  0.4610010000000 1.0
C      1  0.4890580000000  0.5502970000000  0.5612060000000 1.0
C      1  0.4097110000000  0.4712630000000  0.4971940000000 1.0
C      1  0.4613030000000  0.4936570000000  0.4377920000000 1.0
C      1  0.5754290000000  0.4782200000000  0.5218750000000 1.0
C      1  0.5088490000000  0.5702910000000  0.4888070000000 1.0
C      1  0.5065470000000  0.4127360000000  0.5376730000000 1.0
C      1  0.5318790000000  0.5003580000000  0.4836770000000 1.0
C      1  0.5548480000000  0.4597700000000  0.4604230000000 1.0
C      1  0.4625450000000  0.4740990000000  0.5535360000000 1.0
C      1  0.5848580000000  0.5488860000000  0.4623540000000 1.0
C      1  0.5361790000000  0.5274680000000  0.4988860000000 1.0
C      1  0.5525360000000  0.5008270000000  0.4347270000000 1.0
C      1  0.5555050000000  0.4902600000000  0.4636540000000 1.0
C      1  0.5146270000000  0.4878030000000  0.4089210000000 1.0
C      1  0.5056640000000  0.4461580000000  0.4405850000000 1.0
C      1  0.5716100000000  0.5425530000000  0.5426560000000 1.0
C      1  0.4591190000000  0.5071760000000  0.5464510000000 1.0
C      1  0.5385970000000  0.4964390000000  0.5570420000000 1.0
C      1  0.4713800000000  0.5461790000000  0.5330210000000 1.0
C      1  0.4838080000000  0.5510430000000  0.4853250000000 1.0
C      1  0.3906140000000  0.4924560000000  0.5605310000000 1.0
END
