TITL C-2847956-8218-102 -0.00144015147476667 125000 -224.06667633167 0 0 40 (C1) n - 1
REM
REM in /home/bkarasulu/work/CARBON/AIRSS/Generating-Clusters/AIREBO/with-SteepDescent/Only-C1/SD-CG-opt/Try1-1.4A-POS3A/HFTN-CG
REM
REM
REM
REM
REM
REM ./C.cell (11c1c37f851c82e70ff6c80c92926a4b)
REM
REM compiler GCC version 9.2.1 20190827 (Red Hat 9.2.1-1)
REM options -cpp -mtune=generic -march=x86-64 -g -O0 -fpre-include=/usr/include/finclude/math-vector-fortran.h
REM seed -1257428425 507696129 -1975367680 1329737033 213362002 1932349854 1814477249 490251200 2104791422 -1403703854 1596558644 51144316 -1240067716 -1448335911 363396958 -1998128475 -2060895571 1038612908 -967790593 -1327664784 2059920467 -1611240144 220648354 1972221676 176708353 -1168317930 -878057911 2058222441 364967251 -1636494710 -2039520736 -544329407 -1783642543
REM
CELL 1.54180   50.00000   50.00000   50.00000   90.00000   90.00000   90.00000
LATT -1
SFAC C  
C      1  0.4690270000000  0.4716410000000  0.4354450000000 1.0
C      1  0.4610310000000  0.4467820000000  0.4969320000000 1.0
C      1  0.4573180000000  0.5639270000000  0.5890720000000 1.0
C      1  0.4777520000000  0.4537560000000  0.5645810000000 1.0
C      1  0.5028610000000  0.5356240000000  0.5292610000000 1.0
C      1  0.6472340000000  0.4691230000000  0.5323940000000 1.0
C      1  0.4715470000000  0.5536020000000  0.5696340000000 1.0
C      1  0.5261980000000  0.5479510000000  0.4874480000000 1.0
C      1  0.4841400000000  0.4438010000000  0.5167750000000 1.0
C      1  0.4336460000000  0.4517750000000  0.4956710000000 1.0
C      1  0.6676590000000  0.4567660000000  0.5432200000000 1.0
C      1  0.5177820000000  0.5530390000000  0.5129020000000 1.0
C      1  0.4841180000000  0.4506430000000  0.4776800000000 1.0
C      1  0.4445670000000  0.4845370000000  0.4356320000000 1.0
C      1  0.5170290000000  0.4753460000000  0.5060070000000 1.0
C      1  0.4383420000000  0.4976150000000  0.4629030000000 1.0
C      1  0.5596790000000  0.5102130000000  0.4887740000000 1.0
C      1  0.5044790000000  0.5091370000000  0.5218950000000 1.0
C      1  0.4883880000000  0.4587550000000  0.5405180000000 1.0
C      1  0.4836110000000  0.4722780000000  0.4598230000000 1.0
C      1  0.5823920000000  0.5003600000000  0.4979210000000 1.0
C      1  0.4162040000000  0.4341550000000  0.5063480000000 1.0
C      1  0.6262380000000  0.4796340000000  0.5198090000000 1.0
C      1  0.4825630000000  0.5819050000000  0.4836100000000 1.0
C      1  0.4256400000000  0.4750350000000  0.4846680000000 1.0
C      1  0.5108440000000  0.4465480000000  0.4951980000000 1.0
C      1  0.4625840000000  0.5129020000000  0.4720700000000 1.0
C      1  0.4592220000000  0.5672170000000  0.4806010000000 1.0
C      1  0.4879550000000  0.5446400000000  0.5506640000000 1.0
C      1  0.6044900000000  0.4911030000000  0.5095590000000 1.0
C      1  0.5044920000000  0.5952210000000  0.4889750000000 1.0
C      1  0.5326210000000  0.5189940000000  0.4768340000000 1.0
C      1  0.5330500000000  0.5178340000000  0.4485220000000 1.0
C      1  0.4074140000000  0.4993960000000  0.4769590000000 1.0
C      1  0.4350950000000  0.5792750000000  0.4822180000000 1.0
C      1  0.5101280000000  0.5022080000000  0.4890740000000 1.0
C      1  0.4610440000000  0.5401210000000  0.4749650000000 1.0
C      1  0.5052090000000  0.4806110000000  0.5337620000000 1.0
C      1  0.4856160000000  0.4978310000000  0.4723510000000 1.0
C      1  0.5307910000000  0.4286990000000  0.4893260000000 1.0
END
