TITL C-2848509-3138-655 -0.000425932101936335 125000 -428.659658241972 0 0 79 (C1) n - 1
REM
REM in /home/bkarasulu/work/CARBON/AIRSS/Generating-Clusters/AIREBO/with-SteepDescent/Only-C1/SD-CG-opt/Try1-1.4A-POS3A/HFTN-CG
REM
REM
REM
REM
REM
REM ./C.cell (11c1c37f851c82e70ff6c80c92926a4b)
REM
REM compiler GCC version 9.2.1 20190827 (Red Hat 9.2.1-1)
REM options -cpp -mtune=generic -march=x86-64 -g -O0 -fpre-include=/usr/include/finclude/math-vector-fortran.h
REM seed 872482819 -1576853143 -936545878 1616998084 940492188 -895146901 -1033911062 -796150173 -760112650 -1051894664 542533908 683153460 -427525109 -750330090 1890974488 1935258142 887345593 178373473 -373034002 903048405 -1731908362 1988241146 -112412656 -1409373418 -1134752768 -1364502991 1214134187 -1462528134 -1750734868 -1503663824 984051180 -481603473 -499298130
REM
CELL 1.54180   50.00000   50.00000   50.00000   90.00000   90.00000   90.00000
LATT -1
SFAC C  
C      1  0.4255580000000  0.5315430000000  0.4694480000000 1.0
C      1  0.5192010000000  0.4672790000000  0.4634080000000 1.0
C      1  0.5652920000000  0.5422050000000  0.4914030000000 1.0
C      1  0.5676580000000  0.4689410000000  0.4930640000000 1.0
C      1  0.5215970000000  0.4645840000000  0.4304910000000 1.0
C      1  0.4759470000000  0.4567360000000  0.4537600000000 1.0
C      1  0.4563450000000  0.5308490000000  0.4328940000000 1.0
C      1  0.4757750000000  0.4732260000000  0.5317000000000 1.0
C      1  0.4560860000000  0.4319170000000  0.4988440000000 1.0
C      1  0.5670590000000  0.4472850000000  0.5333910000000 1.0
C      1  0.5433360000000  0.4972580000000  0.5214180000000 1.0
C      1  0.4572180000000  0.4889740000000  0.4728380000000 1.0
C      1  0.5042180000000  0.5082820000000  0.5551320000000 1.0
C      1  0.5467610000000  0.5068490000000  0.4238010000000 1.0
C      1  0.4805510000000  0.5374000000000  0.5666810000000 1.0
C      1  0.5328630000000  0.5101300000000  0.5672080000000 1.0
C      1  0.5641060000000  0.4666350000000  0.5527060000000 1.0
C      1  0.5240350000000  0.5582300000000  0.5531330000000 1.0
C      1  0.5617230000000  0.4930310000000  0.4427250000000 1.0
C      1  0.5292240000000  0.4402290000000  0.4793100000000 1.0
C      1  0.4637610000000  0.4775690000000  0.5695910000000 1.0
C      1  0.4441560000000  0.4594850000000  0.5117240000000 1.0
C      1  0.5017840000000  0.5394480000000  0.5417050000000 1.0
C      1  0.5040630000000  0.4586480000000  0.4929020000000 1.0
C      1  0.5497150000000  0.5290400000000  0.5444930000000 1.0
C      1  0.5402220000000  0.5424260000000  0.5731060000000 1.0
C      1  0.5800270000000  0.5188470000000  0.4989920000000 1.0
C      1  0.4477830000000  0.4600750000000  0.5455250000000 1.0
C      1  0.5198700000000  0.4333990000000  0.5195900000000 1.0
C      1  0.5004430000000  0.5170440000000  0.4646730000000 1.0
C      1  0.5508850000000  0.4899460000000  0.5509000000000 1.0
C      1  0.4522710000000  0.5276320000000  0.5406550000000 1.0
C      1  0.4160310000000  0.4667520000000  0.5028310000000 1.0
C      1  0.4500410000000  0.5371890000000  0.5732150000000 1.0
C      1  0.4884830000000  0.5427590000000  0.4750070000000 1.0
C      1  0.4623470000000  0.5453040000000  0.5063250000000 1.0
C      1  0.4528810000000  0.5158610000000  0.5103220000000 1.0
C      1  0.5045130000000  0.5319730000000  0.4277970000000 1.0
C      1  0.4534180000000  0.4792060000000  0.4414820000000 1.0
C      1  0.5319820000000  0.5291200000000  0.5176020000000 1.0
C      1  0.4751810000000  0.4465120000000  0.5604500000000 1.0
C      1  0.5347740000000  0.5330320000000  0.4356800000000 1.0
C      1  0.4922620000000  0.4781020000000  0.4334500000000 1.0
C      1  0.4777520000000  0.4975650000000  0.5081290000000 1.0
C      1  0.4968300000000  0.4255380000000  0.4958480000000 1.0
C      1  0.4705270000000  0.5056450000000  0.5597980000000 1.0
C      1  0.5704120000000  0.4711690000000  0.4640650000000 1.0
C      1  0.5478410000000  0.4452700000000  0.5073150000000 1.0
C      1  0.5250160000000  0.4905320000000  0.4144180000000 1.0
C      1  0.4575560000000  0.5022760000000  0.4258560000000 1.0
C      1  0.5281790000000  0.5130650000000  0.4763970000000 1.0
C      1  0.4784310000000  0.5831800000000  0.5296580000000 1.0
C      1  0.4549130000000  0.5615140000000  0.5419080000000 1.0
C      1  0.4531780000000  0.5736240000000  0.5113750000000 1.0
C      1  0.5408550000000  0.4878840000000  0.4674090000000 1.0
C      1  0.5382380000000  0.5774000000000  0.5346170000000 1.0
C      1  0.4597460000000  0.4331830000000  0.4715150000000 1.0
C      1  0.4324330000000  0.5398410000000  0.4445530000000 1.0
C      1  0.4852200000000  0.4952690000000  0.4589710000000 1.0
C      1  0.4515820000000  0.4774300000000  0.5974950000000 1.0
C      1  0.4817070000000  0.5433350000000  0.4416930000000 1.0
C      1  0.5475680000000  0.5625840000000  0.4449390000000 1.0
C      1  0.4986480000000  0.4331710000000  0.4630850000000 1.0
C      1  0.5204100000000  0.4761200000000  0.5170760000000 1.0
C      1  0.5465670000000  0.5373450000000  0.4677020000000 1.0
C      1  0.5056600000000  0.5799820000000  0.5251760000000 1.0
C      1  0.4947210000000  0.5415020000000  0.5084300000000 1.0
C      1  0.4945520000000  0.4113910000000  0.5266070000000 1.0
C      1  0.5218830000000  0.5587060000000  0.5040940000000 1.0
C      1  0.5540690000000  0.5613620000000  0.5091800000000 1.0
C      1  0.4349240000000  0.5075600000000  0.4863260000000 1.0
C      1  0.4711910000000  0.4682230000000  0.4928900000000 1.0
C      1  0.4750150000000  0.4392120000000  0.5259030000000 1.0
C      1  0.5047880000000  0.4327580000000  0.5509200000000 1.0
C      1  0.5681170000000  0.4936720000000  0.5054030000000 1.0
C      1  0.4988930000000  0.5065230000000  0.4161430000000 1.0
C      1  0.4111940000000  0.4898230000000  0.4943060000000 1.0
C      1  0.5028160000000  0.4844610000000  0.5362350000000 1.0
C      1  0.5071260000000  0.5109370000000  0.5031930000000 1.0
END
