TITL C-2847954-6904-645 0.00182318311953956 125000 -969.379967529901 0 0 181 (C1) n - 1
REM
REM in /home/bkarasulu/work/CARBON/AIRSS/Generating-Clusters/AIREBO/with-SteepDescent/Only-C1/SD-CG-opt/Try1-1.4A-POS3A/HFTN-CG
REM
REM
REM
REM
REM
REM ./C.cell (11c1c37f851c82e70ff6c80c92926a4b)
REM
REM compiler GCC version 9.2.1 20190827 (Red Hat 9.2.1-1)
REM options -cpp -mtune=generic -march=x86-64 -g -O0 -fpre-include=/usr/include/finclude/math-vector-fortran.h
REM seed -237010941 -1696144871 756125249 1594284011 1356826699 1007624428 478607981 -1768841024 396549522 -1767020928 -570979646 1809992413 -1982618870 1353676038 324799240 611721524 -146101010 966542086 1776768067 -1456625752 -343880173 1772578991 -1813427624 1128738752 -896663610 698122388 1293216809 -718687468 371956038 -1678253424 1657476836 5998422 1703992894
REM
CELL 1.54180   50.00000   50.00000   50.00000   90.00000   90.00000   90.00000
LATT -1
SFAC C  
C      1  0.5229950000000  0.5993700000000  0.4445680000000 1.0
C      1  0.5026690000000  0.6172710000000  0.4868450000000 1.0
C      1  0.5487420000000  0.4509690000000  0.5805470000000 1.0
C      1  0.5164840000000  0.4729620000000  0.3844840000000 1.0
C      1  0.5264750000000  0.5021770000000  0.6066240000000 1.0
C      1  0.4182240000000  0.4234820000000  0.5049550000000 1.0
C      1  0.4572810000000  0.4690850000000  0.5151520000000 1.0
C      1  0.4993030000000  0.4947950000000  0.5750080000000 1.0
C      1  0.3990290000000  0.4863750000000  0.4732280000000 1.0
C      1  0.5301380000000  0.5740430000000  0.5726000000000 1.0
C      1  0.4756320000000  0.5187080000000  0.6069420000000 1.0
C      1  0.5191870000000  0.4045330000000  0.4358120000000 1.0
C      1  0.5481000000000  0.4959610000000  0.5841810000000 1.0
C      1  0.6013350000000  0.4558040000000  0.5130900000000 1.0
C      1  0.5539470000000  0.3907550000000  0.4697570000000 1.0
C      1  0.5322330000000  0.5736280000000  0.4249340000000 1.0
C      1  0.4276050000000  0.5151270000000  0.5395440000000 1.0
C      1  0.4314630000000  0.4768350000000  0.5712890000000 1.0
C      1  0.5028760000000  0.3983890000000  0.4927990000000 1.0
C      1  0.5263390000000  0.5898670000000  0.5427130000000 1.0
C      1  0.4562830000000  0.5536730000000  0.4243400000000 1.0
C      1  0.5754340000000  0.4541620000000  0.5626290000000 1.0
C      1  0.5470200000000  0.5192550000000  0.4397050000000 1.0
C      1  0.4613560000000  0.5195180000000  0.4225550000000 1.0
C      1  0.4977190000000  0.5125120000000  0.3844670000000 1.0
C      1  0.5011350000000  0.5563370000000  0.5714210000000 1.0
C      1  0.4853850000000  0.4476180000000  0.5585050000000 1.0
C      1  0.5401720000000  0.4864860000000  0.4136430000000 1.0
C      1  0.4873860000000  0.5976880000000  0.5387120000000 1.0
C      1  0.5204140000000  0.4333930000000  0.5419330000000 1.0
C      1  0.4743350000000  0.4882120000000  0.6103980000000 1.0
C      1  0.5351670000000  0.5439790000000  0.5878250000000 1.0
C      1  0.5992570000000  0.5286130000000  0.5374910000000 1.0
C      1  0.4145050000000  0.4792050000000  0.4466540000000 1.0
C      1  0.5628270000000  0.4582020000000  0.4479200000000 1.0
C      1  0.4707440000000  0.4580470000000  0.4075660000000 1.0
C      1  0.5769490000000  0.5726080000000  0.5586620000000 1.0
C      1  0.4432170000000  0.5613990000000  0.5507150000000 1.0
C      1  0.4725870000000  0.5390160000000  0.4575550000000 1.0
C      1  0.4796720000000  0.4731530000000  0.4923620000000 1.0
C      1  0.5102760000000  0.6083000000000  0.5190740000000 1.0
C      1  0.4994450000000  0.5377430000000  0.5361610000000 1.0
C      1  0.5849250000000  0.4354020000000  0.4585220000000 1.0
C      1  0.5965180000000  0.4634270000000  0.4741970000000 1.0
C      1  0.5633740000000  0.4546620000000  0.5245340000000 1.0
C      1  0.4201360000000  0.4552130000000  0.5191010000000 1.0
C      1  0.5550490000000  0.4242740000000  0.5232280000000 1.0
C      1  0.4962570000000  0.5817440000000  0.5031190000000 1.0
C      1  0.5208760000000  0.5115610000000  0.5397270000000 1.0
C      1  0.4329110000000  0.5098940000000  0.5727180000000 1.0
C      1  0.4318450000000  0.4052710000000  0.5259470000000 1.0
C      1  0.4252910000000  0.4510320000000  0.4406470000000 1.0
C      1  0.5191520000000  0.5387410000000  0.4394830000000 1.0
C      1  0.5805230000000  0.4781860000000  0.5389270000000 1.0
C      1  0.5653230000000  0.5245790000000  0.4840480000000 1.0
C      1  0.4586790000000  0.5013320000000  0.5387200000000 1.0
C      1  0.4953780000000  0.4136770000000  0.5398700000000 1.0
C      1  0.4669710000000  0.4992850000000  0.4798240000000 1.0
C      1  0.4417300000000  0.4559750000000  0.4150900000000 1.0
C      1  0.4452190000000  0.3993750000000  0.4643460000000 1.0
C      1  0.4685010000000  0.4336660000000  0.4886010000000 1.0
C      1  0.5494120000000  0.4082440000000  0.5526770000000 1.0
C      1  0.4814760000000  0.5123930000000  0.5241520000000 1.0
C      1  0.5735310000000  0.4519610000000  0.4938900000000 1.0
C      1  0.5590200000000  0.5022590000000  0.5464260000000 1.0
C      1  0.4661140000000  0.4220570000000  0.4461900000000 1.0
C      1  0.5887510000000  0.5174450000000  0.5080300000000 1.0
C      1  0.4940320000000  0.4231150000000  0.4746510000000 1.0
C      1  0.4455160000000  0.5763390000000  0.4417830000000 1.0
C      1  0.5501130000000  0.5397760000000  0.5357350000000 1.0
C      1  0.5084120000000  0.5100840000000  0.4828740000000 1.0
C      1  0.5257630000000  0.4852920000000  0.5607650000000 1.0
C      1  0.4776460000000  0.5637740000000  0.5890640000000 1.0
C      1  0.4541530000000  0.5503040000000  0.5204740000000 1.0
C      1  0.5738200000000  0.4871800000000  0.4727890000000 1.0
C      1  0.5676810000000  0.5374970000000  0.4208580000000 1.0
C      1  0.6057110000000  0.4963060000000  0.4786440000000 1.0
C      1  0.4999220000000  0.4171570000000  0.5815560000000 1.0
C      1  0.5017700000000  0.4435820000000  0.5978570000000 1.0
C      1  0.5536450000000  0.4603640000000  0.4180770000000 1.0
C      1  0.5883740000000  0.5493580000000  0.5052450000000 1.0
C      1  0.3949530000000  0.4733530000000  0.5330090000000 1.0
C      1  0.5909560000000  0.5222560000000  0.4343960000000 1.0
C      1  0.4642340000000  0.5252970000000  0.4997580000000 1.0
C      1  0.4465370000000  0.6146990000000  0.4935890000000 1.0
C      1  0.4858630000000  0.4649790000000  0.5315710000000 1.0
C      1  0.4668520000000  0.5650450000000  0.4736540000000 1.0
C      1  0.5269840000000  0.5025400000000  0.4592560000000 1.0
C      1  0.4721840000000  0.4164800000000  0.5622160000000 1.0
C      1  0.4806490000000  0.6067590000000  0.4630680000000 1.0
C      1  0.4885870000000  0.5471970000000  0.4309560000000 1.0
C      1  0.4869410000000  0.4814480000000  0.3932400000000 1.0
C      1  0.5275080000000  0.6063390000000  0.4710620000000 1.0
C      1  0.3977140000000  0.5003840000000  0.5327910000000 1.0
C      1  0.5074080000000  0.5272800000000  0.5981640000000 1.0
C      1  0.5273370000000  0.4513210000000  0.4001190000000 1.0
C      1  0.4344340000000  0.5103460000000  0.5065730000000 1.0
C      1  0.5412300000000  0.4750080000000  0.5329480000000 1.0
C      1  0.4740310000000  0.6074690000000  0.5023730000000 1.0
C      1  0.5109750000000  0.5534470000000  0.5082950000000 1.0
C      1  0.5171330000000  0.4534840000000  0.5691700000000 1.0
C      1  0.5457960000000  0.4968940000000  0.4870240000000 1.0
C      1  0.5667150000000  0.4916020000000  0.4428050000000 1.0
C      1  0.4593510000000  0.3985640000000  0.5359050000000 1.0
C      1  0.4184280000000  0.5371190000000  0.4952440000000 1.0
C      1  0.5326210000000  0.4590940000000  0.6055660000000 1.0
C      1  0.3969420000000  0.5603350000000  0.4600970000000 1.0
C      1  0.5752440000000  0.4800490000000  0.5844730000000 1.0
C      1  0.4829400000000  0.4705750000000  0.4455080000000 1.0
C      1  0.5323800000000  0.3950050000000  0.4880950000000 1.0
C      1  0.3942130000000  0.5339360000000  0.4635660000000 1.0
C      1  0.5907230000000  0.5547740000000  0.4776880000000 1.0
C      1  0.4267130000000  0.5788750000000  0.5257620000000 1.0
C      1  0.4926050000000  0.5368850000000  0.4849570000000 1.0
C      1  0.5943880000000  0.4950530000000  0.4235560000000 1.0
C      1  0.5676560000000  0.5743340000000  0.4676250000000 1.0
C      1  0.3822390000000  0.5076790000000  0.4704540000000 1.0
C      1  0.4412890000000  0.4639360000000  0.4863210000000 1.0
C      1  0.5346980000000  0.4975430000000  0.3869340000000 1.0
C      1  0.4247190000000  0.4163280000000  0.4788220000000 1.0
C      1  0.4506140000000  0.5273240000000  0.5855780000000 1.0
C      1  0.4277400000000  0.5931830000000  0.4949350000000 1.0
C      1  0.4459770000000  0.5261280000000  0.4508690000000 1.0
C      1  0.4440350000000  0.4391210000000  0.4656240000000 1.0
C      1  0.4400400000000  0.4899460000000  0.4663740000000 1.0
C      1  0.5458290000000  0.5898990000000  0.4855340000000 1.0
C      1  0.4374900000000  0.4764080000000  0.5392600000000 1.0
C      1  0.4323060000000  0.5033290000000  0.4296540000000 1.0
C      1  0.5011810000000  0.5751470000000  0.4356330000000 1.0
C      1  0.5037760000000  0.4770370000000  0.6036570000000 1.0
C      1  0.4923030000000  0.4007860000000  0.4498250000000 1.0
C      1  0.5472040000000  0.4451270000000  0.4751760000000 1.0
C      1  0.4977950000000  0.5784570000000  0.4693130000000 1.0
C      1  0.4174700000000  0.4820170000000  0.4983110000000 1.0
C      1  0.4858660000000  0.4418880000000  0.4302590000000 1.0
C      1  0.4550220000000  0.4745250000000  0.5957110000000 1.0
C      1  0.5090050000000  0.4358910000000  0.5099990000000 1.0
C      1  0.4797250000000  0.5647310000000  0.5353510000000 1.0
C      1  0.4173420000000  0.5477310000000  0.5356830000000 1.0
C      1  0.4945380000000  0.5237300000000  0.5671930000000 1.0
C      1  0.5167740000000  0.4529170000000  0.4315290000000 1.0
C      1  0.4238390000000  0.5742850000000  0.4656780000000 1.0
C      1  0.5550560000000  0.5242460000000  0.5721250000000 1.0
C      1  0.5353830000000  0.5431440000000  0.4101040000000 1.0
C      1  0.5543790000000  0.5585140000000  0.4416070000000 1.0
C      1  0.4861950000000  0.3945400000000  0.5154000000000 1.0
C      1  0.5361890000000  0.4234580000000  0.4992370000000 1.0
C      1  0.4443930000000  0.4354600000000  0.5324640000000 1.0
C      1  0.4221560000000  0.5187030000000  0.4694770000000 1.0
C      1  0.5180730000000  0.5512170000000  0.4675640000000 1.0
C      1  0.5772940000000  0.5407310000000  0.5553130000000 1.0
C      1  0.4377380000000  0.4439460000000  0.5621960000000 1.0
C      1  0.4976170000000  0.4948740000000  0.5053830000000 1.0
C      1  0.4653380000000  0.3827590000000  0.4516340000000 1.0
C      1  0.5154710000000  0.4688490000000  0.5153040000000 1.0
C      1  0.5581170000000  0.5869600000000  0.5357350000000 1.0
C      1  0.4537460000000  0.5541120000000  0.5768650000000 1.0
C      1  0.4765200000000  0.4346700000000  0.5208760000000 1.0
C      1  0.4578480000000  0.5894560000000  0.5262470000000 1.0
C      1  0.4797400000000  0.5512070000000  0.6141420000000 1.0
C      1  0.4611470000000  0.6010110000000  0.4447150000000 1.0
C      1  0.4539080000000  0.4784470000000  0.4375320000000 1.0
C      1  0.5697640000000  0.5606150000000  0.5215430000000 1.0
C      1  0.5349180000000  0.5775610000000  0.5121970000000 1.0
C      1  0.5760260000000  0.4264710000000  0.5499160000000 1.0
C      1  0.5238280000000  0.5249510000000  0.3886900000000 1.0
C      1  0.5626000000000  0.4143300000000  0.4551830000000 1.0
C      1  0.5265540000000  0.5505240000000  0.5495630000000 1.0
C      1  0.4968820000000  0.4569520000000  0.4727330000000 1.0
C      1  0.5269850000000  0.4687980000000  0.4833090000000 1.0
C      1  0.4615210000000  0.4516130000000  0.5780570000000 1.0
C      1  0.5484530000000  0.5475820000000  0.4737290000000 1.0
C      1  0.5244370000000  0.4124200000000  0.5672020000000 1.0
C      1  0.5339110000000  0.4308070000000  0.4473300000000 1.0
C      1  0.5963990000000  0.4867720000000  0.5099260000000 1.0
C      1  0.5930370000000  0.5242980000000  0.4643520000000 1.0
C      1  0.4863570000000  0.4964600000000  0.4230610000000 1.0
C      1  0.5171730000000  0.4868690000000  0.4342450000000 1.0
C      1  0.5452150000000  0.5117190000000  0.5176440000000 1.0
C      1  0.4407000000000  0.5618460000000  0.4924700000000 1.0
C      1  0.3960330000000  0.5287530000000  0.5194210000000 1.0
END
