TITL C-2847953-8112-661 -0.000543434588961166 125000 -978.771460485607 0 0 181 (C1) n - 1
REM
REM in /home/bkarasulu/work/CARBON/AIRSS/Generating-Clusters/AIREBO/with-SteepDescent/Only-C1/SD-CG-opt/Try1-1.4A-POS3A/HFTN-CG
REM
REM
REM
REM
REM
REM ./C.cell (11c1c37f851c82e70ff6c80c92926a4b)
REM
REM compiler GCC version 9.2.1 20190827 (Red Hat 9.2.1-1)
REM options -cpp -mtune=generic -march=x86-64 -g -O0 -fpre-include=/usr/include/finclude/math-vector-fortran.h
REM seed 1968869604 1758154349 2105137250 -1467191161 868653043 407182946 -1106921421 -1412405260 1838233791 2082483983 -101572633 -268333861 764474289 654453782 -434979359 -1995935069 -939725028 -170660270 94704576 2055440816 -73231411 -1478199760 1990791228 -959105811 1318948191 956383231 1544816777 2045589256 699550844 -1967862192 552699846 2119826706 -32099034
REM
CELL 1.54180   50.00000   50.00000   50.00000   90.00000   90.00000   90.00000
LATT -1
SFAC C  
C      1  0.5691550000000  0.4110650000000  0.5160750000000 1.0
C      1  0.5786190000000  0.5451410000000  0.5758410000000 1.0
C      1  0.4240590000000  0.4173550000000  0.4759730000000 1.0
C      1  0.5273940000000  0.4588000000000  0.6150260000000 1.0
C      1  0.4451840000000  0.5561390000000  0.4324860000000 1.0
C      1  0.4980440000000  0.6239290000000  0.5319180000000 1.0
C      1  0.5506780000000  0.4490280000000  0.4763460000000 1.0
C      1  0.5439240000000  0.4011160000000  0.5227300000000 1.0
C      1  0.4850190000000  0.6156230000000  0.4856700000000 1.0
C      1  0.4531700000000  0.5313930000000  0.5386870000000 1.0
C      1  0.4066860000000  0.5019840000000  0.5467300000000 1.0
C      1  0.4307410000000  0.4928610000000  0.5156180000000 1.0
C      1  0.4471530000000  0.4942530000000  0.3953450000000 1.0
C      1  0.4079650000000  0.5463570000000  0.5267790000000 1.0
C      1  0.4060280000000  0.4300140000000  0.4981830000000 1.0
C      1  0.4727860000000  0.5954640000000  0.4294410000000 1.0
C      1  0.4818380000000  0.5789420000000  0.5421940000000 1.0
C      1  0.4860630000000  0.4572270000000  0.4587770000000 1.0
C      1  0.4492270000000  0.4456720000000  0.4881630000000 1.0
C      1  0.5465070000000  0.5501150000000  0.4786050000000 1.0
C      1  0.4743120000000  0.5150700000000  0.5531340000000 1.0
C      1  0.4590540000000  0.6025010000000  0.5033060000000 1.0
C      1  0.6018240000000  0.5089190000000  0.5652970000000 1.0
C      1  0.5449930000000  0.4996500000000  0.5811250000000 1.0
C      1  0.4570500000000  0.4075620000000  0.4803670000000 1.0
C      1  0.4576830000000  0.5792990000000  0.4124710000000 1.0
C      1  0.5284570000000  0.4111550000000  0.4559250000000 1.0
C      1  0.5773940000000  0.4117280000000  0.4900250000000 1.0
C      1  0.5325240000000  0.5372030000000  0.5994430000000 1.0
C      1  0.4244070000000  0.4480690000000  0.5588920000000 1.0
C      1  0.5643830000000  0.5671920000000  0.4595470000000 1.0
C      1  0.4086270000000  0.5713290000000  0.4875470000000 1.0
C      1  0.5134860000000  0.5450680000000  0.4721810000000 1.0
C      1  0.5036680000000  0.4471740000000  0.4995530000000 1.0
C      1  0.5311740000000  0.5742270000000  0.4388860000000 1.0
C      1  0.4180610000000  0.5189930000000  0.4419940000000 1.0
C      1  0.4729010000000  0.4813190000000  0.5737740000000 1.0
C      1  0.5299830000000  0.5356650000000  0.3925540000000 1.0
C      1  0.5999470000000  0.5509920000000  0.4939480000000 1.0
C      1  0.4289900000000  0.5292370000000  0.4725350000000 1.0
C      1  0.5006160000000  0.4556500000000  0.5973980000000 1.0
C      1  0.5301990000000  0.5041760000000  0.4578570000000 1.0
C      1  0.4596130000000  0.5092080000000  0.4563540000000 1.0
C      1  0.5497320000000  0.5054520000000  0.4083930000000 1.0
C      1  0.5252860000000  0.4606370000000  0.5449830000000 1.0
C      1  0.5177200000000  0.4530290000000  0.4689970000000 1.0
C      1  0.4120650000000  0.4658980000000  0.5137080000000 1.0
C      1  0.4961070000000  0.4027430000000  0.5176300000000 1.0
C      1  0.5317360000000  0.4151280000000  0.5447220000000 1.0
C      1  0.6103760000000  0.5041120000000  0.4591710000000 1.0
C      1  0.4420390000000  0.4696720000000  0.5394310000000 1.0
C      1  0.4804370000000  0.5105920000000  0.6131660000000 1.0
C      1  0.5786440000000  0.4306520000000  0.4364030000000 1.0
C      1  0.6048030000000  0.4495350000000  0.5387210000000 1.0
C      1  0.5699550000000  0.5589190000000  0.5284980000000 1.0
C      1  0.3968140000000  0.5489190000000  0.5014940000000 1.0
C      1  0.5764780000000  0.5205660000000  0.5194500000000 1.0
C      1  0.4350410000000  0.5800840000000  0.5071390000000 1.0
C      1  0.4717800000000  0.4346160000000  0.4133900000000 1.0
C      1  0.4501590000000  0.4113210000000  0.5471240000000 1.0
C      1  0.4020490000000  0.4677620000000  0.4601710000000 1.0
C      1  0.5443060000000  0.5126590000000  0.5407820000000 1.0
C      1  0.5703220000000  0.4618820000000  0.5189630000000 1.0
C      1  0.5500270000000  0.5817790000000  0.5396200000000 1.0
C      1  0.4732050000000  0.5363070000000  0.5946710000000 1.0
C      1  0.4457530000000  0.4994470000000  0.5760480000000 1.0
C      1  0.4737910000000  0.4395980000000  0.5985410000000 1.0
C      1  0.4866110000000  0.6004280000000  0.5222830000000 1.0
C      1  0.5758570000000  0.4344610000000  0.5352960000000 1.0
C      1  0.4724620000000  0.4773240000000  0.3863420000000 1.0
C      1  0.5664380000000  0.4751370000000  0.4794540000000 1.0
C      1  0.4066860000000  0.5671740000000  0.4592810000000 1.0
C      1  0.4238500000000  0.5212780000000  0.5302540000000 1.0
C      1  0.5145770000000  0.6221950000000  0.4865750000000 1.0
C      1  0.5247850000000  0.4896230000000  0.5478080000000 1.0
C      1  0.6064130000000  0.4435160000000  0.4868200000000 1.0
C      1  0.4456110000000  0.5565000000000  0.4850240000000 1.0
C      1  0.4933060000000  0.5445000000000  0.4297870000000 1.0
C      1  0.5416260000000  0.4946120000000  0.4839100000000 1.0
C      1  0.5049340000000  0.4215770000000  0.5375990000000 1.0
C      1  0.4774460000000  0.4503540000000  0.5604560000000 1.0
C      1  0.5774710000000  0.4915160000000  0.5335230000000 1.0
C      1  0.4628420000000  0.4749980000000  0.4948140000000 1.0
C      1  0.5530040000000  0.4346380000000  0.5583100000000 1.0
C      1  0.6019980000000  0.5297750000000  0.4770620000000 1.0
C      1  0.4904190000000  0.4810400000000  0.4829100000000 1.0
C      1  0.4246260000000  0.4456150000000  0.4570750000000 1.0
C      1  0.5101750000000  0.5033260000000  0.4107080000000 1.0
C      1  0.4957340000000  0.4538430000000  0.5319970000000 1.0
C      1  0.5999060000000  0.5424300000000  0.5259740000000 1.0
C      1  0.4100160000000  0.4934980000000  0.4809470000000 1.0
C      1  0.4896480000000  0.4810640000000  0.4364890000000 1.0
C      1  0.5213710000000  0.3988130000000  0.4997030000000 1.0
C      1  0.5670300000000  0.5346090000000  0.5489500000000 1.0
C      1  0.4651650000000  0.5564150000000  0.4581620000000 1.0
C      1  0.5329200000000  0.4886030000000  0.4312500000000 1.0
C      1  0.5288870000000  0.5719450000000  0.4974740000000 1.0
C      1  0.5405450000000  0.4564160000000  0.5158000000000 1.0
C      1  0.4422750000000  0.4711180000000  0.4309600000000 1.0
C      1  0.3998700000000  0.5255280000000  0.4861810000000 1.0
C      1  0.5791460000000  0.5042810000000  0.4726170000000 1.0
C      1  0.4265080000000  0.4878400000000  0.5600910000000 1.0
C      1  0.4994590000000  0.4040960000000  0.4467430000000 1.0
C      1  0.5135270000000  0.3887710000000  0.4720500000000 1.0
C      1  0.5740530000000  0.4911080000000  0.5655640000000 1.0
C      1  0.5951620000000  0.4684690000000  0.4963890000000 1.0
C      1  0.4468050000000  0.5287540000000  0.5784880000000 1.0
C      1  0.6006340000000  0.5300550000000  0.5824380000000 1.0
C      1  0.4696180000000  0.3997120000000  0.5095820000000 1.0
C      1  0.4436020000000  0.5555420000000  0.5576950000000 1.0
C      1  0.4987090000000  0.5304570000000  0.3837310000000 1.0
C      1  0.4637570000000  0.4577580000000  0.5229180000000 1.0
C      1  0.5366950000000  0.5180800000000  0.5080240000000 1.0
C      1  0.5481000000000  0.6044460000000  0.5248510000000 1.0
C      1  0.3833990000000  0.4904190000000  0.5019190000000 1.0
C      1  0.5544130000000  0.4185450000000  0.4658150000000 1.0
C      1  0.3847870000000  0.4896310000000  0.5306150000000 1.0
C      1  0.4820600000000  0.5816030000000  0.4512360000000 1.0
C      1  0.5468830000000  0.4741160000000  0.6035130000000 1.0
C      1  0.5651100000000  0.5958960000000  0.4771440000000 1.0
C      1  0.4995350000000  0.5860610000000  0.4941170000000 1.0
C      1  0.5357280000000  0.4603970000000  0.4411050000000 1.0
C      1  0.5003060000000  0.5006370000000  0.4591040000000 1.0
C      1  0.4768350000000  0.4098240000000  0.5926020000000 1.0
C      1  0.4249540000000  0.5681400000000  0.5353810000000 1.0
C      1  0.5576170000000  0.4627350000000  0.5745930000000 1.0
C      1  0.5151550000000  0.5417360000000  0.5403800000000 1.0
C      1  0.5285730000000  0.5703810000000  0.5528780000000 1.0
C      1  0.6114930000000  0.5122170000000  0.5367660000000 1.0
C      1  0.5211380000000  0.5489210000000  0.4206200000000 1.0
C      1  0.4510100000000  0.4268220000000  0.5168730000000 1.0
C      1  0.4606690000000  0.4585790000000  0.4072850000000 1.0
C      1  0.5280800000000  0.5034560000000  0.3818020000000 1.0
C      1  0.3912240000000  0.4594170000000  0.4891240000000 1.0
C      1  0.6265090000000  0.5061710000000  0.5089410000000 1.0
C      1  0.5878550000000  0.5733760000000  0.4834450000000 1.0
C      1  0.4472850000000  0.4209620000000  0.4511500000000 1.0
C      1  0.4962310000000  0.5202560000000  0.5774120000000 1.0
C      1  0.4260370000000  0.5034940000000  0.4132290000000 1.0
C      1  0.3976070000000  0.4631600000000  0.5443640000000 1.0
C      1  0.4856560000000  0.4848350000000  0.5424510000000 1.0
C      1  0.4213740000000  0.4372070000000  0.5267020000000 1.0
C      1  0.4432180000000  0.5009860000000  0.4850210000000 1.0
C      1  0.5867920000000  0.4130910000000  0.4594930000000 1.0
C      1  0.4639050000000  0.5415560000000  0.5095470000000 1.0
C      1  0.5263480000000  0.4494250000000  0.5758550000000 1.0
C      1  0.5322960000000  0.4300560000000  0.4977630000000 1.0
C      1  0.4664730000000  0.5739640000000  0.5650750000000 1.0
C      1  0.4148420000000  0.4852760000000  0.4384990000000 1.0
C      1  0.5229740000000  0.4809210000000  0.5088310000000 1.0
C      1  0.4407030000000  0.5858740000000  0.4685800000000 1.0
C      1  0.4532700000000  0.4607530000000  0.4588610000000 1.0
C      1  0.5388760000000  0.5504380000000  0.5176250000000 1.0
C      1  0.4692950000000  0.4189500000000  0.5647150000000 1.0
C      1  0.5578100000000  0.5361430000000  0.4121450000000 1.0
C      1  0.4856950000000  0.5309360000000  0.4585460000000 1.0
C      1  0.4716500000000  0.5145380000000  0.4978550000000 1.0
C      1  0.5100820000000  0.5775920000000  0.4628750000000 1.0
C      1  0.5399220000000  0.6030360000000  0.4940490000000 1.0
C      1  0.5179740000000  0.5064940000000  0.6006000000000 1.0
C      1  0.6062540000000  0.4770500000000  0.5273650000000 1.0
C      1  0.4790940000000  0.4320210000000  0.4889130000000 1.0
C      1  0.4172900000000  0.5502250000000  0.4406500000000 1.0
C      1  0.4633780000000  0.4956870000000  0.4252110000000 1.0
C      1  0.4693530000000  0.5484530000000  0.4102970000000 1.0
C      1  0.5282640000000  0.5260930000000  0.5675920000000 1.0
C      1  0.4973120000000  0.4886580000000  0.3839160000000 1.0
C      1  0.5032030000000  0.5414980000000  0.5020260000000 1.0
C      1  0.5315190000000  0.5330740000000  0.4459670000000 1.0
C      1  0.6145150000000  0.4933780000000  0.4877600000000 1.0
C      1  0.4879640000000  0.5543360000000  0.5270250000000 1.0
C      1  0.4796430000000  0.5173040000000  0.4052490000000 1.0
C      1  0.5645650000000  0.5265860000000  0.4905030000000 1.0
C      1  0.4795790000000  0.4272100000000  0.4434990000000 1.0
C      1  0.4492340000000  0.4500090000000  0.5794370000000 1.0
C      1  0.5589550000000  0.5574430000000  0.4300850000000 1.0
C      1  0.4916250000000  0.4863530000000  0.5980720000000 1.0
C      1  0.5049820000000  0.5077460000000  0.4981730000000 1.0
C      1  0.4755760000000  0.5670180000000  0.5900540000000 1.0
C      1  0.5539130000000  0.4422080000000  0.4335910000000 1.0
C      1  0.5056390000000  0.5102170000000  0.5318420000000 1.0
END
