TITL C-2848507-1641-609 0.0238746510204718 125000 -160.823510294044 0 0 29 (C1) n - 1
REM
REM in /home/bkarasulu/work/CARBON/AIRSS/Generating-Clusters/AIREBO/with-SteepDescent/Only-C1/SD-CG-opt/Try1-1.4A-POS3A/HFTN-CG
REM
REM
REM
REM
REM
REM ./C.cell (11c1c37f851c82e70ff6c80c92926a4b)
REM
REM compiler GCC version 9.2.1 20190827 (Red Hat 9.2.1-1)
REM options -cpp -mtune=generic -march=x86-64 -g -O0 -fpre-include=/usr/include/finclude/math-vector-fortran.h
REM seed -1396380011 -1421380319 -317355541 -239473459 1510277315 1193252297 -305698571 -1424929157 455230342 233164552 717181446 -1519362948 1629958313 -292091065 1956033383 723523642 368266554 1471186696 -240336891 -1116181998 918431620 1971468694 -1645870755 383256147 2107514114 -1093877971 461550586 -348317301 965160491 1571407031 -1933104564 782892083 -182082258
REM
CELL 1.54180   50.00000   50.00000   50.00000   90.00000   90.00000   90.00000
LATT -1
SFAC C  
C      1  0.5282360000000  0.5507440000000  0.5414210000000 1.0
C      1  0.4782320000000  0.4728750000000  0.4739250000000 1.0
C      1  0.5521210000000  0.5400580000000  0.4691410000000 1.0
C      1  0.4993350000000  0.4638750000000  0.5495980000000 1.0
C      1  0.5401540000000  0.4943600000000  0.4560430000000 1.0
C      1  0.4406810000000  0.5000360000000  0.4927820000000 1.0
C      1  0.5391430000000  0.4497380000000  0.4671920000000 1.0
C      1  0.4706570000000  0.4764660000000  0.5374510000000 1.0
C      1  0.5228040000000  0.4625990000000  0.4873590000000 1.0
C      1  0.5307410000000  0.5210240000000  0.4749500000000 1.0
C      1  0.4613490000000  0.5476350000000  0.4775680000000 1.0
C      1  0.5393700000000  0.4935880000000  0.5606560000000 1.0
C      1  0.5134710000000  0.5340030000000  0.5262130000000 1.0
C      1  0.4919230000000  0.5526300000000  0.4859860000000 1.0
C      1  0.5025350000000  0.5166300000000  0.4564680000000 1.0
C      1  0.4949290000000  0.4592400000000  0.4925710000000 1.0
C      1  0.4432930000000  0.5320010000000  0.4913220000000 1.0
C      1  0.5040880000000  0.4453780000000  0.5692700000000 1.0
C      1  0.5311240000000  0.4907420000000  0.4904340000000 1.0
C      1  0.4913720000000  0.4908850000000  0.4563840000000 1.0
C      1  0.5140620000000  0.4915810000000  0.5505240000000 1.0
C      1  0.5501540000000  0.4689050000000  0.4494760000000 1.0
C      1  0.4522550000000  0.5161900000000  0.5182130000000 1.0
C      1  0.4874230000000  0.4574260000000  0.5188140000000 1.0
C      1  0.4725860000000  0.5042740000000  0.5329650000000 1.0
C      1  0.5121370000000  0.5371450000000  0.4982410000000 1.0
C      1  0.4854580000000  0.5395120000000  0.4574910000000 1.0
C      1  0.4993470000000  0.5123200000000  0.5381860000000 1.0
C      1  0.4510200000000  0.4781400000000  0.4793560000000 1.0
END
