TITL C-2847950-6905-124 -0.000685642236106109 125000 -745.950384149318 0 0 138 (C1) n - 1
REM
REM in /home/bkarasulu/work/CARBON/AIRSS/Generating-Clusters/AIREBO/with-SteepDescent/Only-C1/SD-CG-opt/Try1-1.4A-POS3A/HFTN-CG
REM
REM
REM
REM
REM
REM ./C.cell (11c1c37f851c82e70ff6c80c92926a4b)
REM
REM compiler GCC version 9.2.1 20190827 (Red Hat 9.2.1-1)
REM options -cpp -mtune=generic -march=x86-64 -g -O0 -fpre-include=/usr/include/finclude/math-vector-fortran.h
REM seed 928784286 486456093 1992994877 1355552539 1833609795 65004501 1051601006 579449968 -1004012559 472771008 -437633160 -1643682960 433784160 -989172639 -1017992985 -1552019726 712436317 1309110950 -226123177 1587495107 -1508436681 -1142134960 1912227831 2027195243 90324816 -138981412 -1513340828 -1699714587 -1833347654 -638552124 -1020424815 -1486902965 1087462883
REM
CELL 1.54180   50.00000   50.00000   50.00000   90.00000   90.00000   90.00000
LATT -1
SFAC C  
C      1  0.4582660000000  0.6013360000000  0.4933160000000 1.0
C      1  0.4212420000000  0.5098480000000  0.5796000000000 1.0
C      1  0.4980270000000  0.5658460000000  0.5102040000000 1.0
C      1  0.4820780000000  0.5722940000000  0.5550620000000 1.0
C      1  0.5156680000000  0.5430540000000  0.4316610000000 1.0
C      1  0.5064320000000  0.5935870000000  0.5529460000000 1.0
C      1  0.4727770000000  0.4633950000000  0.4023100000000 1.0
C      1  0.5411610000000  0.5267850000000  0.5045130000000 1.0
C      1  0.5627380000000  0.4660630000000  0.4390990000000 1.0
C      1  0.4452960000000  0.4871330000000  0.5160790000000 1.0
C      1  0.4945410000000  0.5290610000000  0.5856140000000 1.0
C      1  0.4979790000000  0.4236670000000  0.4623120000000 1.0
C      1  0.4728560000000  0.5051770000000  0.4778470000000 1.0
C      1  0.5302860000000  0.4727550000000  0.5200030000000 1.0
C      1  0.4081870000000  0.4873710000000  0.4480620000000 1.0
C      1  0.4656400000000  0.5098400000000  0.5284130000000 1.0
C      1  0.4296860000000  0.4413900000000  0.5156650000000 1.0
C      1  0.4934610000000  0.4718840000000  0.6076690000000 1.0
C      1  0.4759090000000  0.4288160000000  0.5633450000000 1.0
C      1  0.4462040000000  0.5177100000000  0.4173800000000 1.0
C      1  0.5745820000000  0.5698420000000  0.5247200000000 1.0
C      1  0.4686330000000  0.4589970000000  0.4518390000000 1.0
C      1  0.4419940000000  0.4600130000000  0.5309940000000 1.0
C      1  0.5109890000000  0.5365640000000  0.5125620000000 1.0
C      1  0.4661300000000  0.5317080000000  0.4575790000000 1.0
C      1  0.4978350000000  0.4216610000000  0.4350520000000 1.0
C      1  0.4188010000000  0.5648860000000  0.4766170000000 1.0
C      1  0.5265050000000  0.4701510000000  0.3941530000000 1.0
C      1  0.4266120000000  0.4398600000000  0.4582800000000 1.0
C      1  0.5348740000000  0.5137090000000  0.4764120000000 1.0
C      1  0.5215270000000  0.4965640000000  0.5426750000000 1.0
C      1  0.4754460000000  0.5694580000000  0.4418200000000 1.0
C      1  0.5042390000000  0.5015130000000  0.5948630000000 1.0
C      1  0.5365080000000  0.4295660000000  0.5583340000000 1.0
C      1  0.5612450000000  0.5219160000000  0.4572960000000 1.0
C      1  0.5787330000000  0.5694410000000  0.4706130000000 1.0
C      1  0.4377290000000  0.4695670000000  0.4457930000000 1.0
C      1  0.4360860000000  0.4896180000000  0.6005930000000 1.0
C      1  0.5601340000000  0.4883670000000  0.4628860000000 1.0
C      1  0.5150300000000  0.4434260000000  0.4214740000000 1.0
C      1  0.4548370000000  0.4858080000000  0.4206220000000 1.0
C      1  0.5405120000000  0.5722050000000  0.4393110000000 1.0
C      1  0.4593980000000  0.5619850000000  0.5713090000000 1.0
C      1  0.4562570000000  0.5380450000000  0.5255410000000 1.0
C      1  0.4692590000000  0.5822610000000  0.4722160000000 1.0
C      1  0.4513750000000  0.5568090000000  0.4711470000000 1.0
C      1  0.5445900000000  0.4390430000000  0.4336170000000 1.0
C      1  0.4814760000000  0.4487420000000  0.4782810000000 1.0
C      1  0.4086800000000  0.5194710000000  0.4874440000000 1.0
C      1  0.5009340000000  0.5732190000000  0.4771390000000 1.0
C      1  0.5825260000000  0.4559210000000  0.4653670000000 1.0
C      1  0.4688420000000  0.4918570000000  0.6106120000000 1.0
C      1  0.4720980000000  0.5668980000000  0.5262610000000 1.0
C      1  0.5170890000000  0.4146630000000  0.5138970000000 1.0
C      1  0.5214050000000  0.5486520000000  0.5869350000000 1.0
C      1  0.4995200000000  0.4575150000000  0.3972720000000 1.0
C      1  0.4368540000000  0.4860540000000  0.4752590000000 1.0
C      1  0.5870810000000  0.4850350000000  0.4816260000000 1.0
C      1  0.4896700000000  0.5135740000000  0.3913780000000 1.0
C      1  0.5359500000000  0.4777550000000  0.4217140000000 1.0
C      1  0.5695840000000  0.4340790000000  0.4782140000000 1.0
C      1  0.5336740000000  0.5733930000000  0.5479950000000 1.0
C      1  0.5654980000000  0.5551110000000  0.4510800000000 1.0
C      1  0.5033280000000  0.5380160000000  0.4794600000000 1.0
C      1  0.5465560000000  0.5021650000000  0.5650140000000 1.0
C      1  0.4905380000000  0.4040140000000  0.4961760000000 1.0
C      1  0.4694140000000  0.4758900000000  0.4948560000000 1.0
C      1  0.5393420000000  0.4753660000000  0.3707300000000 1.0
C      1  0.4201930000000  0.5310640000000  0.5670890000000 1.0
C      1  0.5432330000000  0.4248270000000  0.4634950000000 1.0
C      1  0.5607440000000  0.4355000000000  0.5044310000000 1.0
C      1  0.5598560000000  0.5257500000000  0.4249900000000 1.0
C      1  0.5376880000000  0.4957010000000  0.5930070000000 1.0
C      1  0.5037950000000  0.5077480000000  0.4639280000000 1.0
C      1  0.5086560000000  0.5540720000000  0.5578320000000 1.0
C      1  0.4131010000000  0.5153110000000  0.4577840000000 1.0
C      1  0.4957210000000  0.4965790000000  0.5197230000000 1.0
C      1  0.5908970000000  0.5058830000000  0.4985700000000 1.0
C      1  0.4900340000000  0.4800040000000  0.4491320000000 1.0
C      1  0.4019640000000  0.4312600000000  0.4482740000000 1.0
C      1  0.5183820000000  0.5875070000000  0.5227630000000 1.0
C      1  0.5651960000000  0.5160220000000  0.5178630000000 1.0
C      1  0.5337880000000  0.5253030000000  0.4171980000000 1.0
C      1  0.5203840000000  0.4095890000000  0.4804330000000 1.0
C      1  0.5080400000000  0.5801010000000  0.4446040000000 1.0
C      1  0.5761460000000  0.5429580000000  0.5453040000000 1.0
C      1  0.4814230000000  0.5127590000000  0.5587950000000 1.0
C      1  0.4871520000000  0.4964060000000  0.4194840000000 1.0
C      1  0.5947810000000  0.5318170000000  0.5191290000000 1.0
C      1  0.5175470000000  0.4656100000000  0.4459080000000 1.0
C      1  0.4600000000000  0.5001670000000  0.5788480000000 1.0
C      1  0.4872280000000  0.5398400000000  0.4344390000000 1.0
C      1  0.5579230000000  0.5639800000000  0.5619410000000 1.0
C      1  0.4919630000000  0.4087880000000  0.5560430000000 1.0
C      1  0.4423640000000  0.5154980000000  0.4850470000000 1.0
C      1  0.5101240000000  0.4611060000000  0.4877010000000 1.0
C      1  0.4511200000000  0.5524540000000  0.4244700000000 1.0
C      1  0.4614360000000  0.4465330000000  0.4233590000000 1.0
C      1  0.4511460000000  0.4166180000000  0.4587540000000 1.0
C      1  0.4345500000000  0.5309920000000  0.4449850000000 1.0
C      1  0.5072290000000  0.5274270000000  0.5421950000000 1.0
C      1  0.5066720000000  0.4902920000000  0.4929670000000 1.0
C      1  0.5501130000000  0.4745190000000  0.4923360000000 1.0
C      1  0.4853230000000  0.4521300000000  0.5851190000000 1.0
C      1  0.5727880000000  0.4688390000000  0.5605020000000 1.0
C      1  0.4523250000000  0.5897490000000  0.5169870000000 1.0
C      1  0.4545200000000  0.4668780000000  0.5832880000000 1.0
C      1  0.5175220000000  0.5033690000000  0.4331060000000 1.0
C      1  0.4313150000000  0.5689330000000  0.5238320000000 1.0
C      1  0.5740140000000  0.4452030000000  0.5282580000000 1.0
C      1  0.5699510000000  0.4721530000000  0.5172820000000 1.0
C      1  0.4164560000000  0.4956970000000  0.5078860000000 1.0
C      1  0.4383570000000  0.5507820000000  0.5517270000000 1.0
C      1  0.5356440000000  0.4557610000000  0.4687690000000 1.0
C      1  0.4046500000000  0.4803540000000  0.4808960000000 1.0
C      1  0.5753730000000  0.5202050000000  0.5653640000000 1.0
C      1  0.4689720000000  0.5467090000000  0.5924550000000 1.0
C      1  0.5272650000000  0.5488410000000  0.4597140000000 1.0
C      1  0.5173610000000  0.4116650000000  0.5436450000000 1.0
C      1  0.4661800000000  0.4208170000000  0.4889600000000 1.0
C      1  0.5092710000000  0.4802780000000  0.5698960000000 1.0
C      1  0.5112120000000  0.4475870000000  0.5635470000000 1.0
C      1  0.5619110000000  0.5755370000000  0.4967640000000 1.0
C      1  0.5052000000000  0.4577490000000  0.5328710000000 1.0
C      1  0.4354310000000  0.4326270000000  0.4906450000000 1.0
C      1  0.5616230000000  0.4413400000000  0.5554190000000 1.0
C      1  0.5391470000000  0.5534580000000  0.4879020000000 1.0
C      1  0.5309300000000  0.4417950000000  0.5059470000000 1.0
C      1  0.4618880000000  0.4581180000000  0.5532950000000 1.0
C      1  0.5636810000000  0.4932290000000  0.5386130000000 1.0
C      1  0.4851930000000  0.4807560000000  0.5479210000000 1.0
C      1  0.5848950000000  0.4936320000000  0.5724700000000 1.0
C      1  0.4792950000000  0.4558490000000  0.5173530000000 1.0
C      1  0.5291220000000  0.5846180000000  0.4935230000000 1.0
C      1  0.5269620000000  0.4746220000000  0.6127890000000 1.0
C      1  0.4363610000000  0.5456590000000  0.4995510000000 1.0
C      1  0.5479100000000  0.5558820000000  0.5870610000000 1.0
C      1  0.4730130000000  0.5318110000000  0.4076920000000 1.0
END
