TITL C-2848499-1157-189 -0.0015805281422088 125000 -811.462423585556 0 0 144 (C1) n - 1
REM
REM in /home/bkarasulu/work/CARBON/AIRSS/Generating-Clusters/AIREBO/with-SteepDescent/Only-C1/SD-CG-opt/Try1-1.4A-POS3A/HFTN-CG
REM
REM
REM
REM
REM
REM ./C.cell (11c1c37f851c82e70ff6c80c92926a4b)
REM
REM compiler GCC version 9.2.1 20190827 (Red Hat 9.2.1-1)
REM options -cpp -mtune=generic -march=x86-64 -g -O0 -fpre-include=/usr/include/finclude/math-vector-fortran.h
REM seed -2073121125 -1597309855 -2011560766 469460193 -1570035343 1041750015 811601965 1643345714 468473535 82775041 -391735828 -1239138834 2007194666 -2004642213 1268217014 -1889651762 1688918533 -1332369731 -1370161312 -564845303 -1851963344 1799989037 1390242402 84126306 912246667 1122055065 -1376459175 1115857533 1369786893 -1107863077 -742388250 -1124331415 2093586156
REM
CELL 1.54180   50.00000   50.00000   50.00000   90.00000   90.00000   90.00000
LATT -1
SFAC C  
C      1  0.4975580000000  0.4786380000000  0.4826960000000 1.0
C      1  0.5708830000000  0.5695180000000  0.4816520000000 1.0
C      1  0.5088380000000  0.5233160000000  0.4680010000000 1.0
C      1  0.5491100000000  0.4312300000000  0.5702870000000 1.0
C      1  0.4290920000000  0.4712980000000  0.5491110000000 1.0
C      1  0.5103850000000  0.5811450000000  0.4448090000000 1.0
C      1  0.4374480000000  0.5664150000000  0.4959060000000 1.0
C      1  0.5300510000000  0.4998730000000  0.5644240000000 1.0
C      1  0.5676680000000  0.4265620000000  0.5548550000000 1.0
C      1  0.5480540000000  0.5146630000000  0.5396280000000 1.0
C      1  0.5272370000000  0.4434430000000  0.5257800000000 1.0
C      1  0.4708780000000  0.5506190000000  0.4778440000000 1.0
C      1  0.5306200000000  0.5655570000000  0.5158060000000 1.0
C      1  0.4640160000000  0.4737380000000  0.5682810000000 1.0
C      1  0.3912710000000  0.5328480000000  0.5144180000000 1.0
C      1  0.5178200000000  0.5181670000000  0.5311630000000 1.0
C      1  0.4399620000000  0.5166750000000  0.5865980000000 1.0
C      1  0.4950550000000  0.5099600000000  0.3726020000000 1.0
C      1  0.5811900000000  0.4855890000000  0.5728760000000 1.0
C      1  0.4960870000000  0.4390080000000  0.5827650000000 1.0
C      1  0.4550650000000  0.4067300000000  0.4648750000000 1.0
C      1  0.5440460000000  0.4997870000000  0.4797370000000 1.0
C      1  0.5240400000000  0.4454280000000  0.4628610000000 1.0
C      1  0.5465420000000  0.4671070000000  0.4673760000000 1.0
C      1  0.4692170000000  0.4542330000000  0.4457040000000 1.0
C      1  0.4734230000000  0.4787790000000  0.4048160000000 1.0
C      1  0.4112050000000  0.4645610000000  0.4769940000000 1.0
C      1  0.4246680000000  0.4901680000000  0.4644590000000 1.0
C      1  0.5773150000000  0.5241960000000  0.5353990000000 1.0
C      1  0.5308800000000  0.5517580000000  0.4161050000000 1.0
C      1  0.5093680000000  0.4203410000000  0.4805260000000 1.0
C      1  0.4900190000000  0.4762100000000  0.6075450000000 1.0
C      1  0.4373370000000  0.5758560000000  0.5278480000000 1.0
C      1  0.4393450000000  0.5392850000000  0.4527830000000 1.0
C      1  0.4073920000000  0.4845460000000  0.5265350000000 1.0
C      1  0.4302360000000  0.4963340000000  0.4108480000000 1.0
C      1  0.5809970000000  0.5510430000000  0.5226240000000 1.0
C      1  0.4871650000000  0.4347860000000  0.5403090000000 1.0
C      1  0.4339300000000  0.5059330000000  0.5059210000000 1.0
C      1  0.4792400000000  0.4165090000000  0.5126690000000 1.0
C      1  0.4156730000000  0.4663760000000  0.4454240000000 1.0
C      1  0.5356310000000  0.4774400000000  0.4368740000000 1.0
C      1  0.5215410000000  0.5852730000000  0.4825080000000 1.0
C      1  0.4401470000000  0.4495430000000  0.4341710000000 1.0
C      1  0.5097000000000  0.5975310000000  0.5283910000000 1.0
C      1  0.4587540000000  0.5660670000000  0.4500860000000 1.0
C      1  0.5732910000000  0.4946910000000  0.4367530000000 1.0
C      1  0.5132480000000  0.4162950000000  0.5140690000000 1.0
C      1  0.5593510000000  0.5686890000000  0.4560050000000 1.0
C      1  0.4940490000000  0.4413420000000  0.4575220000000 1.0
C      1  0.5002390000000  0.5990790000000  0.5014230000000 1.0
C      1  0.5423590000000  0.5247200000000  0.5931830000000 1.0
C      1  0.4406150000000  0.4428900000000  0.5443670000000 1.0
C      1  0.5063880000000  0.5601140000000  0.5615420000000 1.0
C      1  0.4623800000000  0.4343540000000  0.5617610000000 1.0
C      1  0.5073870000000  0.4959260000000  0.5894830000000 1.0
C      1  0.4921810000000  0.4617380000000  0.4233680000000 1.0
C      1  0.5022820000000  0.4499780000000  0.4956380000000 1.0
C      1  0.5172680000000  0.5247060000000  0.4992450000000 1.0
C      1  0.5260470000000  0.4503560000000  0.5767500000000 1.0
C      1  0.5259550000000  0.5450730000000  0.5851140000000 1.0
C      1  0.4736620000000  0.3971290000000  0.4895920000000 1.0
C      1  0.3957720000000  0.5101760000000  0.5323030000000 1.0
C      1  0.5308310000000  0.5526130000000  0.4851520000000 1.0
C      1  0.4926980000000  0.5556910000000  0.5025840000000 1.0
C      1  0.4839090000000  0.5333360000000  0.4556080000000 1.0
C      1  0.4736690000000  0.6020060000000  0.4885510000000 1.0
C      1  0.4935310000000  0.5008970000000  0.5043930000000 1.0
C      1  0.4821610000000  0.5497160000000  0.4287470000000 1.0
C      1  0.4923810000000  0.5453460000000  0.5881240000000 1.0
C      1  0.5909230000000  0.4771470000000  0.5475690000000 1.0
C      1  0.5074560000000  0.5637990000000  0.4239060000000 1.0
C      1  0.4535520000000  0.5859380000000  0.4772040000000 1.0
C      1  0.5432000000000  0.5923370000000  0.5311990000000 1.0
C      1  0.4732880000000  0.4651810000000  0.5390350000000 1.0
C      1  0.4709580000000  0.4532800000000  0.4984610000000 1.0
C      1  0.5930120000000  0.4504730000000  0.4735520000000 1.0
C      1  0.5301360000000  0.4205100000000  0.4324490000000 1.0
C      1  0.4780210000000  0.5295940000000  0.5113330000000 1.0
C      1  0.4262940000000  0.5368770000000  0.5690650000000 1.0
C      1  0.5910040000000  0.4999950000000  0.4577330000000 1.0
C      1  0.6043670000000  0.4766060000000  0.4683540000000 1.0
C      1  0.5567530000000  0.4214500000000  0.4406440000000 1.0
C      1  0.4945770000000  0.5719610000000  0.4726010000000 1.0
C      1  0.4163530000000  0.5507380000000  0.5173680000000 1.0
C      1  0.5613060000000  0.5047580000000  0.5758230000000 1.0
C      1  0.5416430000000  0.4981630000000  0.6097050000000 1.0
C      1  0.5343980000000  0.4602960000000  0.4984060000000 1.0
C      1  0.5383880000000  0.5873370000000  0.4543610000000 1.0
C      1  0.5862250000000  0.5090130000000  0.5042680000000 1.0
C      1  0.5922970000000  0.4346180000000  0.4955470000000 1.0
C      1  0.5552470000000  0.4708620000000  0.5178650000000 1.0
C      1  0.5213700000000  0.4511460000000  0.4207000000000 1.0
C      1  0.4320970000000  0.4448550000000  0.4896540000000 1.0
C      1  0.5110690000000  0.4575370000000  0.5485510000000 1.0
C      1  0.4370070000000  0.4898220000000  0.5765430000000 1.0
C      1  0.4875730000000  0.5150200000000  0.5791940000000 1.0
C      1  0.4643390000000  0.5276910000000  0.5968230000000 1.0
C      1  0.5433490000000  0.5105640000000  0.4367280000000 1.0
C      1  0.5562050000000  0.5000680000000  0.5115110000000 1.0
C      1  0.5044280000000  0.4906450000000  0.5445290000000 1.0
C      1  0.4307710000000  0.5302960000000  0.5367530000000 1.0
C      1  0.3989210000000  0.5209700000000  0.5589510000000 1.0
C      1  0.5706700000000  0.5729190000000  0.5364870000000 1.0
C      1  0.5771100000000  0.4283760000000  0.5228550000000 1.0
C      1  0.5702080000000  0.4470880000000  0.4536130000000 1.0
C      1  0.4341600000000  0.4730550000000  0.5085420000000 1.0
C      1  0.5535490000000  0.5419340000000  0.4375720000000 1.0
C      1  0.5559840000000  0.5826600000000  0.5009540000000 1.0
C      1  0.4430840000000  0.5201790000000  0.4255450000000 1.0
C      1  0.5093880000000  0.5489790000000  0.5314600000000 1.0
C      1  0.5121260000000  0.4067220000000  0.4494830000000 1.0
C      1  0.4668730000000  0.4816440000000  0.5124110000000 1.0
C      1  0.4689360000000  0.4707280000000  0.4711230000000 1.0
C      1  0.5516740000000  0.5314440000000  0.4698730000000 1.0
C      1  0.5167770000000  0.4928010000000  0.4606490000000 1.0
C      1  0.4509100000000  0.4351930000000  0.5158580000000 1.0
C      1  0.5461730000000  0.4156340000000  0.5230200000000 1.0
C      1  0.5844420000000  0.5491040000000  0.4943630000000 1.0
C      1  0.5835140000000  0.5216260000000  0.4768640000000 1.0
C      1  0.4929370000000  0.5845140000000  0.5468190000000 1.0
C      1  0.4646860000000  0.5320310000000  0.5385670000000 1.0
C      1  0.4416330000000  0.4307890000000  0.4625340000000 1.0
C      1  0.4509720000000  0.5571770000000  0.5569520000000 1.0
C      1  0.4670450000000  0.5094140000000  0.4449000000000 1.0
C      1  0.4334840000000  0.5343390000000  0.4852660000000 1.0
C      1  0.5303460000000  0.4504780000000  0.3910060000000 1.0
C      1  0.3692150000000  0.5386140000000  0.4996010000000 1.0
C      1  0.5753690000000  0.4587580000000  0.5324790000000 1.0
C      1  0.4736160000000  0.5025590000000  0.5529880000000 1.0
C      1  0.4695800000000  0.5295250000000  0.4104580000000 1.0
C      1  0.4460300000000  0.4738320000000  0.4110990000000 1.0
C      1  0.4424780000000  0.4991010000000  0.5381290000000 1.0
C      1  0.5321280000000  0.4743050000000  0.5949390000000 1.0
C      1  0.5738890000000  0.4684270000000  0.4295570000000 1.0
C      1  0.5154220000000  0.5074810000000  0.4199830000000 1.0
C      1  0.4780390000000  0.4583780000000  0.5901440000000 1.0
C      1  0.4856030000000  0.3965050000000  0.4589560000000 1.0
C      1  0.4651660000000  0.5830790000000  0.5456160000000 1.0
C      1  0.4589720000000  0.5153340000000  0.4911270000000 1.0
C      1  0.5994130000000  0.4995600000000  0.5329110000000 1.0
C      1  0.4923610000000  0.4926220000000  0.4369770000000 1.0
C      1  0.4879180000000  0.5067940000000  0.3998600000000 1.0
C      1  0.4538440000000  0.4958090000000  0.4679110000000 1.0
END
