TITL C-2847952-8118-699 0.00237282591107047 125000 -491.754880753725 0 0 90 (C1) n - 1
REM
REM in /home/bkarasulu/work/CARBON/AIRSS/Generating-Clusters/AIREBO/with-SteepDescent/Only-C1/SD-CG-opt/Try1-1.4A-POS3A/HFTN-CG
REM
REM
REM
REM
REM
REM ./C.cell (11c1c37f851c82e70ff6c80c92926a4b)
REM
REM compiler GCC version 9.2.1 20190827 (Red Hat 9.2.1-1)
REM options -cpp -mtune=generic -march=x86-64 -g -O0 -fpre-include=/usr/include/finclude/math-vector-fortran.h
REM seed 1882757273 1953299423 -1291545785 937847254 229906694 -1562041766 -802271254 -1735572004 -633831176 1814610548 -940385309 -642922514 -288946356 884558934 1240731122 -284642005 121670749 1479500169 1567182755 1755938065 113118538 -2001128721 -76626638 1478063983 -353346642 17955286 -917354332 15675360 -1027113602 1635736005 448181507 670366122 1189193428
REM
CELL 1.54180   50.00000   50.00000   50.00000   90.00000   90.00000   90.00000
LATT -1
SFAC C  
C      1  0.5423610000000  0.5625270000000  0.5572630000000 1.0
C      1  0.4796270000000  0.5590850000000  0.4429640000000 1.0
C      1  0.4998210000000  0.3925070000000  0.5251140000000 1.0
C      1  0.4549920000000  0.5496420000000  0.4287000000000 1.0
C      1  0.4295060000000  0.4364700000000  0.5290140000000 1.0
C      1  0.5200910000000  0.4997540000000  0.4699400000000 1.0
C      1  0.4608470000000  0.5162510000000  0.5157130000000 1.0
C      1  0.5632570000000  0.5689730000000  0.5157340000000 1.0
C      1  0.5276040000000  0.4752980000000  0.4228380000000 1.0
C      1  0.5151250000000  0.4754710000000  0.4467460000000 1.0
C      1  0.4740710000000  0.5824670000000  0.4993440000000 1.0
C      1  0.4889890000000  0.5777440000000  0.5234830000000 1.0
C      1  0.5174780000000  0.5819580000000  0.5196110000000 1.0
C      1  0.4325280000000  0.4800840000000  0.5592240000000 1.0
C      1  0.4125870000000  0.5102900000000  0.5107780000000 1.0
C      1  0.5661100000000  0.4593880000000  0.4660930000000 1.0
C      1  0.5563200000000  0.4351620000000  0.4783500000000 1.0
C      1  0.5575800000000  0.5005960000000  0.5629810000000 1.0
C      1  0.4846770000000  0.5855190000000  0.4515970000000 1.0
C      1  0.5237690000000  0.4645400000000  0.3926500000000 1.0
C      1  0.4171770000000  0.4167370000000  0.5433310000000 1.0
C      1  0.5222480000000  0.5102670000000  0.5788410000000 1.0
C      1  0.4626780000000  0.4595630000000  0.4400980000000 1.0
C      1  0.4732830000000  0.4897680000000  0.4640330000000 1.0
C      1  0.4995870000000  0.5076100000000  0.4959210000000 1.0
C      1  0.4912350000000  0.4729900000000  0.5220170000000 1.0
C      1  0.5488320000000  0.5165720000000  0.4628860000000 1.0
C      1  0.5441740000000  0.5456150000000  0.4477250000000 1.0
C      1  0.4587850000000  0.4669710000000  0.5139450000000 1.0
C      1  0.4897460000000  0.4605010000000  0.4580330000000 1.0
C      1  0.4438440000000  0.5527040000000  0.4595350000000 1.0
C      1  0.5365930000000  0.4927630000000  0.4988510000000 1.0
C      1  0.5379310000000  0.4854420000000  0.5320360000000 1.0
C      1  0.4930140000000  0.5116810000000  0.4531850000000 1.0
C      1  0.4808810000000  0.4830830000000  0.5684770000000 1.0
C      1  0.5627600000000  0.4818450000000  0.4800440000000 1.0
C      1  0.5158980000000  0.4660960000000  0.5030560000000 1.0
C      1  0.4518630000000  0.5334660000000  0.5504430000000 1.0
C      1  0.5529430000000  0.5278650000000  0.4248490000000 1.0
C      1  0.5473160000000  0.4530700000000  0.5038680000000 1.0
C      1  0.4233630000000  0.4430600000000  0.4723180000000 1.0
C      1  0.5456310000000  0.5308070000000  0.5690760000000 1.0
C      1  0.4800670000000  0.5486620000000  0.5386730000000 1.0
C      1  0.4478650000000  0.5032380000000  0.5597510000000 1.0
C      1  0.4728140000000  0.4521070000000  0.5605480000000 1.0
C      1  0.5099680000000  0.5008140000000  0.5275840000000 1.0
C      1  0.4187090000000  0.5164670000000  0.4841060000000 1.0
C      1  0.4821030000000  0.3732170000000  0.5259730000000 1.0
C      1  0.5428500000000  0.4092390000000  0.4785230000000 1.0
C      1  0.5231310000000  0.5526050000000  0.4930620000000 1.0
C      1  0.5160280000000  0.5442140000000  0.5588280000000 1.0
C      1  0.4696540000000  0.4932460000000  0.4954430000000 1.0
C      1  0.5684020000000  0.4976460000000  0.5324150000000 1.0
C      1  0.4269090000000  0.4422390000000  0.5032950000000 1.0
C      1  0.5387510000000  0.5219050000000  0.4008560000000 1.0
C      1  0.5344100000000  0.5255960000000  0.5079960000000 1.0
C      1  0.5029440000000  0.4463790000000  0.4811490000000 1.0
C      1  0.5698790000000  0.4676240000000  0.5165230000000 1.0
C      1  0.5202300000000  0.5852080000000  0.4871570000000 1.0
C      1  0.4926960000000  0.4717590000000  0.5984640000000 1.0
C      1  0.4474630000000  0.4563980000000  0.5434210000000 1.0
C      1  0.4895440000000  0.5584500000000  0.5698300000000 1.0
C      1  0.4400990000000  0.4969170000000  0.4662070000000 1.0
C      1  0.4226780000000  0.5444230000000  0.4815840000000 1.0
C      1  0.5047770000000  0.5006480000000  0.5603230000000 1.0
C      1  0.4442190000000  0.5223510000000  0.4439550000000 1.0
C      1  0.5247850000000  0.4477340000000  0.5652170000000 1.0
C      1  0.5201360000000  0.4446060000000  0.3761590000000 1.0
C      1  0.5677870000000  0.5206770000000  0.4865560000000 1.0
C      1  0.4416160000000  0.4734250000000  0.4416680000000 1.0
C      1  0.4962830000000  0.5388100000000  0.4887810000000 1.0
C      1  0.4896330000000  0.5389170000000  0.4590280000000 1.0
C      1  0.5400090000000  0.4715210000000  0.5612600000000 1.0
C      1  0.5227900000000  0.4270320000000  0.4983620000000 1.0
C      1  0.4384440000000  0.4698830000000  0.4867820000000 1.0
C      1  0.5311190000000  0.4952780000000  0.3972700000000 1.0
C      1  0.5420340000000  0.5765990000000  0.5329080000000 1.0
C      1  0.5099420000000  0.5339860000000  0.5301030000000 1.0
C      1  0.5271850000000  0.4261420000000  0.5473070000000 1.0
C      1  0.5368150000000  0.5650370000000  0.4653710000000 1.0
C      1  0.5617540000000  0.5010060000000  0.4368340000000 1.0
C      1  0.4718830000000  0.5431480000000  0.5061290000000 1.0
C      1  0.5616960000000  0.5443210000000  0.5034800000000 1.0
C      1  0.4719290000000  0.4958610000000  0.5382580000000 1.0
C      1  0.5163080000000  0.4144500000000  0.5244290000000 1.0
C      1  0.4990220000000  0.4489760000000  0.5777740000000 1.0
C      1  0.4912250000000  0.5906390000000  0.4784880000000 1.0
C      1  0.4508750000000  0.5612200000000  0.4911010000000 1.0
C      1  0.4317400000000  0.5205510000000  0.5279060000000 1.0
C      1  0.5816750000000  0.4966270000000  0.5024610000000 1.0
END
