TITL C-2848494-1720-701 0.00166406735186876 125000 -464.330157998599 0 0 85 (C1) n - 1
REM
REM in /home/bkarasulu/work/CARBON/AIRSS/Generating-Clusters/AIREBO/with-SteepDescent/Only-C1/SD-CG-opt/Try1-1.4A-POS3A/HFTN-CG
REM
REM
REM
REM
REM
REM ./C.cell (11c1c37f851c82e70ff6c80c92926a4b)
REM
REM compiler GCC version 9.2.1 20190827 (Red Hat 9.2.1-1)
REM options -cpp -mtune=generic -march=x86-64 -g -O0 -fpre-include=/usr/include/finclude/math-vector-fortran.h
REM seed 1789784886 -1487370782 1220821878 -484081983 1507601945 -106658391 758897414 -251053196 -1571904895 -1793089174 2120619680 -1458838237 1652229417 -1826210812 1515048860 154038670 -1635419681 1161940145 1982787115 -383816461 -978324741 1791760676 281117723 1642996426 -1434061268 406921127 1724313656 2030291224 -112048613 2007859332 -1156750039 -2110727754 1630456905
REM
CELL 1.54180   50.00000   50.00000   50.00000   90.00000   90.00000   90.00000
LATT -1
SFAC C  
C      1  0.5137960000000  0.4704650000000  0.5727680000000 1.0
C      1  0.4161400000000  0.4746880000000  0.5081230000000 1.0
C      1  0.4818730000000  0.4212730000000  0.4645310000000 1.0
C      1  0.5526880000000  0.5262440000000  0.4662180000000 1.0
C      1  0.5376450000000  0.5000260000000  0.5389110000000 1.0
C      1  0.5234220000000  0.5324730000000  0.4032630000000 1.0
C      1  0.4970520000000  0.4658220000000  0.4782400000000 1.0
C      1  0.5656420000000  0.4509980000000  0.5190720000000 1.0
C      1  0.4378410000000  0.5888020000000  0.4517380000000 1.0
C      1  0.4899160000000  0.4310060000000  0.5208550000000 1.0
C      1  0.5647220000000  0.4522210000000  0.4456790000000 1.0
C      1  0.4919400000000  0.4981040000000  0.5166700000000 1.0
C      1  0.4830470000000  0.5819910000000  0.5151480000000 1.0
C      1  0.5009870000000  0.4106010000000  0.4470150000000 1.0
C      1  0.4892690000000  0.5294740000000  0.5239120000000 1.0
C      1  0.4884460000000  0.5706540000000  0.5386860000000 1.0
C      1  0.4621650000000  0.4909370000000  0.5046440000000 1.0
C      1  0.4443160000000  0.5282940000000  0.5708280000000 1.0
C      1  0.5090920000000  0.5919040000000  0.4728670000000 1.0
C      1  0.4881770000000  0.5191120000000  0.4508480000000 1.0
C      1  0.4574150000000  0.4312700000000  0.4574180000000 1.0
C      1  0.4628910000000  0.4231380000000  0.5089040000000 1.0
C      1  0.4953840000000  0.5480460000000  0.4605530000000 1.0
C      1  0.5923000000000  0.4680200000000  0.5204750000000 1.0
C      1  0.5434010000000  0.4359540000000  0.5273320000000 1.0
C      1  0.5033060000000  0.5735700000000  0.4188430000000 1.0
C      1  0.4668790000000  0.4780480000000  0.4768630000000 1.0
C      1  0.4273560000000  0.5271720000000  0.4878030000000 1.0
C      1  0.4631380000000  0.5103860000000  0.4086060000000 1.0
C      1  0.5289380000000  0.4537150000000  0.4803890000000 1.0
C      1  0.5714590000000  0.4800300000000  0.5455200000000 1.0
C      1  0.5400560000000  0.5211000000000  0.4951360000000 1.0
C      1  0.5123810000000  0.4980640000000  0.5555320000000 1.0
C      1  0.5019700000000  0.4964600000000  0.4664670000000 1.0
C      1  0.5464210000000  0.5363350000000  0.5248650000000 1.0
C      1  0.4530130000000  0.4926480000000  0.4275190000000 1.0
C      1  0.5355610000000  0.5582930000000  0.5484500000000 1.0
C      1  0.4725880000000  0.5438120000000  0.5474870000000 1.0
C      1  0.5562790000000  0.4953890000000  0.4688350000000 1.0
C      1  0.4413660000000  0.5419680000000  0.5439530000000 1.0
C      1  0.4448500000000  0.4333450000000  0.4951980000000 1.0
C      1  0.5702090000000  0.4787270000000  0.4531670000000 1.0
C      1  0.5558910000000  0.5202960000000  0.5533280000000 1.0
C      1  0.4651390000000  0.4956010000000  0.4519430000000 1.0
C      1  0.5246780000000  0.4233910000000  0.4418250000000 1.0
C      1  0.5387430000000  0.5424080000000  0.4413890000000 1.0
C      1  0.4433370000000  0.4587940000000  0.5529990000000 1.0
C      1  0.4946920000000  0.4351290000000  0.4878290000000 1.0
C      1  0.5095090000000  0.5554840000000  0.5554580000000 1.0
C      1  0.5144120000000  0.5434180000000  0.5157990000000 1.0
C      1  0.4821820000000  0.5719160000000  0.4826830000000 1.0
C      1  0.4407980000000  0.4798390000000  0.5258980000000 1.0
C      1  0.5526090000000  0.4709640000000  0.5676790000000 1.0
C      1  0.5113950000000  0.5558990000000  0.4895060000000 1.0
C      1  0.5719510000000  0.5549630000000  0.5122860000000 1.0
C      1  0.4995710000000  0.4495930000000  0.5421570000000 1.0
C      1  0.5818450000000  0.4376990000000  0.4307980000000 1.0
C      1  0.5793320000000  0.5244660000000  0.5190620000000 1.0
C      1  0.5521270000000  0.5603340000000  0.4637850000000 1.0
C      1  0.4828450000000  0.5254790000000  0.4189010000000 1.0
C      1  0.4537390000000  0.5486110000000  0.4859450000000 1.0
C      1  0.4964020000000  0.5250290000000  0.5630020000000 1.0
C      1  0.4306780000000  0.4900780000000  0.5567020000000 1.0
C      1  0.5234090000000  0.4319930000000  0.5057750000000 1.0
C      1  0.4211690000000  0.4786850000000  0.4814410000000 1.0
C      1  0.4530230000000  0.5733380000000  0.4652350000000 1.0
C      1  0.4157820000000  0.5058120000000  0.4731160000000 1.0
C      1  0.4900070000000  0.4797620000000  0.5420730000000 1.0
C      1  0.5339030000000  0.5753860000000  0.4776440000000 1.0
C      1  0.5142360000000  0.4997640000000  0.4954100000000 1.0
C      1  0.4645530000000  0.4849720000000  0.5575530000000 1.0
C      1  0.4009840000000  0.5105580000000  0.4510100000000 1.0
C      1  0.5406090000000  0.4420410000000  0.4550720000000 1.0
C      1  0.5884910000000  0.5001500000000  0.5240460000000 1.0
C      1  0.4633470000000  0.5227340000000  0.5040910000000 1.0
C      1  0.5540580000000  0.4814040000000  0.5163330000000 1.0
C      1  0.4353760000000  0.5352480000000  0.5180920000000 1.0
C      1  0.5536340000000  0.4994770000000  0.5755120000000 1.0
C      1  0.5398110000000  0.4816600000000  0.4903390000000 1.0
C      1  0.4669890000000  0.5125330000000  0.5723080000000 1.0
C      1  0.4882900000000  0.4527460000000  0.5737050000000 1.0
C      1  0.5315540000000  0.4483740000000  0.5539810000000 1.0
C      1  0.4620480000000  0.4503980000000  0.5774970000000 1.0
C      1  0.5082290000000  0.5458030000000  0.4288410000000 1.0
C      1  0.4432880000000  0.4571920000000  0.4726270000000 1.0
END
