TITL C-2847959-7740-302 -0.00590667067266771 125000 -340.726456982337 0 0 62 (C1) n - 1
REM
REM in /home/bkarasulu/work/CARBON/AIRSS/Generating-Clusters/AIREBO/with-SteepDescent/Only-C1/SD-CG-opt/Try1-1.4A-POS3A/HFTN-CG
REM
REM
REM
REM
REM
REM ./C.cell (11c1c37f851c82e70ff6c80c92926a4b)
REM
REM compiler GCC version 9.2.1 20190827 (Red Hat 9.2.1-1)
REM options -cpp -mtune=generic -march=x86-64 -g -O0 -fpre-include=/usr/include/finclude/math-vector-fortran.h
REM seed 261461875 652111027 -1762195179 873979447 316630513 585769477 -2041586299 -1722168678 -689467890 405862661 628764184 -1429154509 -1840581114 -1838746718 2015234197 -111627221 -1796082110 1949215353 -1199961881 -985489408 -1597837664 1313045037 -1303758479 1608229747 1669230313 -583225004 -1111224751 -837200095 -2091704350 -992173011 -753015060 173317256 -1276975687
REM
CELL 1.54180   50.00000   50.00000   50.00000   90.00000   90.00000   90.00000
LATT -1
SFAC C  
C      1  0.4885310000000  0.4565770000000  0.5056830000000 1.0
C      1  0.4485570000000  0.5513910000000  0.5065170000000 1.0
C      1  0.5040940000000  0.4496210000000  0.5354300000000 1.0
C      1  0.4684750000000  0.5191680000000  0.5186860000000 1.0
C      1  0.4627550000000  0.4810360000000  0.4719800000000 1.0
C      1  0.4584110000000  0.4452680000000  0.5492710000000 1.0
C      1  0.5465340000000  0.5507470000000  0.5487130000000 1.0
C      1  0.4739590000000  0.5030880000000  0.5555990000000 1.0
C      1  0.4478460000000  0.5101420000000  0.4696350000000 1.0
C      1  0.4293590000000  0.5217520000000  0.5250590000000 1.0
C      1  0.4838810000000  0.5129600000000  0.4903620000000 1.0
C      1  0.5459330000000  0.4882560000000  0.4589540000000 1.0
C      1  0.4792730000000  0.5316950000000  0.4384220000000 1.0
C      1  0.5331250000000  0.5110740000000  0.5507060000000 1.0
C      1  0.4774930000000  0.4973180000000  0.4362830000000 1.0
C      1  0.5298840000000  0.4605220000000  0.4616180000000 1.0
C      1  0.5084640000000  0.4691900000000  0.4852460000000 1.0
C      1  0.5463910000000  0.5565680000000  0.4940630000000 1.0
C      1  0.4395630000000  0.4626750000000  0.5287880000000 1.0
C      1  0.4967250000000  0.5644870000000  0.4980100000000 1.0
C      1  0.4764180000000  0.4022580000000  0.4912640000000 1.0
C      1  0.4491870000000  0.5158580000000  0.4380420000000 1.0
C      1  0.4800040000000  0.4659240000000  0.4393750000000 1.0
C      1  0.5253820000000  0.5668960000000  0.5105710000000 1.0
C      1  0.5581730000000  0.5253370000000  0.5330570000000 1.0
C      1  0.4825340000000  0.5478210000000  0.4645530000000 1.0
C      1  0.5321920000000  0.5372590000000  0.4441020000000 1.0
C      1  0.5054080000000  0.4560710000000  0.4409290000000 1.0
C      1  0.4939730000000  0.4929690000000  0.4657160000000 1.0
C      1  0.5817710000000  0.5056720000000  0.5363850000000 1.0
C      1  0.4601200000000  0.4736210000000  0.5040000000000 1.0
C      1  0.5297860000000  0.4859410000000  0.5026750000000 1.0
C      1  0.5123590000000  0.5429460000000  0.4783030000000 1.0
C      1  0.4796120000000  0.4324440000000  0.5361990000000 1.0
C      1  0.5387620000000  0.5573050000000  0.4641540000000 1.0
C      1  0.5490900000000  0.4395850000000  0.4728320000000 1.0
C      1  0.4535960000000  0.5284840000000  0.5470700000000 1.0
C      1  0.4604360000000  0.5364290000000  0.4835170000000 1.0
C      1  0.4359240000000  0.4426500000000  0.4710830000000 1.0
C      1  0.5544510000000  0.4691880000000  0.5126680000000 1.0
C      1  0.4433360000000  0.5033690000000  0.5026470000000 1.0
C      1  0.5063260000000  0.5070620000000  0.5148950000000 1.0
C      1  0.5603670000000  0.4448190000000  0.4946810000000 1.0
C      1  0.4845450000000  0.5792140000000  0.4698830000000 1.0
C      1  0.5226560000000  0.4587320000000  0.5521050000000 1.0
C      1  0.5077880000000  0.5261430000000  0.4271240000000 1.0
C      1  0.4379370000000  0.4486930000000  0.4974490000000 1.0
C      1  0.5385390000000  0.4856660000000  0.5605220000000 1.0
C      1  0.5031290000000  0.5157320000000  0.5433450000000 1.0
C      1  0.5233640000000  0.5176750000000  0.4896650000000 1.0
C      1  0.4779530000000  0.5518370000000  0.5189700000000 1.0
C      1  0.4612770000000  0.4773470000000  0.5507420000000 1.0
C      1  0.5239220000000  0.5613980000000  0.5379490000000 1.0
C      1  0.4786280000000  0.5345790000000  0.5684080000000 1.0
C      1  0.5807670000000  0.4838940000000  0.5239490000000 1.0
C      1  0.5523620000000  0.4631530000000  0.5429440000000 1.0
C      1  0.5586440000000  0.5315730000000  0.5018070000000 1.0
C      1  0.5215890000000  0.5057710000000  0.4504200000000 1.0
C      1  0.4811470000000  0.4233890000000  0.5069950000000 1.0
C      1  0.4571960000000  0.4544750000000  0.4554040000000 1.0
C      1  0.4974000000000  0.5479260000000  0.5445940000000 1.0
C      1  0.5526970000000  0.5093580000000  0.4799850000000 1.0
END
