TITL C-2847958-8115-673 -0.000152154084993136 125000 -580.988795566363 0 0 105 (C1) n - 1
REM
REM in /home/bkarasulu/work/CARBON/AIRSS/Generating-Clusters/AIREBO/with-SteepDescent/Only-C1/SD-CG-opt/Try1-1.4A-POS3A/HFTN-CG
REM
REM
REM
REM
REM
REM ./C.cell (11c1c37f851c82e70ff6c80c92926a4b)
REM
REM compiler GCC version 9.2.1 20190827 (Red Hat 9.2.1-1)
REM options -cpp -mtune=generic -march=x86-64 -g -O0 -fpre-include=/usr/include/finclude/math-vector-fortran.h
REM seed 1488764604 -1691584772 2101720554 1182407278 -1394056087 -1768688737 -1887124217 1805131235 1748654113 1707667768 1638071469 -1854704925 259103084 -1737257447 -671330142 1948819087 -105159789 -1153158916 665414112 -1928142800 168134641 -329345266 946485291 -1363363847 -1124477816 -853842227 299290171 -1213473312 265869376 -1120933923 1046400043 606128537 1424650603
REM
CELL 1.54180   50.00000   50.00000   50.00000   90.00000   90.00000   90.00000
LATT -1
SFAC C  
C      1  0.4915230000000  0.5847270000000  0.4706260000000 1.0
C      1  0.4841510000000  0.4521990000000  0.5128280000000 1.0
C      1  0.5006970000000  0.4217380000000  0.4903490000000 1.0
C      1  0.4861850000000  0.4685020000000  0.4830540000000 1.0
C      1  0.5112670000000  0.4592770000000  0.5734690000000 1.0
C      1  0.5675090000000  0.4443610000000  0.4552490000000 1.0
C      1  0.5461250000000  0.5589750000000  0.5490170000000 1.0
C      1  0.5141820000000  0.4604750000000  0.4679930000000 1.0
C      1  0.4387660000000  0.5053170000000  0.4272200000000 1.0
C      1  0.4328400000000  0.5077660000000  0.4960400000000 1.0
C      1  0.4595000000000  0.4506730000000  0.4427510000000 1.0
C      1  0.5393390000000  0.5062810000000  0.5062450000000 1.0
C      1  0.4584920000000  0.5305070000000  0.4219390000000 1.0
C      1  0.5793290000000  0.4933140000000  0.5019800000000 1.0
C      1  0.5215280000000  0.6159410000000  0.4964080000000 1.0
C      1  0.5122560000000  0.4218200000000  0.5595320000000 1.0
C      1  0.4818440000000  0.5729640000000  0.4420250000000 1.0
C      1  0.4195380000000  0.5340240000000  0.4802660000000 1.0
C      1  0.5696110000000  0.5244130000000  0.5250700000000 1.0
C      1  0.4435670000000  0.4514470000000  0.4903430000000 1.0
C      1  0.5006150000000  0.4852740000000  0.5345750000000 1.0
C      1  0.4590340000000  0.5365500000000  0.4850590000000 1.0
C      1  0.5107210000000  0.4828280000000  0.5899330000000 1.0
C      1  0.4116310000000  0.5016950000000  0.4713450000000 1.0
C      1  0.4585060000000  0.4694190000000  0.4675180000000 1.0
C      1  0.5394940000000  0.4316530000000  0.5652100000000 1.0
C      1  0.4867350000000  0.4839650000000  0.4191780000000 1.0
C      1  0.5584630000000  0.4531630000000  0.5640450000000 1.0
C      1  0.5423270000000  0.5371170000000  0.4952250000000 1.0
C      1  0.5832300000000  0.5131800000000  0.4843330000000 1.0
C      1  0.4640540000000  0.4656690000000  0.4186070000000 1.0
C      1  0.5278230000000  0.5300010000000  0.5496990000000 1.0
C      1  0.5220390000000  0.4105440000000  0.5143400000000 1.0
C      1  0.5016930000000  0.5111610000000  0.5529480000000 1.0
C      1  0.5175030000000  0.5645830000000  0.5326000000000 1.0
C      1  0.4264490000000  0.5435600000000  0.5122000000000 1.0
C      1  0.5640030000000  0.5333260000000  0.4693060000000 1.0
C      1  0.5584380000000  0.5227250000000  0.4399800000000 1.0
C      1  0.5138300000000  0.5615550000000  0.4402460000000 1.0
C      1  0.4895380000000  0.5591890000000  0.5805060000000 1.0
C      1  0.5159310000000  0.5574780000000  0.5658130000000 1.0
C      1  0.4576930000000  0.4262390000000  0.4567990000000 1.0
C      1  0.4164620000000  0.4725630000000  0.4882120000000 1.0
C      1  0.5452790000000  0.5066830000000  0.5386070000000 1.0
C      1  0.5179390000000  0.5593400000000  0.5039100000000 1.0
C      1  0.4712900000000  0.4745910000000  0.5464590000000 1.0
C      1  0.5263770000000  0.4649120000000  0.5433960000000 1.0
C      1  0.4348380000000  0.4628110000000  0.5212490000000 1.0
C      1  0.4655220000000  0.4969410000000  0.5664290000000 1.0
C      1  0.4511820000000  0.5212530000000  0.5558780000000 1.0
C      1  0.4404480000000  0.4957980000000  0.4579840000000 1.0
C      1  0.5684890000000  0.4907400000000  0.4334670000000 1.0
C      1  0.5444950000000  0.4970100000000  0.4562920000000 1.0
C      1  0.5476500000000  0.4852110000000  0.5604820000000 1.0
C      1  0.5596420000000  0.4434220000000  0.4812760000000 1.0
C      1  0.5525980000000  0.4538260000000  0.5247720000000 1.0
C      1  0.4695670000000  0.5794610000000  0.4961250000000 1.0
C      1  0.4165950000000  0.4893470000000  0.5178930000000 1.0
C      1  0.4853200000000  0.5242650000000  0.5124800000000 1.0
C      1  0.4413790000000  0.5513430000000  0.4607950000000 1.0
C      1  0.5207120000000  0.5890390000000  0.4875710000000 1.0
C      1  0.4728880000000  0.5886980000000  0.5256080000000 1.0
C      1  0.4873990000000  0.5718460000000  0.5417720000000 1.0
C      1  0.4915690000000  0.5014150000000  0.5809190000000 1.0
C      1  0.5836780000000  0.4942270000000  0.5314910000000 1.0
C      1  0.5350810000000  0.4840570000000  0.4808410000000 1.0
C      1  0.4757970000000  0.4220550000000  0.5216090000000 1.0
C      1  0.5322000000000  0.5382360000000  0.4271290000000 1.0
C      1  0.5021900000000  0.5164680000000  0.4625680000000 1.0
C      1  0.4539200000000  0.5286910000000  0.5238050000000 1.0
C      1  0.5294080000000  0.4398760000000  0.4885820000000 1.0
C      1  0.5779860000000  0.4678070000000  0.5416320000000 1.0
C      1  0.4595330000000  0.5547800000000  0.4374740000000 1.0
C      1  0.5557760000000  0.4634460000000  0.4377310000000 1.0
C      1  0.4358990000000  0.4466840000000  0.5457560000000 1.0
C      1  0.4250170000000  0.5165240000000  0.5341310000000 1.0
C      1  0.5104690000000  0.5132600000000  0.4924080000000 1.0
C      1  0.5007890000000  0.5463240000000  0.4643530000000 1.0
C      1  0.4666710000000  0.4258430000000  0.4890330000000 1.0
C      1  0.5377090000000  0.4933840000000  0.5893860000000 1.0
C      1  0.5462350000000  0.4225380000000  0.5202820000000 1.0
C      1  0.4629020000000  0.4768650000000  0.5143920000000 1.0
C      1  0.4918570000000  0.4379550000000  0.5733030000000 1.0
C      1  0.5142210000000  0.4517570000000  0.5144910000000 1.0
C      1  0.4648860000000  0.5041510000000  0.4941830000000 1.0
C      1  0.5025800000000  0.4116490000000  0.5347990000000 1.0
C      1  0.5592100000000  0.4711640000000  0.4974640000000 1.0
C      1  0.5590210000000  0.5640210000000  0.4670100000000 1.0
C      1  0.4666250000000  0.5479550000000  0.5661840000000 1.0
C      1  0.5070880000000  0.4283500000000  0.4576160000000 1.0
C      1  0.4675810000000  0.4451850000000  0.5582720000000 1.0
C      1  0.4722990000000  0.5062030000000  0.4610520000000 1.0
C      1  0.4406820000000  0.5661010000000  0.4910840000000 1.0
C      1  0.5517300000000  0.5756870000000  0.4915820000000 1.0
C      1  0.4893000000000  0.5381740000000  0.5428110000000 1.0
C      1  0.4526870000000  0.4194230000000  0.5420550000000 1.0
C      1  0.5585930000000  0.5559190000000  0.5184190000000 1.0
C      1  0.5274180000000  0.4636150000000  0.4376840000000 1.0
C      1  0.4413190000000  0.4819960000000  0.4104950000000 1.0
C      1  0.5442860000000  0.5717520000000  0.4451940000000 1.0
C      1  0.4999260000000  0.4878550000000  0.5049010000000 1.0
C      1  0.4886380000000  0.5515510000000  0.4924630000000 1.0
C      1  0.5141030000000  0.4836440000000  0.4240960000000 1.0
C      1  0.5207690000000  0.5098810000000  0.4385020000000 1.0
C      1  0.4782740000000  0.5088380000000  0.4302930000000 1.0
END
