TITL C-2848495-5024-520 -0.00218754121280423 125000 -1030.51221357058 0 0 193 (C1) n - 1
REM
REM in /home/bkarasulu/work/CARBON/AIRSS/Generating-Clusters/AIREBO/with-SteepDescent/Only-C1/SD-CG-opt/Try1-1.4A-POS3A/HFTN-CG
REM
REM
REM
REM
REM
REM ./C.cell (11c1c37f851c82e70ff6c80c92926a4b)
REM
REM compiler GCC version 9.2.1 20190827 (Red Hat 9.2.1-1)
REM options -cpp -mtune=generic -march=x86-64 -g -O0 -fpre-include=/usr/include/finclude/math-vector-fortran.h
REM seed -1285622820 569357070 -179925590 2111022825 76521072 -1249272016 -1378677719 -486389305 -665045709 65055579 1658991637 -357020768 434392265 1153767638 -1174570568 432346685 860021183 -378340176 1528228342 -1045021418 -2028634641 1770807666 1894472804 -348948932 -461064844 -791979226 -165926244 513265739 1782417935 -2137505366 447079415 2058813815 915641219
REM
CELL 1.54180   50.00000   50.00000   50.00000   90.00000   90.00000   90.00000
LATT -1
SFAC C  
C      1  0.4534370000000  0.5813190000000  0.4488770000000 1.0
C      1  0.4103230000000  0.5080400000000  0.5332230000000 1.0
C      1  0.4452210000000  0.5707900000000  0.5776970000000 1.0
C      1  0.5565920000000  0.5429880000000  0.5423840000000 1.0
C      1  0.5082430000000  0.6011000000000  0.5338540000000 1.0
C      1  0.5069370000000  0.4268850000000  0.4436600000000 1.0
C      1  0.5287960000000  0.5338650000000  0.5280420000000 1.0
C      1  0.4656520000000  0.5212960000000  0.4101740000000 1.0
C      1  0.4760640000000  0.5247810000000  0.4641760000000 1.0
C      1  0.5680380000000  0.5861010000000  0.4613680000000 1.0
C      1  0.5015470000000  0.4510540000000  0.5672770000000 1.0
C      1  0.5341320000000  0.4993430000000  0.6058410000000 1.0
C      1  0.5166930000000  0.4816350000000  0.5690670000000 1.0
C      1  0.5185820000000  0.4522560000000  0.5959080000000 1.0
C      1  0.6092020000000  0.5341700000000  0.5005890000000 1.0
C      1  0.4604740000000  0.5026270000000  0.4750670000000 1.0
C      1  0.5134080000000  0.5172700000000  0.5516220000000 1.0
C      1  0.4066950000000  0.5660920000000  0.4931320000000 1.0
C      1  0.5426440000000  0.4456560000000  0.5727970000000 1.0
C      1  0.6063960000000  0.5136790000000  0.4341660000000 1.0
C      1  0.4000030000000  0.4775960000000  0.4474420000000 1.0
C      1  0.5861660000000  0.5383750000000  0.4404220000000 1.0
C      1  0.5702280000000  0.4898410000000  0.5919620000000 1.0
C      1  0.5087030000000  0.4451710000000  0.4689380000000 1.0
C      1  0.5100110000000  0.4398410000000  0.5027070000000 1.0
C      1  0.4888980000000  0.5359210000000  0.5262840000000 1.0
C      1  0.5655490000000  0.4084130000000  0.4765510000000 1.0
C      1  0.4811390000000  0.5910790000000  0.5063360000000 1.0
C      1  0.3819780000000  0.4546560000000  0.5014620000000 1.0
C      1  0.5266720000000  0.5904630000000  0.5569460000000 1.0
C      1  0.5249630000000  0.4773480000000  0.3750340000000 1.0
C      1  0.5820540000000  0.5320270000000  0.5590540000000 1.0
C      1  0.4611840000000  0.4081500000000  0.5279050000000 1.0
C      1  0.5866470000000  0.4418640000000  0.5270580000000 1.0
C      1  0.4877370000000  0.4801640000000  0.4575930000000 1.0
C      1  0.5708940000000  0.4805650000000  0.5170820000000 1.0
C      1  0.4497530000000  0.5456640000000  0.5001220000000 1.0
C      1  0.4933930000000  0.4718240000000  0.6015200000000 1.0
C      1  0.5093190000000  0.4640150000000  0.4198570000000 1.0
C      1  0.4656320000000  0.4688390000000  0.4006590000000 1.0
C      1  0.5191980000000  0.5030200000000  0.4820120000000 1.0
C      1  0.4337040000000  0.5721380000000  0.5047950000000 1.0
C      1  0.6023670000000  0.5084840000000  0.5648770000000 1.0
C      1  0.6130780000000  0.4656430000000  0.4546280000000 1.0
C      1  0.4381270000000  0.5352990000000  0.4712360000000 1.0
C      1  0.4840010000000  0.5029210000000  0.5236970000000 1.0
C      1  0.5570270000000  0.4330290000000  0.4583880000000 1.0
C      1  0.3926480000000  0.4800730000000  0.5104460000000 1.0
C      1  0.4742440000000  0.6077420000000  0.4783310000000 1.0
C      1  0.5552090000000  0.4354450000000  0.4245170000000 1.0
C      1  0.4951190000000  0.5741450000000  0.4326560000000 1.0
C      1  0.5718530000000  0.5061560000000  0.5394650000000 1.0
C      1  0.5354490000000  0.3975130000000  0.4880220000000 1.0
C      1  0.6134740000000  0.5039520000000  0.5095470000000 1.0
C      1  0.4963200000000  0.5097800000000  0.4432180000000 1.0
C      1  0.5466050000000  0.5750210000000  0.4398310000000 1.0
C      1  0.5567850000000  0.5479550000000  0.4261110000000 1.0
C      1  0.5617130000000  0.5243490000000  0.4021420000000 1.0
C      1  0.4834300000000  0.5974500000000  0.4489030000000 1.0
C      1  0.6075050000000  0.4633670000000  0.5431710000000 1.0
C      1  0.3856590000000  0.5016850000000  0.4926770000000 1.0
C      1  0.4519480000000  0.4086060000000  0.4444010000000 1.0
C      1  0.3987680000000  0.5330340000000  0.4941110000000 1.0
C      1  0.4129650000000  0.5549830000000  0.5457810000000 1.0
C      1  0.5092120000000  0.5588170000000  0.5341840000000 1.0
C      1  0.5050800000000  0.5717930000000  0.5061990000000 1.0
C      1  0.4638790000000  0.5316980000000  0.5941240000000 1.0
C      1  0.4451210000000  0.4223840000000  0.4166780000000 1.0
C      1  0.5010350000000  0.5049750000000  0.6025820000000 1.0
C      1  0.4669850000000  0.4968600000000  0.5510910000000 1.0
C      1  0.4652760000000  0.5616510000000  0.5956490000000 1.0
C      1  0.5320220000000  0.3941990000000  0.5216880000000 1.0
C      1  0.4740650000000  0.5432630000000  0.5534140000000 1.0
C      1  0.5312720000000  0.4625080000000  0.4410050000000 1.0
C      1  0.4760630000000  0.5969420000000  0.5384630000000 1.0
C      1  0.5252130000000  0.4278480000000  0.4156370000000 1.0
C      1  0.5197250000000  0.6003890000000  0.5018490000000 1.0
C      1  0.5510260000000  0.5171630000000  0.5853010000000 1.0
C      1  0.5335120000000  0.5400010000000  0.5671780000000 1.0
C      1  0.5604540000000  0.5086190000000  0.4322610000000 1.0
C      1  0.5351980000000  0.5295620000000  0.4960270000000 1.0
C      1  0.4605620000000  0.5488910000000  0.4515910000000 1.0
C      1  0.5360250000000  0.5956970000000  0.4657670000000 1.0
C      1  0.4520590000000  0.4322480000000  0.5080090000000 1.0
C      1  0.4355770000000  0.5641450000000  0.4244160000000 1.0
C      1  0.5129180000000  0.5514460000000  0.4825820000000 1.0
C      1  0.5763220000000  0.4542650000000  0.4438180000000 1.0
C      1  0.4536680000000  0.4735230000000  0.5328860000000 1.0
C      1  0.4119890000000  0.4858320000000  0.5551400000000 1.0
C      1  0.5019760000000  0.4209100000000  0.5527840000000 1.0
C      1  0.5083930000000  0.4867240000000  0.5375120000000 1.0
C      1  0.5686180000000  0.4654640000000  0.5460910000000 1.0
C      1  0.4265730000000  0.4817990000000  0.4767640000000 1.0
C      1  0.4684880000000  0.4354840000000  0.4007600000000 1.0
C      1  0.4766970000000  0.4004370000000  0.4578480000000 1.0
C      1  0.5591470000000  0.5721430000000  0.5250520000000 1.0
C      1  0.4202800000000  0.5746160000000  0.4523920000000 1.0
C      1  0.4556720000000  0.4817900000000  0.5930380000000 1.0
C      1  0.5564180000000  0.5927350000000  0.5447520000000 1.0
C      1  0.4985510000000  0.4252520000000  0.3943800000000 1.0
C      1  0.4968860000000  0.5185090000000  0.4976180000000 1.0
C      1  0.5196560000000  0.4511300000000  0.3914810000000 1.0
C      1  0.4226030000000  0.5523960000000  0.5730570000000 1.0
C      1  0.4577920000000  0.4604140000000  0.4389520000000 1.0
C      1  0.4202900000000  0.4697550000000  0.5275700000000 1.0
C      1  0.5384060000000  0.4828750000000  0.4624270000000 1.0
C      1  0.3831630000000  0.4925400000000  0.4652300000000 1.0
C      1  0.5300840000000  0.5333760000000  0.4107650000000 1.0
C      1  0.5185520000000  0.5612750000000  0.4405670000000 1.0
C      1  0.5503160000000  0.5234760000000  0.4596040000000 1.0
C      1  0.5483390000000  0.4115840000000  0.5366190000000 1.0
C      1  0.4687220000000  0.4544010000000  0.4691930000000 1.0
C      1  0.4908480000000  0.5715160000000  0.5928640000000 1.0
C      1  0.5442390000000  0.4956780000000  0.4047720000000 1.0
C      1  0.4831170000000  0.4855250000000  0.5733430000000 1.0
C      1  0.5874300000000  0.4944350000000  0.6168980000000 1.0
C      1  0.4338210000000  0.4372330000000  0.4456040000000 1.0
C      1  0.5458230000000  0.4694480000000  0.5970520000000 1.0
C      1  0.4524440000000  0.5053190000000  0.6085300000000 1.0
C      1  0.4792200000000  0.4980610000000  0.3900850000000 1.0
C      1  0.4361220000000  0.4608750000000  0.4988810000000 1.0
C      1  0.4246910000000  0.4391530000000  0.5417340000000 1.0
C      1  0.4921340000000  0.4129000000000  0.4921690000000 1.0
C      1  0.4672200000000  0.4505400000000  0.5965840000000 1.0
C      1  0.4155250000000  0.4868210000000  0.4253950000000 1.0
C      1  0.6008560000000  0.5301740000000  0.4699810000000 1.0
C      1  0.4349950000000  0.5246190000000  0.5781950000000 1.0
C      1  0.5248570000000  0.4639210000000  0.5215870000000 1.0
C      1  0.5393150000000  0.4531810000000  0.4789760000000 1.0
C      1  0.4847980000000  0.4625180000000  0.5411870000000 1.0
C      1  0.4391270000000  0.5188860000000  0.5187660000000 1.0
C      1  0.5476960000000  0.5843400000000  0.4956400000000 1.0
C      1  0.4242930000000  0.5112840000000  0.4891250000000 1.0
C      1  0.4001180000000  0.5361270000000  0.5279770000000 1.0
C      1  0.4507860000000  0.5225870000000  0.5506270000000 1.0
C      1  0.4654810000000  0.4252320000000  0.4780860000000 1.0
C      1  0.5094750000000  0.4021290000000  0.4668410000000 1.0
C      1  0.4491830000000  0.5966660000000  0.4972630000000 1.0
C      1  0.4549310000000  0.5511260000000  0.4021110000000 1.0
C      1  0.4880430000000  0.4863890000000  0.4199470000000 1.0
C      1  0.5417490000000  0.4277720000000  0.5010140000000 1.0
C      1  0.5191260000000  0.5324840000000  0.4550400000000 1.0
C      1  0.4843400000000  0.3963720000000  0.5155130000000 1.0
C      1  0.5682740000000  0.5518000000000  0.4641100000000 1.0
C      1  0.4205870000000  0.4996770000000  0.5832900000000 1.0
C      1  0.4546340000000  0.6164180000000  0.5218470000000 1.0
C      1  0.5703360000000  0.4856890000000  0.4553460000000 1.0
C      1  0.5670730000000  0.4323150000000  0.5531710000000 1.0
C      1  0.5822630000000  0.5280630000000  0.5156140000000 1.0
C      1  0.5440440000000  0.4781900000000  0.5015240000000 1.0
C      1  0.4322810000000  0.5718580000000  0.5343410000000 1.0
C      1  0.5900930000000  0.5030420000000  0.4854350000000 1.0
C      1  0.4579200000000  0.4936690000000  0.5058170000000 1.0
C      1  0.5890300000000  0.5569720000000  0.5757560000000 1.0
C      1  0.4747650000000  0.5570940000000  0.4253240000000 1.0
C      1  0.4145470000000  0.4523030000000  0.4648220000000 1.0
C      1  0.4911750000000  0.5243510000000  0.5763730000000 1.0
C      1  0.4597720000000  0.5739300000000  0.5498450000000 1.0
C      1  0.5583890000000  0.5060720000000  0.4878430000000 1.0
C      1  0.6019180000000  0.4895090000000  0.4453920000000 1.0
C      1  0.4714510000000  0.4217470000000  0.5898000000000 1.0
C      1  0.4366290000000  0.4697590000000  0.4140270000000 1.0
C      1  0.5873340000000  0.4788910000000  0.5681330000000 1.0
C      1  0.4845740000000  0.4454850000000  0.4269720000000 1.0
C      1  0.4997290000000  0.5237740000000  0.4124070000000 1.0
C      1  0.5466410000000  0.5701700000000  0.5757750000000 1.0
C      1  0.4288430000000  0.4672100000000  0.5780740000000 1.0
C      1  0.5133860000000  0.4998970000000  0.3923580000000 1.0
C      1  0.6038410000000  0.4945490000000  0.5355630000000 1.0
C      1  0.4023870000000  0.4381940000000  0.4905130000000 1.0
C      1  0.4240780000000  0.5369060000000  0.4411220000000 1.0
C      1  0.4185800000000  0.4270010000000  0.5107840000000 1.0
C      1  0.4681250000000  0.4182360000000  0.5562660000000 1.0
C      1  0.5060170000000  0.3957460000000  0.5327760000000 1.0
C      1  0.5174560000000  0.5140170000000  0.6293740000000 1.0
C      1  0.5622300000000  0.5468530000000  0.5032360000000 1.0
C      1  0.4473700000000  0.4430670000000  0.5668630000000 1.0
C      1  0.5781770000000  0.5720600000000  0.4895560000000 1.0
C      1  0.5089810000000  0.5635530000000  0.5678520000000 1.0
C      1  0.4013650000000  0.5488140000000  0.4640890000000 1.0
C      1  0.5752680000000  0.4331610000000  0.4990080000000 1.0
C      1  0.5294800000000  0.4383590000000  0.5423090000000 1.0
C      1  0.5800640000000  0.4726980000000  0.4852860000000 1.0
C      1  0.4773060000000  0.4700190000000  0.4945930000000 1.0
C      1  0.4797380000000  0.4485760000000  0.5154870000000 1.0
C      1  0.5059770000000  0.4747480000000  0.4836550000000 1.0
C      1  0.5926080000000  0.4448710000000  0.4721560000000 1.0
C      1  0.5463190000000  0.4961380000000  0.5598370000000 1.0
C      1  0.4385870000000  0.5115180000000  0.4285530000000 1.0
C      1  0.4453990000000  0.4892110000000  0.4517580000000 1.0
C      1  0.4798910000000  0.5461730000000  0.4887240000000 1.0
C      1  0.5490750000000  0.4676430000000  0.4154590000000 1.0
C      1  0.5071110000000  0.6083400000000  0.4711830000000 1.0
END
