TITL C-2848504-8560-672 0.000429780170348574 125000 -846.217857506014 0 0 158 (C1) n - 1
REM
REM in /home/bkarasulu/work/CARBON/AIRSS/Generating-Clusters/AIREBO/with-SteepDescent/Only-C1/SD-CG-opt/Try1-1.4A-POS3A/HFTN-CG
REM
REM
REM
REM
REM
REM ./C.cell (11c1c37f851c82e70ff6c80c92926a4b)
REM
REM compiler GCC version 9.2.1 20190827 (Red Hat 9.2.1-1)
REM options -cpp -mtune=generic -march=x86-64 -g -O0 -fpre-include=/usr/include/finclude/math-vector-fortran.h
REM seed -1159174780 2040729958 -630334308 1148081663 -1901278486 1352953209 820065808 -352020337 1469381157 309302401 886747087 -869413208 1134337729 -577122544 774840346 1618260981 -32563048 1920194814 -87986921 763543596 1871787976 -663604986 2017173008 -1955604370 -852560931 1989266097 52951345 -1985452583 -1843664985 -1102622351 128479590 -1683520592 -1285694005
REM
CELL 1.54180   50.00000   50.00000   50.00000   90.00000   90.00000   90.00000
LATT -1
SFAC C  
C      1  0.5676240000000  0.4125800000000  0.5107320000000 1.0
C      1  0.4164810000000  0.5108070000000  0.4272580000000 1.0
C      1  0.4821680000000  0.5409450000000  0.6054850000000 1.0
C      1  0.5430580000000  0.4702850000000  0.4164090000000 1.0
C      1  0.4217530000000  0.5683450000000  0.4957770000000 1.0
C      1  0.5381780000000  0.4049250000000  0.4626800000000 1.0
C      1  0.4938260000000  0.4458830000000  0.5220180000000 1.0
C      1  0.4230850000000  0.5250490000000  0.5848560000000 1.0
C      1  0.5768780000000  0.5055060000000  0.4563340000000 1.0
C      1  0.4198090000000  0.4778080000000  0.5620450000000 1.0
C      1  0.5175130000000  0.5296010000000  0.4260230000000 1.0
C      1  0.4267730000000  0.4801950000000  0.4839150000000 1.0
C      1  0.4920270000000  0.5728160000000  0.5297200000000 1.0
C      1  0.4456820000000  0.5385400000000  0.4857640000000 1.0
C      1  0.5500470000000  0.4419760000000  0.4257190000000 1.0
C      1  0.4578480000000  0.4553740000000  0.5871600000000 1.0
C      1  0.4942210000000  0.5422730000000  0.5446990000000 1.0
C      1  0.4958960000000  0.5113900000000  0.5589080000000 1.0
C      1  0.4359250000000  0.4644300000000  0.4205360000000 1.0
C      1  0.5906560000000  0.5015160000000  0.5350180000000 1.0
C      1  0.4749660000000  0.5115300000000  0.4835500000000 1.0
C      1  0.5404150000000  0.4791290000000  0.5539450000000 1.0
C      1  0.5349260000000  0.4925590000000  0.4838990000000 1.0
C      1  0.4150450000000  0.5222030000000  0.4868800000000 1.0
C      1  0.4093800000000  0.4432490000000  0.4673660000000 1.0
C      1  0.5565750000000  0.5150790000000  0.5589280000000 1.0
C      1  0.4717030000000  0.4712910000000  0.5173830000000 1.0
C      1  0.5057070000000  0.4107820000000  0.4534430000000 1.0
C      1  0.5693760000000  0.4397500000000  0.5546600000000 1.0
C      1  0.4792860000000  0.5938860000000  0.4914480000000 1.0
C      1  0.4463410000000  0.5525250000000  0.5470500000000 1.0
C      1  0.5100830000000  0.4618250000000  0.4889270000000 1.0
C      1  0.5365330000000  0.5082870000000  0.4537980000000 1.0
C      1  0.4537410000000  0.5442530000000  0.5159070000000 1.0
C      1  0.5558020000000  0.4932750000000  0.4319850000000 1.0
C      1  0.4380060000000  0.4571460000000  0.5334590000000 1.0
C      1  0.4894560000000  0.4893140000000  0.4622710000000 1.0
C      1  0.4698120000000  0.4208110000000  0.5581000000000 1.0
C      1  0.5838440000000  0.5539340000000  0.5156590000000 1.0
C      1  0.4707340000000  0.5586530000000  0.4746090000000 1.0
C      1  0.5649810000000  0.5159080000000  0.4102120000000 1.0
C      1  0.5202850000000  0.4502680000000  0.5726670000000 1.0
C      1  0.4982460000000  0.4031980000000  0.5131350000000 1.0
C      1  0.5108120000000  0.4771460000000  0.4387620000000 1.0
C      1  0.5552510000000  0.5169410000000  0.5254810000000 1.0
C      1  0.4903350000000  0.5162590000000  0.4415350000000 1.0
C      1  0.5012690000000  0.4262870000000  0.5577710000000 1.0
C      1  0.4901590000000  0.4338220000000  0.4347360000000 1.0
C      1  0.4727860000000  0.4719950000000  0.6042590000000 1.0
C      1  0.4500990000000  0.4702840000000  0.5628010000000 1.0
C      1  0.6052250000000  0.4968800000000  0.5103020000000 1.0
C      1  0.5325480000000  0.4381860000000  0.4645630000000 1.0
C      1  0.5101180000000  0.6025360000000  0.5664560000000 1.0
C      1  0.4050910000000  0.4557430000000  0.5068320000000 1.0
C      1  0.5139100000000  0.4098950000000  0.4857590000000 1.0
C      1  0.5420580000000  0.5283960000000  0.4019960000000 1.0
C      1  0.4067260000000  0.4557390000000  0.5467260000000 1.0
C      1  0.5607340000000  0.4858980000000  0.5304780000000 1.0
C      1  0.5869550000000  0.5367910000000  0.4650530000000 1.0
C      1  0.5270980000000  0.5821010000000  0.4840390000000 1.0
C      1  0.5565930000000  0.5663760000000  0.5592380000000 1.0
C      1  0.4352670000000  0.5344170000000  0.4410400000000 1.0
C      1  0.5378670000000  0.6003900000000  0.5250520000000 1.0
C      1  0.4146340000000  0.4303420000000  0.5115430000000 1.0
C      1  0.5189810000000  0.4444910000000  0.4348800000000 1.0
C      1  0.5626370000000  0.4521880000000  0.4724120000000 1.0
C      1  0.5819160000000  0.5513730000000  0.5430630000000 1.0
C      1  0.4495550000000  0.5286580000000  0.5690570000000 1.0
C      1  0.5366040000000  0.4404170000000  0.5457000000000 1.0
C      1  0.4578590000000  0.4278580000000  0.5814970000000 1.0
C      1  0.4645550000000  0.5769120000000  0.5582100000000 1.0
C      1  0.5687570000000  0.5281230000000  0.4994180000000 1.0
C      1  0.4758080000000  0.4176150000000  0.4950840000000 1.0
C      1  0.4810670000000  0.4729150000000  0.3945190000000 1.0
C      1  0.5166800000000  0.5097280000000  0.3985330000000 1.0
C      1  0.5112940000000  0.5276960000000  0.4657790000000 1.0
C      1  0.4627710000000  0.4341620000000  0.5294810000000 1.0
C      1  0.5140210000000  0.6050140000000  0.4623230000000 1.0
C      1  0.5534850000000  0.5667990000000  0.4933640000000 1.0
C      1  0.4449560000000  0.4237650000000  0.5040280000000 1.0
C      1  0.5197820000000  0.4352160000000  0.5028030000000 1.0
C      1  0.5563770000000  0.5127500000000  0.5924570000000 1.0
C      1  0.5654270000000  0.4980790000000  0.4838420000000 1.0
C      1  0.5122040000000  0.4802910000000  0.4060420000000 1.0
C      1  0.5166520000000  0.4863820000000  0.5088350000000 1.0
C      1  0.3950000000000  0.5036610000000  0.4781380000000 1.0
C      1  0.4685690000000  0.4418910000000  0.4006500000000 1.0
C      1  0.5259510000000  0.5766520000000  0.4514300000000 1.0
C      1  0.4662860000000  0.4648480000000  0.4626890000000 1.0
C      1  0.5991870000000  0.4679610000000  0.5062130000000 1.0
C      1  0.4863920000000  0.4565550000000  0.5534400000000 1.0
C      1  0.5026980000000  0.5709700000000  0.4994110000000 1.0
C      1  0.4427840000000  0.4882540000000  0.4586430000000 1.0
C      1  0.5645400000000  0.4188860000000  0.4781580000000 1.0
C      1  0.5718460000000  0.5603670000000  0.4654550000000 1.0
C      1  0.4682360000000  0.4593480000000  0.4298310000000 1.0
C      1  0.4998870000000  0.5584550000000  0.4567990000000 1.0
C      1  0.4851310000000  0.6043340000000  0.4634070000000 1.0
C      1  0.4776440000000  0.5649440000000  0.4358600000000 1.0
C      1  0.5188440000000  0.4663770000000  0.5325410000000 1.0
C      1  0.5997120000000  0.5175770000000  0.4900380000000 1.0
C      1  0.4182580000000  0.5068790000000  0.5574810000000 1.0
C      1  0.4911890000000  0.5779080000000  0.5752500000000 1.0
C      1  0.4504310000000  0.5250670000000  0.4120470000000 1.0
C      1  0.5282740000000  0.4704060000000  0.4634470000000 1.0
C      1  0.4877880000000  0.4914840000000  0.5924710000000 1.0
C      1  0.5896790000000  0.5132580000000  0.4260680000000 1.0
C      1  0.5132720000000  0.4094730000000  0.5359320000000 1.0
C      1  0.4196090000000  0.5493890000000  0.4672640000000 1.0
C      1  0.4801970000000  0.5269200000000  0.5200540000000 1.0
C      1  0.3952210000000  0.4710650000000  0.4788840000000 1.0
C      1  0.4927320000000  0.5395150000000  0.4912050000000 1.0
C      1  0.4227420000000  0.4825680000000  0.5167370000000 1.0
C      1  0.5667840000000  0.4690570000000  0.5015120000000 1.0
C      1  0.5110160000000  0.4829290000000  0.5706620000000 1.0
C      1  0.6055860000000  0.4452030000000  0.5219330000000 1.0
C      1  0.4540680000000  0.4231050000000  0.4214220000000 1.0
C      1  0.5673350000000  0.4319710000000  0.4461620000000 1.0
C      1  0.5424410000000  0.5375530000000  0.4799650000000 1.0
C      1  0.5429040000000  0.4108350000000  0.5332870000000 1.0
C      1  0.4761810000000  0.4090230000000  0.4644870000000 1.0
C      1  0.5535400000000  0.4518440000000  0.5795870000000 1.0
C      1  0.4547040000000  0.4214100000000  0.4505280000000 1.0
C      1  0.4630150000000  0.5006460000000  0.5125870000000 1.0
C      1  0.5278190000000  0.5266490000000  0.5273230000000 1.0
C      1  0.4716350000000  0.5924030000000  0.4410750000000 1.0
C      1  0.5089350000000  0.5124890000000  0.5180940000000 1.0
C      1  0.4754340000000  0.4864280000000  0.5476740000000 1.0
C      1  0.5847950000000  0.5784140000000  0.4998220000000 1.0
C      1  0.5235770000000  0.5713160000000  0.5658800000000 1.0
C      1  0.4718290000000  0.5401820000000  0.4259860000000 1.0
C      1  0.4617070000000  0.5015050000000  0.3953420000000 1.0
C      1  0.5253540000000  0.5535690000000  0.5388400000000 1.0
C      1  0.4861660000000  0.4443880000000  0.4806240000000 1.0
C      1  0.4260120000000  0.4860060000000  0.4336850000000 1.0
C      1  0.4210260000000  0.5500850000000  0.5244670000000 1.0
C      1  0.4395430000000  0.4372010000000  0.4734170000000 1.0
C      1  0.5090040000000  0.6017340000000  0.5355050000000 1.0
C      1  0.5471400000000  0.5444180000000  0.5834390000000 1.0
C      1  0.4750870000000  0.5199050000000  0.5844190000000 1.0
C      1  0.4471490000000  0.5131790000000  0.5399420000000 1.0
C      1  0.5543560000000  0.4840200000000  0.5840740000000 1.0
C      1  0.5552000000000  0.5697330000000  0.4410080000000 1.0
C      1  0.3938420000000  0.5159890000000  0.5378010000000 1.0
C      1  0.4584430000000  0.5154850000000  0.4559040000000 1.0
C      1  0.4775510000000  0.4912910000000  0.4223110000000 1.0
C      1  0.4872030000000  0.6133610000000  0.5150460000000 1.0
C      1  0.4523190000000  0.4614740000000  0.4935430000000 1.0
C      1  0.5851120000000  0.5248650000000  0.5508460000000 1.0
C      1  0.4619530000000  0.5821060000000  0.5254380000000 1.0
C      1  0.5494390000000  0.4405570000000  0.5081060000000 1.0
C      1  0.5486160000000  0.5729780000000  0.5265060000000 1.0
C      1  0.5428350000000  0.5408040000000  0.4461070000000 1.0
C      1  0.5256230000000  0.5232210000000  0.5704200000000 1.0
C      1  0.4861870000000  0.5653700000000  0.6026080000000 1.0
C      1  0.5844340000000  0.4297810000000  0.5333490000000 1.0
C      1  0.4512600000000  0.5780120000000  0.4947040000000 1.0
C      1  0.4221270000000  0.5165390000000  0.5189380000000 1.0
END
