TITL C-2848503-6230-516 0.00241175622673484 125000 -162.520395361487 0 0 31 (C1) n - 1
REM
REM in /home/bkarasulu/work/CARBON/AIRSS/Generating-Clusters/AIREBO/with-SteepDescent/Only-C1/SD-CG-opt/Try1-1.4A-POS3A/HFTN-CG
REM
REM
REM
REM
REM
REM ./C.cell (11c1c37f851c82e70ff6c80c92926a4b)
REM
REM compiler GCC version 9.2.1 20190827 (Red Hat 9.2.1-1)
REM options -cpp -mtune=generic -march=x86-64 -g -O0 -fpre-include=/usr/include/finclude/math-vector-fortran.h
REM seed -1146696077 1583175512 -1352973422 431952978 -68528011 1870291593 -1936631183 623170793 677428242 1857275430 -1519164453 1047838167 -72944146 -1598079328 -545329312 -980115085 -980307179 -551244771 226978163 493529434 -1569589897 1881227207 -237646385 1062715559 -1819104382 1845990825 1289822140 550730073 -1098539500 79035279 1648534520 1138511103 618644587
REM
CELL 1.54180   50.00000   50.00000   50.00000   90.00000   90.00000   90.00000
LATT -1
SFAC C  
C      1  0.4940570000000  0.4615340000000  0.5257710000000 1.0
C      1  0.4578050000000  0.5408370000000  0.4805190000000 1.0
C      1  0.4981230000000  0.5108060000000  0.4845450000000 1.0
C      1  0.4603780000000  0.5611150000000  0.5409140000000 1.0
C      1  0.4893350000000  0.4969030000000  0.4555220000000 1.0
C      1  0.4722080000000  0.5211410000000  0.4708180000000 1.0
C      1  0.5131680000000  0.5080130000000  0.5057030000000 1.0
C      1  0.5256930000000  0.4550000000000  0.5346410000000 1.0
C      1  0.4771730000000  0.4473060000000  0.4776430000000 1.0
C      1  0.5053950000000  0.5243510000000  0.5344940000000 1.0
C      1  0.4628540000000  0.5842560000000  0.5188630000000 1.0
C      1  0.4567380000000  0.4474840000000  0.4527030000000 1.0
C      1  0.5582330000000  0.4853710000000  0.4716730000000 1.0
C      1  0.4773260000000  0.4709390000000  0.4560060000000 1.0
C      1  0.5197740000000  0.5068810000000  0.4510690000000 1.0
C      1  0.5412850000000  0.4990750000000  0.5051960000000 1.0
C      1  0.4573760000000  0.5053770000000  0.5380220000000 1.0
C      1  0.5408570000000  0.4506750000000  0.5097910000000 1.0
C      1  0.5249030000000  0.5448680000000  0.5156580000000 1.0
C      1  0.4389160000000  0.4346430000000  0.4385630000000 1.0
C      1  0.4735430000000  0.5313840000000  0.5318710000000 1.0
C      1  0.5501010000000  0.5594520000000  0.5037630000000 1.0
C      1  0.4612650000000  0.5518510000000  0.5080160000000 1.0
C      1  0.5034040000000  0.4909160000000  0.5403810000000 1.0
C      1  0.4725760000000  0.4831330000000  0.5389230000000 1.0
C      1  0.5211340000000  0.4364300000000  0.4939190000000 1.0
C      1  0.5433130000000  0.5291120000000  0.4900770000000 1.0
C      1  0.5419670000000  0.5081620000000  0.4662920000000 1.0
C      1  0.4944850000000  0.4462620000000  0.4985940000000 1.0
C      1  0.5136560000000  0.5335120000000  0.5617240000000 1.0
C      1  0.5529620000000  0.4732120000000  0.4983280000000 1.0
END
