TITL C-2847949-8115-518 9.21620930863331e-05 125000 -93.6345498075703 0 0 18 (C1) n - 1
REM
REM in /home/bkarasulu/work/CARBON/AIRSS/Generating-Clusters/AIREBO/with-SteepDescent/Only-C1/SD-CG-opt/Try1-1.4A-POS3A/HFTN-CG
REM
REM
REM
REM
REM
REM ./C.cell (11c1c37f851c82e70ff6c80c92926a4b)
REM
REM compiler GCC version 9.2.1 20190827 (Red Hat 9.2.1-1)
REM options -cpp -mtune=generic -march=x86-64 -g -O0 -fpre-include=/usr/include/finclude/math-vector-fortran.h
REM seed 750476606 68850509 -1597958650 -146305243 -1816813674 -1567342043 -1908444002 -1117792707 -1970476061 -318123144 -1194982372 1547111886 -957716376 2061103703 -217370980 1370369003 704582002 185918319 1040130029 -82305501 534643032 -537532247 -1088976971 -453052642 875905921 1890114530 2113397079 -383560555 -891632229 -989641342 -813072796 1603585507 1064930875
REM
CELL 1.54180   50.00000   50.00000   50.00000   90.00000   90.00000   90.00000
LATT -1
SFAC C  
C      1  0.5429080000000  0.5097670000000  0.4762120000000 1.0
C      1  0.4835550000000  0.4590250000000  0.5203860000000 1.0
C      1  0.5667490000000  0.5129080000000  0.4637720000000 1.0
C      1  0.5204550000000  0.5068870000000  0.4615060000000 1.0
C      1  0.4536200000000  0.4986940000000  0.4956310000000 1.0
C      1  0.5422350000000  0.5082230000000  0.5034670000000 1.0
C      1  0.5415210000000  0.4869990000000  0.5273210000000 1.0
C      1  0.4896480000000  0.4771410000000  0.5423860000000 1.0
C      1  0.5296730000000  0.5423960000000  0.5451780000000 1.0
C      1  0.4596190000000  0.5066800000000  0.4713170000000 1.0
C      1  0.4646050000000  0.4906100000000  0.5490570000000 1.0
C      1  0.4881820000000  0.5125750000000  0.4552840000000 1.0
C      1  0.4601080000000  0.4684120000000  0.5063520000000 1.0
C      1  0.5137580000000  0.4893990000000  0.5427860000000 1.0
C      1  0.4463850000000  0.4899300000000  0.5261220000000 1.0
C      1  0.5091610000000  0.4969940000000  0.4338130000000 1.0
C      1  0.5295390000000  0.5181440000000  0.5335250000000 1.0
C      1  0.4582810000000  0.5252140000000  0.4458850000000 1.0
END
