TITL C-2848509-3138-303 -0.000532498523830078 125000 -385.396728727463 0 0 71 (C1) n - 1
REM
REM in /home/bkarasulu/work/CARBON/AIRSS/Generating-Clusters/AIREBO/with-SteepDescent/Only-C1/SD-CG-opt/Try1-1.4A-POS3A/HFTN-CG
REM
REM
REM
REM
REM
REM ./C.cell (11c1c37f851c82e70ff6c80c92926a4b)
REM
REM compiler GCC version 9.2.1 20190827 (Red Hat 9.2.1-1)
REM options -cpp -mtune=generic -march=x86-64 -g -O0 -fpre-include=/usr/include/finclude/math-vector-fortran.h
REM seed 1749461845 -1419457261 693117726 -1618093121 1954889892 961523242 1624359684 505431878 509645011 -1253801168 1530429588 321395946 79434666 1282487597 276801074 -59105977 1096738022 1036391508 -1866842579 1210584498 -2025612344 -701450491 1992850366 1925513870 701289837 -2094114084 1567360594 -1335294797 338981074 -2069784585 2118245486 942378859 -1728666670
REM
CELL 1.54180   50.00000   50.00000   50.00000   90.00000   90.00000   90.00000
LATT -1
SFAC C  
C      1  0.4384390000000  0.4921030000000  0.4602220000000 1.0
C      1  0.4640970000000  0.4831650000000  0.4423430000000 1.0
C      1  0.4549880000000  0.5069110000000  0.5019410000000 1.0
C      1  0.5081730000000  0.4414540000000  0.5519910000000 1.0
C      1  0.5159420000000  0.5448430000000  0.4794580000000 1.0
C      1  0.4948960000000  0.4393660000000  0.4387220000000 1.0
C      1  0.5474250000000  0.5501680000000  0.4898470000000 1.0
C      1  0.5321820000000  0.5432860000000  0.5499040000000 1.0
C      1  0.5630920000000  0.5086880000000  0.4257810000000 1.0
C      1  0.5222360000000  0.5682470000000  0.4475510000000 1.0
C      1  0.4833130000000  0.5829170000000  0.4960020000000 1.0
C      1  0.5218110000000  0.5337360000000  0.4484300000000 1.0
C      1  0.5532670000000  0.4984170000000  0.4701290000000 1.0
C      1  0.4831650000000  0.5385370000000  0.5550940000000 1.0
C      1  0.5217740000000  0.4472240000000  0.4485570000000 1.0
C      1  0.5283050000000  0.4367270000000  0.4800220000000 1.0
C      1  0.4848740000000  0.4173200000000  0.4533030000000 1.0
C      1  0.5491500000000  0.5604570000000  0.4593200000000 1.0
C      1  0.4562240000000  0.5584190000000  0.5490880000000 1.0
C      1  0.4452030000000  0.5272280000000  0.5501630000000 1.0
C      1  0.4341260000000  0.4880630000000  0.5210620000000 1.0
C      1  0.4947900000000  0.5030010000000  0.5355180000000 1.0
C      1  0.4618530000000  0.4567260000000  0.5474450000000 1.0
C      1  0.5103290000000  0.5048050000000  0.4563790000000 1.0
C      1  0.4922370000000  0.5406000000000  0.5223490000000 1.0
C      1  0.5571240000000  0.4869520000000  0.4417150000000 1.0
C      1  0.5249400000000  0.5066960000000  0.4870230000000 1.0
C      1  0.5505480000000  0.5473190000000  0.5215760000000 1.0
C      1  0.4544670000000  0.4737230000000  0.4799750000000 1.0
C      1  0.4116810000000  0.5062200000000  0.5156460000000 1.0
C      1  0.5443250000000  0.4720190000000  0.4896050000000 1.0
C      1  0.4203170000000  0.5298190000000  0.5036450000000 1.0
C      1  0.5317720000000  0.4712940000000  0.5204060000000 1.0
C      1  0.5861320000000  0.4924660000000  0.5101920000000 1.0
C      1  0.5001410000000  0.4761450000000  0.5233170000000 1.0
C      1  0.5202330000000  0.4419190000000  0.5267990000000 1.0
C      1  0.5594940000000  0.4415880000000  0.4891710000000 1.0
C      1  0.4772500000000  0.4605740000000  0.4316770000000 1.0
C      1  0.4636560000000  0.5206310000000  0.4720400000000 1.0
C      1  0.5687250000000  0.5215700000000  0.5076850000000 1.0
C      1  0.5767950000000  0.4699210000000  0.4980700000000 1.0
C      1  0.4775530000000  0.4231360000000  0.4799130000000 1.0
C      1  0.4815830000000  0.4908940000000  0.4912010000000 1.0
C      1  0.4399620000000  0.5445190000000  0.5222460000000 1.0
C      1  0.5674240000000  0.5283650000000  0.4744900000000 1.0
C      1  0.5188970000000  0.4951850000000  0.5582100000000 1.0
C      1  0.4532620000000  0.4556370000000  0.5085270000000 1.0
C      1  0.4299890000000  0.5225460000000  0.4730250000000 1.0
C      1  0.5093340000000  0.5753050000000  0.4921160000000 1.0
C      1  0.4440200000000  0.4783630000000  0.5457650000000 1.0
C      1  0.5475320000000  0.4623740000000  0.4370370000000 1.0
C      1  0.5440720000000  0.4969570000000  0.5486060000000 1.0
C      1  0.5435290000000  0.5027670000000  0.5151020000000 1.0
C      1  0.4499920000000  0.5479480000000  0.4840440000000 1.0
C      1  0.4817080000000  0.4504330000000  0.5213000000000 1.0
C      1  0.5553150000000  0.5327710000000  0.4427020000000 1.0
C      1  0.4752890000000  0.5088180000000  0.5698720000000 1.0
C      1  0.5044340000000  0.4709420000000  0.4912950000000 1.0
C      1  0.5193220000000  0.5602320000000  0.5162140000000 1.0
C      1  0.4662290000000  0.5115890000000  0.5310390000000 1.0
C      1  0.4874920000000  0.4591690000000  0.5624480000000 1.0
C      1  0.4799350000000  0.5045730000000  0.4536850000000 1.0
C      1  0.4478440000000  0.4994010000000  0.5643610000000 1.0
C      1  0.5013350000000  0.4322020000000  0.5002530000000 1.0
C      1  0.5202250000000  0.5225490000000  0.5292370000000 1.0
C      1  0.4940680000000  0.4863790000000  0.5716910000000 1.0
C      1  0.4669960000000  0.5591580000000  0.5086600000000 1.0
C      1  0.4553590000000  0.4397050000000  0.4819680000000 1.0
C      1  0.4964660000000  0.5212760000000  0.4946860000000 1.0
C      1  0.5109470000000  0.5519910000000  0.5656440000000 1.0
C      1  0.5203960000000  0.4735510000000  0.4654980000000 1.0
END
