TITL C-2848495-5024-381 -0.000131553857223706 125000 -1046.89758424249 0 0 192 (C1) n - 1
REM
REM in /home/bkarasulu/work/CARBON/AIRSS/Generating-Clusters/AIREBO/with-SteepDescent/Only-C1/SD-CG-opt/Try1-1.4A-POS3A/HFTN-CG
REM
REM
REM
REM
REM
REM ./C.cell (11c1c37f851c82e70ff6c80c92926a4b)
REM
REM compiler GCC version 9.2.1 20190827 (Red Hat 9.2.1-1)
REM options -cpp -mtune=generic -march=x86-64 -g -O0 -fpre-include=/usr/include/finclude/math-vector-fortran.h
REM seed 1369320726 -109091808 -1227134626 -1447568028 2052206589 2037694980 603511659 621340213 1850875855 1371190008 -516356480 -1235883257 -1216173560 2114883663 309936376 1817936721 -1948030471 1606018913 565472890 1460110295 331407955 -855442037 1968376583 1142980137 186324023 -1276752644 1601172637 -96944816 441420526 1531281679 1735800605 1001900417 -1913592070
REM
CELL 1.54180   50.00000   50.00000   50.00000   90.00000   90.00000   90.00000
LATT -1
SFAC C  
C      1  0.4468020000000  0.5280370000000  0.4261610000000 1.0
C      1  0.5427580000000  0.5944760000000  0.4301130000000 1.0
C      1  0.4064540000000  0.5622520000000  0.5211010000000 1.0
C      1  0.5671820000000  0.5213290000000  0.5955100000000 1.0
C      1  0.4097760000000  0.5179600000000  0.5656180000000 1.0
C      1  0.5897510000000  0.5400030000000  0.5518130000000 1.0
C      1  0.4644950000000  0.4825910000000  0.4400340000000 1.0
C      1  0.4324390000000  0.4751730000000  0.4314270000000 1.0
C      1  0.4669880000000  0.3952740000000  0.5518810000000 1.0
C      1  0.5264600000000  0.5499850000000  0.5064120000000 1.0
C      1  0.5311240000000  0.3953430000000  0.4945890000000 1.0
C      1  0.5466750000000  0.4983660000000  0.5176120000000 1.0
C      1  0.5997200000000  0.5554480000000  0.5309800000000 1.0
C      1  0.5141080000000  0.5787340000000  0.5198920000000 1.0
C      1  0.5931460000000  0.5256370000000  0.5051500000000 1.0
C      1  0.4701770000000  0.4991670000000  0.5229390000000 1.0
C      1  0.4448610000000  0.4071420000000  0.5350220000000 1.0
C      1  0.5224250000000  0.6008330000000  0.5013140000000 1.0
C      1  0.4686210000000  0.4254680000000  0.4433300000000 1.0
C      1  0.5652990000000  0.6043770000000  0.4772340000000 1.0
C      1  0.5443770000000  0.5403900000000  0.4821540000000 1.0
C      1  0.5592330000000  0.5698730000000  0.4204060000000 1.0
C      1  0.5750950000000  0.4747840000000  0.5634350000000 1.0
C      1  0.4846500000000  0.5137050000000  0.4075880000000 1.0
C      1  0.5766010000000  0.5163220000000  0.4418850000000 1.0
C      1  0.5229500000000  0.3895300000000  0.5530650000000 1.0
C      1  0.4701300000000  0.4421430000000  0.4072860000000 1.0
C      1  0.5245320000000  0.4741340000000  0.4068100000000 1.0
C      1  0.4574400000000  0.5081810000000  0.6036650000000 1.0
C      1  0.5281740000000  0.5374240000000  0.5362190000000 1.0
C      1  0.4917540000000  0.5872820000000  0.5385630000000 1.0
C      1  0.4645910000000  0.4081650000000  0.4638860000000 1.0
C      1  0.5025970000000  0.4743910000000  0.5683980000000 1.0
C      1  0.4321210000000  0.5258190000000  0.5468510000000 1.0
C      1  0.5058970000000  0.4947510000000  0.4252930000000 1.0
C      1  0.4388440000000  0.4616370000000  0.5748940000000 1.0
C      1  0.5578870000000  0.5327600000000  0.5473250000000 1.0
C      1  0.5930750000000  0.4299770000000  0.5266930000000 1.0
C      1  0.5599940000000  0.5418360000000  0.5784390000000 1.0
C      1  0.4507560000000  0.4393290000000  0.5298640000000 1.0
C      1  0.4937710000000  0.4667530000000  0.4362970000000 1.0
C      1  0.4404620000000  0.4083580000000  0.4819370000000 1.0
C      1  0.5099860000000  0.4729830000000  0.4616320000000 1.0
C      1  0.5160390000000  0.4350230000000  0.6004210000000 1.0
C      1  0.5241960000000  0.5081200000000  0.4490010000000 1.0
C      1  0.5580330000000  0.4449540000000  0.4366970000000 1.0
C      1  0.5483760000000  0.5767940000000  0.4661970000000 1.0
C      1  0.4435390000000  0.4434110000000  0.4371370000000 1.0
C      1  0.5460760000000  0.4318990000000  0.5930840000000 1.0
C      1  0.4947770000000  0.3896230000000  0.5363690000000 1.0
C      1  0.4795190000000  0.4381050000000  0.5187950000000 1.0
C      1  0.6034650000000  0.5031350000000  0.4846460000000 1.0
C      1  0.5315220000000  0.6040940000000  0.4562430000000 1.0
C      1  0.5453980000000  0.4956940000000  0.6012930000000 1.0
C      1  0.4283080000000  0.4363480000000  0.4885870000000 1.0
C      1  0.6161180000000  0.4799630000000  0.4992690000000 1.0
C      1  0.4470420000000  0.5276090000000  0.4884720000000 1.0
C      1  0.4524250000000  0.5722380000000  0.5865310000000 1.0
C      1  0.4327380000000  0.5703630000000  0.5411300000000 1.0
C      1  0.5056480000000  0.4214380000000  0.5327800000000 1.0
C      1  0.4985160000000  0.3920430000000  0.5052500000000 1.0
C      1  0.4426260000000  0.5651390000000  0.4566190000000 1.0
C      1  0.5713020000000  0.4769640000000  0.5080260000000 1.0
C      1  0.4778180000000  0.4141250000000  0.4947280000000 1.0
C      1  0.4966330000000  0.4589080000000  0.5985600000000 1.0
C      1  0.5339610000000  0.5487440000000  0.4116330000000 1.0
C      1  0.3912000000000  0.5367480000000  0.4784430000000 1.0
C      1  0.4527030000000  0.4905250000000  0.5625260000000 1.0
C      1  0.5731260000000  0.4393150000000  0.4666520000000 1.0
C      1  0.4152610000000  0.4963830000000  0.4111480000000 1.0
C      1  0.4273800000000  0.4788950000000  0.5448180000000 1.0
C      1  0.4112130000000  0.5608950000000  0.4693790000000 1.0
C      1  0.4515370000000  0.3961630000000  0.5066860000000 1.0
C      1  0.3971210000000  0.5082000000000  0.5171030000000 1.0
C      1  0.3928400000000  0.4212060000000  0.5214450000000 1.0
C      1  0.4842200000000  0.4145220000000  0.5658280000000 1.0
C      1  0.5872260000000  0.4282490000000  0.4955650000000 1.0
C      1  0.4536320000000  0.4821330000000  0.5036490000000 1.0
C      1  0.4251760000000  0.5473580000000  0.4965820000000 1.0
C      1  0.6213800000000  0.5413340000000  0.5157910000000 1.0
C      1  0.4611700000000  0.5371720000000  0.4622280000000 1.0
C      1  0.4345850000000  0.5095940000000  0.4515950000000 1.0
C      1  0.4210820000000  0.5513890000000  0.4056070000000 1.0
C      1  0.4881630000000  0.5519430000000  0.3981480000000 1.0
C      1  0.4045080000000  0.4969870000000  0.5454200000000 1.0
C      1  0.4648410000000  0.4690400000000  0.4088260000000 1.0
C      1  0.5384450000000  0.5697220000000  0.5390080000000 1.0
C      1  0.5144650000000  0.4952180000000  0.5067740000000 1.0
C      1  0.5214980000000  0.5798910000000  0.4141090000000 1.0
C      1  0.4978570000000  0.5470880000000  0.4946630000000 1.0
C      1  0.3878970000000  0.5378610000000  0.5075000000000 1.0
C      1  0.5269910000000  0.3970210000000  0.4505090000000 1.0
C      1  0.4357290000000  0.4994590000000  0.4826310000000 1.0
C      1  0.5571890000000  0.4141080000000  0.4930600000000 1.0
C      1  0.5060290000000  0.4593450000000  0.5207710000000 1.0
C      1  0.4587040000000  0.4831380000000  0.3857320000000 1.0
C      1  0.4597540000000  0.5880650000000  0.4382380000000 1.0
C      1  0.5343240000000  0.4215190000000  0.5511540000000 1.0
C      1  0.5042230000000  0.5964290000000  0.4750210000000 1.0
C      1  0.4072110000000  0.5826690000000  0.4950540000000 1.0
C      1  0.4351880000000  0.4638970000000  0.5197070000000 1.0
C      1  0.4365960000000  0.4571770000000  0.4667850000000 1.0
C      1  0.4655890000000  0.4738760000000  0.4729030000000 1.0
C      1  0.4995140000000  0.4887370000000  0.5366190000000 1.0
C      1  0.4841380000000  0.5659110000000  0.4466710000000 1.0
C      1  0.5605930000000  0.4652640000000  0.5349890000000 1.0
C      1  0.5818380000000  0.5773460000000  0.4693400000000 1.0
C      1  0.4464180000000  0.4250750000000  0.4086470000000 1.0
C      1  0.4507140000000  0.5888350000000  0.4796330000000 1.0
C      1  0.5258570000000  0.5735870000000  0.5669430000000 1.0
C      1  0.5272880000000  0.5197180000000  0.5950670000000 1.0
C      1  0.4947170000000  0.4342720000000  0.4262820000000 1.0
C      1  0.4891740000000  0.5234850000000  0.4758130000000 1.0
C      1  0.4599450000000  0.5099930000000  0.3899370000000 1.0
C      1  0.4670450000000  0.4707380000000  0.5861410000000 1.0
C      1  0.4051380000000  0.5025320000000  0.4413320000000 1.0
C      1  0.4812140000000  0.4443300000000  0.4794770000000 1.0
C      1  0.5757370000000  0.5123460000000  0.5267000000000 1.0
C      1  0.4617470000000  0.5525700000000  0.5426740000000 1.0
C      1  0.5356870000000  0.4792110000000  0.5745710000000 1.0
C      1  0.4975770000000  0.5773830000000  0.5640660000000 1.0
C      1  0.4773320000000  0.5874740000000  0.4938530000000 1.0
C      1  0.5808870000000  0.5672530000000  0.5143740000000 1.0
C      1  0.6043890000000  0.5174750000000  0.5572960000000 1.0
C      1  0.4742780000000  0.5152700000000  0.4397420000000 1.0
C      1  0.4312980000000  0.5968850000000  0.4983700000000 1.0
C      1  0.4377080000000  0.5665730000000  0.4229770000000 1.0
C      1  0.5519860000000  0.4820060000000  0.4815790000000 1.0
C      1  0.4963280000000  0.5861280000000  0.4226900000000 1.0
C      1  0.5042840000000  0.5640980000000  0.4697380000000 1.0
C      1  0.5036630000000  0.5310480000000  0.4475690000000 1.0
C      1  0.3842350000000  0.4464470000000  0.5135760000000 1.0
C      1  0.5206000000000  0.4249510000000  0.5037000000000 1.0
C      1  0.3927560000000  0.5097230000000  0.4693810000000 1.0
C      1  0.4865030000000  0.6055770000000  0.4474710000000 1.0
C      1  0.5649780000000  0.5035120000000  0.4160000000000 1.0
C      1  0.5873650000000  0.4640670000000  0.4558240000000 1.0
C      1  0.4054570000000  0.4908400000000  0.4922770000000 1.0
C      1  0.4708680000000  0.5977870000000  0.5238370000000 1.0
C      1  0.5801220000000  0.4913960000000  0.4649300000000 1.0
C      1  0.5758140000000  0.4911670000000  0.5885940000000 1.0
C      1  0.5132980000000  0.4453900000000  0.4780130000000 1.0
C      1  0.4578740000000  0.5259310000000  0.5828270000000 1.0
C      1  0.5675220000000  0.4233670000000  0.5440350000000 1.0
C      1  0.4314640000000  0.5204270000000  0.3995590000000 1.0
C      1  0.5258070000000  0.4463600000000  0.4243130000000 1.0
C      1  0.4689560000000  0.5533630000000  0.4207180000000 1.0
C      1  0.5399390000000  0.5603740000000  0.5869450000000 1.0
C      1  0.5935990000000  0.4594600000000  0.4969060000000 1.0
C      1  0.6136650000000  0.4459960000000  0.5342980000000 1.0
C      1  0.4803160000000  0.4848920000000  0.6132270000000 1.0
C      1  0.4192350000000  0.4173820000000  0.5154150000000 1.0
C      1  0.5939590000000  0.4903290000000  0.5435320000000 1.0
C      1  0.5524740000000  0.4759800000000  0.4239470000000 1.0
C      1  0.4103480000000  0.4732990000000  0.4568680000000 1.0
C      1  0.4768730000000  0.5525930000000  0.5736310000000 1.0
C      1  0.5600740000000  0.5833240000000  0.5215550000000 1.0
C      1  0.5641400000000  0.4148590000000  0.5767960000000 1.0
C      1  0.5503400000000  0.6023140000000  0.5028300000000 1.0
C      1  0.4963450000000  0.5343500000000  0.5933780000000 1.0
C      1  0.4667350000000  0.5284630000000  0.5112860000000 1.0
C      1  0.5307260000000  0.4544840000000  0.5436420000000 1.0
C      1  0.5936330000000  0.5286080000000  0.4654260000000 1.0
C      1  0.4317150000000  0.5763010000000  0.5723580000000 1.0
C      1  0.5320430000000  0.4943260000000  0.5447980000000 1.0
C      1  0.5764270000000  0.5488420000000  0.4867560000000 1.0
C      1  0.4981710000000  0.5223640000000  0.5416760000000 1.0
C      1  0.4088240000000  0.4612970000000  0.5010300000000 1.0
C      1  0.5401830000000  0.4684400000000  0.4543280000000 1.0
C      1  0.4233590000000  0.5262670000000  0.5207750000000 1.0
C      1  0.4653770000000  0.5196140000000  0.5502640000000 1.0
C      1  0.5529270000000  0.4134580000000  0.4605630000000 1.0
C      1  0.4425460000000  0.5957680000000  0.5249630000000 1.0
C      1  0.5130970000000  0.5290200000000  0.4014570000000 1.0
C      1  0.5131780000000  0.4159700000000  0.5772070000000 1.0
C      1  0.5129710000000  0.3696390000000  0.4865730000000 1.0
C      1  0.5151210000000  0.5122930000000  0.5660530000000 1.0
C      1  0.6136210000000  0.4736600000000  0.5283550000000 1.0
C      1  0.4928430000000  0.4924950000000  0.4811940000000 1.0
C      1  0.4931010000000  0.5009510000000  0.5873930000000 1.0
C      1  0.5508440000000  0.4520650000000  0.5709550000000 1.0
C      1  0.5221270000000  0.5498800000000  0.6078890000000 1.0
C      1  0.5249520000000  0.4293410000000  0.4527710000000 1.0
C      1  0.5362770000000  0.5057170000000  0.4019480000000 1.0
C      1  0.4764810000000  0.5597260000000  0.5135880000000 1.0
C      1  0.4943100000000  0.4438140000000  0.5557580000000 1.0
C      1  0.5568410000000  0.5390710000000  0.4346270000000 1.0
C      1  0.4356620000000  0.4390310000000  0.5570790000000 1.0
C      1  0.5416390000000  0.5113860000000  0.4689400000000 1.0
C      1  0.5335690000000  0.4606570000000  0.5006590000000 1.0
C      1  0.5307190000000  0.5509900000000  0.4528380000000 1.0
C      1  0.5542600000000  0.4376710000000  0.5161460000000 1.0
END
