TITL C-2848496-4490-126 0.00219360353734469 125000 -466.615314864943 0 0 83 (C1) n - 1
REM
REM in /home/bkarasulu/work/CARBON/AIRSS/Generating-Clusters/AIREBO/with-SteepDescent/Only-C1/SD-CG-opt/Try1-1.4A-POS3A/HFTN-CG
REM
REM
REM
REM
REM
REM ./C.cell (11c1c37f851c82e70ff6c80c92926a4b)
REM
REM compiler GCC version 9.2.1 20190827 (Red Hat 9.2.1-1)
REM options -cpp -mtune=generic -march=x86-64 -g -O0 -fpre-include=/usr/include/finclude/math-vector-fortran.h
REM seed 883553725 -116764298 -1652097483 2006320751 1165650248 959430267 1512621806 878847646 -158433799 -580585458 -2120499470 555136331 -699283507 356050914 596817665 705970645 -629568379 -14528575 1139921449 -1000461093 443009864 -1845543580 1828471206 -624001157 -754578940 1625298672 225673200 203698973 479237895 -1716326364 -833911845 1133873117 254467209
REM
CELL 1.54180   50.00000   50.00000   50.00000   90.00000   90.00000   90.00000
LATT -1
SFAC C  
C      1  0.5247900000000  0.5194870000000  0.5388500000000 1.0
C      1  0.4789130000000  0.5046850000000  0.5521990000000 1.0
C      1  0.4355160000000  0.4829100000000  0.5194720000000 1.0
C      1  0.5266700000000  0.4139820000000  0.5469810000000 1.0
C      1  0.5099220000000  0.5294260000000  0.5103690000000 1.0
C      1  0.4212720000000  0.4983060000000  0.4855900000000 1.0
C      1  0.5535450000000  0.4479900000000  0.5187640000000 1.0
C      1  0.5196470000000  0.5749850000000  0.5213540000000 1.0
C      1  0.4865060000000  0.4753120000000  0.5626110000000 1.0
C      1  0.5658620000000  0.4435060000000  0.4436240000000 1.0
C      1  0.5759290000000  0.4662980000000  0.5414440000000 1.0
C      1  0.5041890000000  0.4667670000000  0.4869640000000 1.0
C      1  0.5341110000000  0.4774300000000  0.4476090000000 1.0
C      1  0.4753260000000  0.5441400000000  0.5573110000000 1.0
C      1  0.5021060000000  0.4567820000000  0.3942590000000 1.0
C      1  0.5260540000000  0.4887850000000  0.4762010000000 1.0
C      1  0.4835030000000  0.5559730000000  0.4542400000000 1.0
C      1  0.5376970000000  0.5366010000000  0.4542730000000 1.0
C      1  0.4706890000000  0.5146750000000  0.4271130000000 1.0
C      1  0.5038480000000  0.4650260000000  0.4529180000000 1.0
C      1  0.4748930000000  0.4375890000000  0.4580790000000 1.0
C      1  0.5559640000000  0.4346020000000  0.4690040000000 1.0
C      1  0.4959480000000  0.5548950000000  0.4966300000000 1.0
C      1  0.4639570000000  0.5191470000000  0.5773260000000 1.0
C      1  0.5601980000000  0.4999860000000  0.5114900000000 1.0
C      1  0.4654730000000  0.4606070000000  0.4427810000000 1.0
C      1  0.4405040000000  0.5156830000000  0.4691140000000 1.0
C      1  0.5167900000000  0.4641910000000  0.5551520000000 1.0
C      1  0.4830320000000  0.4688620000000  0.5093240000000 1.0
C      1  0.5351560000000  0.4813340000000  0.5066750000000 1.0
C      1  0.5669640000000  0.5232180000000  0.4548170000000 1.0
C      1  0.4561440000000  0.4590840000000  0.5271160000000 1.0
C      1  0.5035790000000  0.5864360000000  0.4864480000000 1.0
C      1  0.5319210000000  0.5644170000000  0.4689710000000 1.0
C      1  0.5750950000000  0.5029140000000  0.4750030000000 1.0
C      1  0.5279020000000  0.5588470000000  0.5442640000000 1.0
C      1  0.5299730000000  0.4226060000000  0.4673200000000 1.0
C      1  0.4743040000000  0.5736310000000  0.5472150000000 1.0
C      1  0.4633300000000  0.4318580000000  0.4838440000000 1.0
C      1  0.5571590000000  0.5186730000000  0.5466790000000 1.0
C      1  0.4489080000000  0.5112190000000  0.5261150000000 1.0
C      1  0.5051810000000  0.4317560000000  0.4581270000000 1.0
C      1  0.4381330000000  0.5464460000000  0.4726590000000 1.0
C      1  0.5026080000000  0.4589460000000  0.4197220000000 1.0
C      1  0.5751350000000  0.4970700000000  0.5364570000000 1.0
C      1  0.4416320000000  0.5095080000000  0.4394520000000 1.0
C      1  0.4706100000000  0.5077740000000  0.4759860000000 1.0
C      1  0.5064440000000  0.5760350000000  0.4586370000000 1.0
C      1  0.4266750000000  0.4693410000000  0.4865050000000 1.0
C      1  0.5114370000000  0.5100540000000  0.5800460000000 1.0
C      1  0.4203610000000  0.5396710000000  0.5468780000000 1.0
C      1  0.5435210000000  0.4729350000000  0.5385480000000 1.0
C      1  0.5382390000000  0.5696560000000  0.4971200000000 1.0
C      1  0.5238960000000  0.4388640000000  0.5335080000000 1.0
C      1  0.4914910000000  0.5300820000000  0.4738140000000 1.0
C      1  0.4865040000000  0.5781010000000  0.5196160000000 1.0
C      1  0.4784620000000  0.4865710000000  0.4567730000000 1.0
C      1  0.4827520000000  0.4207640000000  0.5021380000000 1.0
C      1  0.5799510000000  0.4755540000000  0.4831060000000 1.0
C      1  0.4551240000000  0.4845030000000  0.4249450000000 1.0
C      1  0.5534950000000  0.5470710000000  0.5366210000000 1.0
C      1  0.5138520000000  0.4927310000000  0.5247070000000 1.0
C      1  0.4115860000000  0.5061280000000  0.5127440000000 1.0
C      1  0.4885340000000  0.5098390000000  0.5250530000000 1.0
C      1  0.5242170000000  0.5207220000000  0.4807700000000 1.0
C      1  0.4592470000000  0.5633820000000  0.4731750000000 1.0
C      1  0.5568540000000  0.5500800000000  0.5081250000000 1.0
C      1  0.5540110000000  0.4665610000000  0.4336380000000 1.0
C      1  0.4692720000000  0.4974960000000  0.5039180000000 1.0
C      1  0.4650740000000  0.5800440000000  0.4938500000000 1.0
C      1  0.5650040000000  0.4505480000000  0.4908830000000 1.0
C      1  0.4472710000000  0.5319850000000  0.5437160000000 1.0
C      1  0.5287460000000  0.4897670000000  0.5741100000000 1.0
C      1  0.4975360000000  0.4396810000000  0.5156140000000 1.0
C      1  0.4529670000000  0.4403730000000  0.5729240000000 1.0
C      1  0.4644900000000  0.4563280000000  0.5557330000000 1.0
C      1  0.5075260000000  0.5366660000000  0.5603960000000 1.0
C      1  0.5557170000000  0.5242450000000  0.4930950000000 1.0
C      1  0.4855710000000  0.5000660000000  0.5896610000000 1.0
C      1  0.5179170000000  0.5317040000000  0.4300690000000 1.0
C      1  0.4465710000000  0.4507780000000  0.4964530000000 1.0
C      1  0.4906840000000  0.5324810000000  0.4339020000000 1.0
C      1  0.4024160000000  0.5248300000000  0.5312950000000 1.0
END
