TITL C-2848499-1157-496 0.000153360135993999 125000 -844.078574212904 0 0 152 (C1) n - 1
REM
REM in /home/bkarasulu/work/CARBON/AIRSS/Generating-Clusters/AIREBO/with-SteepDescent/Only-C1/SD-CG-opt/Try1-1.4A-POS3A/HFTN-CG
REM
REM
REM
REM
REM
REM ./C.cell (11c1c37f851c82e70ff6c80c92926a4b)
REM
REM compiler GCC version 9.2.1 20190827 (Red Hat 9.2.1-1)
REM options -cpp -mtune=generic -march=x86-64 -g -O0 -fpre-include=/usr/include/finclude/math-vector-fortran.h
REM seed -1547894549 -927750738 -1306609643 -524941296 -40506580 746273512 -1510708586 -867275570 109681171 -1173197209 -1808402942 -548215473 -1805037725 1987439689 -1755527784 -1658626374 -48380137 1959579110 -1262497279 291628634 371078817 1613125661 583018588 1226452994 372300117 -2147390679 1614289581 -500209681 -1612927438 -695920875 -1451463569 -2008108590 479492449
REM
CELL 1.54180   50.00000   50.00000   50.00000   90.00000   90.00000   90.00000
LATT -1
SFAC C  
C      1  0.5027260000000  0.5259600000000  0.5171230000000 1.0
C      1  0.4600940000000  0.5852300000000  0.5477860000000 1.0
C      1  0.5351870000000  0.4309830000000  0.4971450000000 1.0
C      1  0.4975560000000  0.3965260000000  0.4889190000000 1.0
C      1  0.4190600000000  0.5553240000000  0.5170700000000 1.0
C      1  0.4899940000000  0.5922040000000  0.5624210000000 1.0
C      1  0.4274100000000  0.5786700000000  0.4988020000000 1.0
C      1  0.5071280000000  0.4024020000000  0.5346300000000 1.0
C      1  0.5286720000000  0.5848120000000  0.4667590000000 1.0
C      1  0.5052010000000  0.6123910000000  0.5513350000000 1.0
C      1  0.4850170000000  0.4116380000000  0.4360330000000 1.0
C      1  0.5200760000000  0.5709240000000  0.4920110000000 1.0
C      1  0.4813890000000  0.4857970000000  0.4350830000000 1.0
C      1  0.4828650000000  0.5229690000000  0.5716330000000 1.0
C      1  0.4584060000000  0.5613760000000  0.5166400000000 1.0
C      1  0.5102520000000  0.4153060000000  0.4496860000000 1.0
C      1  0.5791490000000  0.5860440000000  0.5425750000000 1.0
C      1  0.4605450000000  0.5394830000000  0.4704920000000 1.0
C      1  0.5633930000000  0.5475190000000  0.5023600000000 1.0
C      1  0.3967250000000  0.5014570000000  0.4710900000000 1.0
C      1  0.5966970000000  0.4919500000000  0.4951870000000 1.0
C      1  0.5530950000000  0.4646500000000  0.4062310000000 1.0
C      1  0.4157250000000  0.5028830000000  0.5201400000000 1.0
C      1  0.5112500000000  0.4838000000000  0.4521120000000 1.0
C      1  0.4435310000000  0.4883230000000  0.4939140000000 1.0
C      1  0.4282260000000  0.5069020000000  0.5886200000000 1.0
C      1  0.4785710000000  0.4137570000000  0.5315610000000 1.0
C      1  0.5578630000000  0.4476310000000  0.5746140000000 1.0
C      1  0.5308560000000  0.5195490000000  0.5351530000000 1.0
C      1  0.3905380000000  0.5403200000000  0.5080520000000 1.0
C      1  0.4835710000000  0.5312300000000  0.5410550000000 1.0
C      1  0.5689570000000  0.4103180000000  0.5335140000000 1.0
C      1  0.5493350000000  0.4960680000000  0.4139380000000 1.0
C      1  0.5499540000000  0.5349840000000  0.4195940000000 1.0
C      1  0.4224720000000  0.4570720000000  0.5310640000000 1.0
C      1  0.5238700000000  0.6009820000000  0.5334410000000 1.0
C      1  0.5116500000000  0.4333730000000  0.5752810000000 1.0
C      1  0.4601210000000  0.4779720000000  0.5217310000000 1.0
C      1  0.5153810000000  0.6336100000000  0.4527720000000 1.0
C      1  0.5332140000000  0.5336490000000  0.4549940000000 1.0
C      1  0.5044760000000  0.5020520000000  0.5757840000000 1.0
C      1  0.5039720000000  0.4730680000000  0.4050530000000 1.0
C      1  0.4668510000000  0.5861220000000  0.4499820000000 1.0
C      1  0.5668710000000  0.4624430000000  0.5390310000000 1.0
C      1  0.4166760000000  0.4735140000000  0.5068900000000 1.0
C      1  0.5176540000000  0.4067550000000  0.5595290000000 1.0
C      1  0.5793400000000  0.4896630000000  0.4238540000000 1.0
C      1  0.4549760000000  0.5896820000000  0.4816660000000 1.0
C      1  0.4960080000000  0.5279210000000  0.4000700000000 1.0
C      1  0.5401170000000  0.4262280000000  0.4577500000000 1.0
C      1  0.5815320000000  0.4725950000000  0.4487530000000 1.0
C      1  0.4291790000000  0.5273080000000  0.5035550000000 1.0
C      1  0.4256790000000  0.4999160000000  0.5493510000000 1.0
C      1  0.4931120000000  0.4801710000000  0.5919460000000 1.0
C      1  0.4853570000000  0.5018280000000  0.5006260000000 1.0
C      1  0.4718960000000  0.3928910000000  0.4981320000000 1.0
C      1  0.5018150000000  0.4533210000000  0.4579760000000 1.0
C      1  0.5230910000000  0.6097200000000  0.4602980000000 1.0
C      1  0.5289790000000  0.5523370000000  0.5444010000000 1.0
C      1  0.4375570000000  0.4395630000000  0.4312350000000 1.0
C      1  0.4453270000000  0.5225920000000  0.4350150000000 1.0
C      1  0.4027850000000  0.4581540000000  0.4855900000000 1.0
C      1  0.4190200000000  0.5243370000000  0.4736300000000 1.0
C      1  0.4899540000000  0.4368560000000  0.5093450000000 1.0
C      1  0.4286140000000  0.4536690000000  0.5765090000000 1.0
C      1  0.5518830000000  0.5105990000000  0.5119980000000 1.0
C      1  0.4725980000000  0.5383610000000  0.4406040000000 1.0
C      1  0.5509930000000  0.5964290000000  0.5335370000000 1.0
C      1  0.4521250000000  0.4553650000000  0.4713630000000 1.0
C      1  0.5248860000000  0.5074700000000  0.4348270000000 1.0
C      1  0.4545160000000  0.4185350000000  0.5079940000000 1.0
C      1  0.5617320000000  0.4606170000000  0.4998170000000 1.0
C      1  0.5451090000000  0.5648320000000  0.4484170000000 1.0
C      1  0.4613050000000  0.4246080000000  0.4283510000000 1.0
C      1  0.5110490000000  0.5734830000000  0.5247060000000 1.0
C      1  0.4251740000000  0.4645740000000  0.4433960000000 1.0
C      1  0.5279990000000  0.5256320000000  0.3981100000000 1.0
C      1  0.4386090000000  0.4304540000000  0.5616990000000 1.0
C      1  0.4978980000000  0.4762250000000  0.6172810000000 1.0
C      1  0.4181110000000  0.4715120000000  0.5549160000000 1.0
C      1  0.4813800000000  0.5027990000000  0.4707060000000 1.0
C      1  0.5233310000000  0.4940780000000  0.3944210000000 1.0
C      1  0.5607910000000  0.5165470000000  0.4462410000000 1.0
C      1  0.6015160000000  0.4854100000000  0.4679410000000 1.0
C      1  0.5380160000000  0.5464530000000  0.4861320000000 1.0
C      1  0.4389530000000  0.5614060000000  0.4722560000000 1.0
C      1  0.5570570000000  0.4870750000000  0.4936620000000 1.0
C      1  0.5742350000000  0.5558660000000  0.4634160000000 1.0
C      1  0.5284330000000  0.5464830000000  0.5865720000000 1.0
C      1  0.6069370000000  0.5302670000000  0.5305600000000 1.0
C      1  0.4858480000000  0.5016740000000  0.4058500000000 1.0
C      1  0.5148290000000  0.4921470000000  0.5473430000000 1.0
C      1  0.5621600000000  0.5852950000000  0.4311050000000 1.0
C      1  0.5270460000000  0.5588490000000  0.4202810000000 1.0
C      1  0.4480450000000  0.5081000000000  0.4665430000000 1.0
C      1  0.5530850000000  0.4574460000000  0.4538880000000 1.0
C      1  0.4041220000000  0.4743930000000  0.4621490000000 1.0
C      1  0.4885700000000  0.5473860000000  0.5855430000000 1.0
C      1  0.5874380000000  0.5331270000000  0.4707330000000 1.0
C      1  0.5889910000000  0.4545990000000  0.5069000000000 1.0
C      1  0.4832070000000  0.5410000000000  0.4932380000000 1.0
C      1  0.4391540000000  0.4300630000000  0.4846880000000 1.0
C      1  0.4820480000000  0.4358540000000  0.5770070000000 1.0
C      1  0.4392390000000  0.5569630000000  0.5443960000000 1.0
C      1  0.5398130000000  0.4504780000000  0.5213610000000 1.0
C      1  0.5064330000000  0.4285170000000  0.4807880000000 1.0
C      1  0.4762110000000  0.4587260000000  0.5430870000000 1.0
C      1  0.4713440000000  0.4657300000000  0.5760980000000 1.0
C      1  0.5571500000000  0.5631710000000  0.5300720000000 1.0
C      1  0.5916530000000  0.4821770000000  0.5266140000000 1.0
C      1  0.5809570000000  0.5187100000000  0.4981420000000 1.0
C      1  0.4868780000000  0.5712650000000  0.5008890000000 1.0
C      1  0.5104060000000  0.4868950000000  0.5137450000000 1.0
C      1  0.5387180000000  0.4378800000000  0.5911320000000 1.0
C      1  0.4693970000000  0.4572590000000  0.5002190000000 1.0
C      1  0.5507770000000  0.5066310000000  0.5595090000000 1.0
C      1  0.5540740000000  0.4095100000000  0.4800280000000 1.0
C      1  0.5402920000000  0.4504520000000  0.4259360000000 1.0
C      1  0.4824460000000  0.5611230000000  0.5390890000000 1.0
C      1  0.5198980000000  0.4929570000000  0.4815490000000 1.0
C      1  0.4930340000000  0.5169740000000  0.4420790000000 1.0
C      1  0.5075270000000  0.4571020000000  0.5298730000000 1.0
C      1  0.5203620000000  0.4614830000000  0.5610100000000 1.0
C      1  0.4811610000000  0.4707390000000  0.4742620000000 1.0
C      1  0.4551050000000  0.5123350000000  0.5610650000000 1.0
C      1  0.4529230000000  0.4800580000000  0.4479320000000 1.0
C      1  0.4664250000000  0.4193200000000  0.5604790000000 1.0
C      1  0.5488010000000  0.4897230000000  0.4638840000000 1.0
C      1  0.4796720000000  0.5678590000000  0.4342590000000 1.0
C      1  0.3919400000000  0.5132250000000  0.5006050000000 1.0
C      1  0.5930710000000  0.5106920000000  0.4468230000000 1.0
C      1  0.4233850000000  0.5384400000000  0.4307980000000 1.0
C      1  0.5091520000000  0.5667420000000  0.5681810000000 1.0
C      1  0.4120250000000  0.4316980000000  0.4839530000000 1.0
C      1  0.4495480000000  0.4409410000000  0.5316370000000 1.0
C      1  0.4592570000000  0.5227760000000  0.5066630000000 1.0
C      1  0.4616000000000  0.5054740000000  0.5321720000000 1.0
C      1  0.4297540000000  0.5324030000000  0.5661020000000 1.0
C      1  0.4996620000000  0.5541290000000  0.4157360000000 1.0
C      1  0.5768100000000  0.5138930000000  0.5624810000000 1.0
C      1  0.5202120000000  0.5218470000000  0.4906340000000 1.0
C      1  0.5932430000000  0.5507830000000  0.5183200000000 1.0
C      1  0.5258730000000  0.5216360000000  0.5887690000000 1.0
C      1  0.4528190000000  0.5948850000000  0.5152070000000 1.0
C      1  0.5558860000000  0.3999920000000  0.5110040000000 1.0
C      1  0.4154680000000  0.5494550000000  0.4550410000000 1.0
C      1  0.5703480000000  0.4316890000000  0.5513310000000 1.0
C      1  0.5223840000000  0.4017080000000  0.5083180000000 1.0
C      1  0.5491370000000  0.4770630000000  0.5612070000000 1.0
C      1  0.5970710000000  0.5073480000000  0.5439480000000 1.0
C      1  0.5126090000000  0.4542330000000  0.4257160000000 1.0
C      1  0.4423090000000  0.4811540000000  0.5851400000000 1.0
END
