TITL C-2847947-6848-235 9.43566500666608e-05 125000 -165.005242744597 0 0 30 (C1) n - 1
REM
REM in /home/bkarasulu/work/CARBON/AIRSS/Generating-Clusters/AIREBO/with-SteepDescent/Only-C1/SD-CG-opt/Try1-1.4A-POS3A/HFTN-CG
REM
REM
REM
REM
REM
REM ./C.cell (11c1c37f851c82e70ff6c80c92926a4b)
REM
REM compiler GCC version 9.2.1 20190827 (Red Hat 9.2.1-1)
REM options -cpp -mtune=generic -march=x86-64 -g -O0 -fpre-include=/usr/include/finclude/math-vector-fortran.h
REM seed -1841435076 -2020950705 2078999717 -442645734 -829824901 -312617270 38377414 401243700 -387975424 257856483 230738830 805267009 -1397203597 762782648 -1174254143 -1826583587 739810601 -1980899002 638977152 -1683302304 -1668221259 -1054199221 -1371603143 546367040 -1607052866 -1903870606 1264717713 1444811789 1777483305 119449170 -1492786843 -1317650343 1042921375
REM
CELL 1.54180   50.00000   50.00000   50.00000   90.00000   90.00000   90.00000
LATT -1
SFAC C  
C      1  0.5537420000000  0.4522340000000  0.5111290000000 1.0
C      1  0.5378430000000  0.4789810000000  0.5233340000000 1.0
C      1  0.4190620000000  0.5056650000000  0.5018000000000 1.0
C      1  0.5141880000000  0.5489970000000  0.4367200000000 1.0
C      1  0.5272170000000  0.5554960000000  0.5070350000000 1.0
C      1  0.4829940000000  0.4826510000000  0.5446740000000 1.0
C      1  0.5124230000000  0.5550950000000  0.4112920000000 1.0
C      1  0.5304690000000  0.4951160000000  0.4696120000000 1.0
C      1  0.5333820000000  0.4251380000000  0.5138910000000 1.0
C      1  0.4804710000000  0.5608320000000  0.4956250000000 1.0
C      1  0.5399240000000  0.4753080000000  0.4895960000000 1.0
C      1  0.5037130000000  0.4886450000000  0.4622900000000 1.0
C      1  0.4400620000000  0.5042890000000  0.5266590000000 1.0
C      1  0.5070050000000  0.5600750000000  0.4861900000000 1.0
C      1  0.4641790000000  0.5443680000000  0.5113860000000 1.0
C      1  0.5344560000000  0.5224790000000  0.4752880000000 1.0
C      1  0.5358700000000  0.5283350000000  0.5035730000000 1.0
C      1  0.4875780000000  0.4820820000000  0.4847080000000 1.0
C      1  0.4391030000000  0.5307020000000  0.5074790000000 1.0
C      1  0.5182360000000  0.5441840000000  0.4634560000000 1.0
C      1  0.4659710000000  0.5045650000000  0.5397130000000 1.0
C      1  0.4920450000000  0.4993570000000  0.5072190000000 1.0
C      1  0.5046330000000  0.4333230000000  0.4979250000000 1.0
C      1  0.4736410000000  0.4561020000000  0.5411220000000 1.0
C      1  0.4753780000000  0.5321170000000  0.5357040000000 1.0
C      1  0.5222150000000  0.5075790000000  0.5186560000000 1.0
C      1  0.5338040000000  0.4425460000000  0.4843500000000 1.0
C      1  0.5102840000000  0.4862210000000  0.5416110000000 1.0
C      1  0.4791850000000  0.4419460000000  0.5180200000000 1.0
C      1  0.4809260000000  0.4555680000000  0.4899440000000 1.0
END
