TITL C-2848504-8560-42 0.00132154288424917 125000 -593.383481914382 0 0 110 (C1) n - 1
REM
REM in /home/bkarasulu/work/CARBON/AIRSS/Generating-Clusters/AIREBO/with-SteepDescent/Only-C1/SD-CG-opt/Try1-1.4A-POS3A/HFTN-CG
REM
REM
REM
REM
REM
REM ./C.cell (11c1c37f851c82e70ff6c80c92926a4b)
REM
REM compiler GCC version 9.2.1 20190827 (Red Hat 9.2.1-1)
REM options -cpp -mtune=generic -march=x86-64 -g -O0 -fpre-include=/usr/include/finclude/math-vector-fortran.h
REM seed 1459367470 1678049868 1557782352 -1080946758 -1839431690 1074545399 -619407109 153755535 -1429950979 1997652958 741500821 1039940590 -1389186279 -2081462860 -12075417 -905423087 375843280 1229319895 2090615834 1425469843 -963490269 -2020892466 -1471939281 -390579372 -1189818700 -653594627 -1453015711 1876720420 62329281 749104945 -1461263268 -530914813 -1439374075
REM
CELL 1.54180   50.00000   50.00000   50.00000   90.00000   90.00000   90.00000
LATT -1
SFAC C  
C      1  0.5255370000000  0.5118080000000  0.5295140000000 1.0
C      1  0.5586430000000  0.4234190000000  0.4726810000000 1.0
C      1  0.5077750000000  0.4445900000000  0.5087700000000 1.0
C      1  0.5548750000000  0.4546350000000  0.4822980000000 1.0
C      1  0.4632550000000  0.4656570000000  0.5814270000000 1.0
C      1  0.4765700000000  0.4306240000000  0.4174940000000 1.0
C      1  0.4604370000000  0.5689660000000  0.4682210000000 1.0
C      1  0.5214840000000  0.4676990000000  0.4228130000000 1.0
C      1  0.4600800000000  0.4623450000000  0.5098710000000 1.0
C      1  0.5246810000000  0.4553930000000  0.5408630000000 1.0
C      1  0.4337330000000  0.4898740000000  0.5463060000000 1.0
C      1  0.4181540000000  0.5312110000000  0.4568840000000 1.0
C      1  0.5161540000000  0.4065680000000  0.5221510000000 1.0
C      1  0.5289520000000  0.4659680000000  0.4673150000000 1.0
C      1  0.4350430000000  0.5028340000000  0.4649810000000 1.0
C      1  0.4534770000000  0.5230730000000  0.4940030000000 1.0
C      1  0.4768050000000  0.4338070000000  0.5177480000000 1.0
C      1  0.4547190000000  0.5631880000000  0.4381610000000 1.0
C      1  0.5502390000000  0.5079120000000  0.4366840000000 1.0
C      1  0.5725690000000  0.5569020000000  0.4837980000000 1.0
C      1  0.4659830000000  0.5120890000000  0.4537340000000 1.0
C      1  0.4970760000000  0.5054050000000  0.5668110000000 1.0
C      1  0.4931810000000  0.4435470000000  0.5459470000000 1.0
C      1  0.5644920000000  0.5192020000000  0.5617810000000 1.0
C      1  0.4945130000000  0.4232810000000  0.4425660000000 1.0
C      1  0.5167930000000  0.4477900000000  0.4454490000000 1.0
C      1  0.4909970000000  0.4962040000000  0.4978880000000 1.0
C      1  0.4431340000000  0.5336430000000  0.4408590000000 1.0
C      1  0.4697860000000  0.5113100000000  0.4199390000000 1.0
C      1  0.4970900000000  0.5116910000000  0.4682370000000 1.0
C      1  0.4791580000000  0.4265330000000  0.4731210000000 1.0
C      1  0.5055280000000  0.5366010000000  0.5188770000000 1.0
C      1  0.4896860000000  0.4657570000000  0.4932180000000 1.0
C      1  0.4895600000000  0.5350570000000  0.5698430000000 1.0
C      1  0.5552190000000  0.5850740000000  0.6013020000000 1.0
C      1  0.5393600000000  0.4062650000000  0.4642520000000 1.0
C      1  0.4315870000000  0.4691860000000  0.5229920000000 1.0
C      1  0.5621620000000  0.4920240000000  0.5575580000000 1.0
C      1  0.4902010000000  0.4568490000000  0.4636210000000 1.0
C      1  0.4527880000000  0.4892440000000  0.4905430000000 1.0
C      1  0.5223460000000  0.4897930000000  0.4745370000000 1.0
C      1  0.5483610000000  0.5300910000000  0.4109680000000 1.0
C      1  0.5589730000000  0.5605790000000  0.4598310000000 1.0
C      1  0.4722830000000  0.5119450000000  0.5169880000000 1.0
C      1  0.4915570000000  0.5894150000000  0.5088270000000 1.0
C      1  0.5356690000000  0.5328590000000  0.4930070000000 1.0
C      1  0.4949270000000  0.4992500000000  0.5373710000000 1.0
C      1  0.4560710000000  0.5303500000000  0.5743710000000 1.0
C      1  0.5034740000000  0.5404890000000  0.4851590000000 1.0
C      1  0.5235190000000  0.4501060000000  0.5804340000000 1.0
C      1  0.5472670000000  0.4782310000000  0.4217260000000 1.0
C      1  0.5330950000000  0.4856990000000  0.5499590000000 1.0
C      1  0.4968560000000  0.5830770000000  0.5356070000000 1.0
C      1  0.4121190000000  0.4718890000000  0.5023390000000 1.0
C      1  0.4192350000000  0.5185210000000  0.5374960000000 1.0
C      1  0.3946940000000  0.4529550000000  0.4946600000000 1.0
C      1  0.4884040000000  0.5638790000000  0.4401770000000 1.0
C      1  0.5589130000000  0.5420310000000  0.4398530000000 1.0
C      1  0.4454580000000  0.5656830000000  0.5251460000000 1.0
C      1  0.5538890000000  0.5774830000000  0.5762410000000 1.0
C      1  0.5373680000000  0.5025110000000  0.4993950000000 1.0
C      1  0.5411230000000  0.4481800000000  0.5107590000000 1.0
C      1  0.4253350000000  0.5360970000000  0.4848670000000 1.0
C      1  0.4390290000000  0.4748680000000  0.5732530000000 1.0
C      1  0.4335200000000  0.5433870000000  0.5487100000000 1.0
C      1  0.5436280000000  0.5376480000000  0.5422690000000 1.0
C      1  0.5733340000000  0.4435900000000  0.5636460000000 1.0
C      1  0.5246920000000  0.5282660000000  0.3974300000000 1.0
C      1  0.4824710000000  0.4724520000000  0.5332270000000 1.0
C      1  0.5124920000000  0.4064140000000  0.4655070000000 1.0
C      1  0.5442950000000  0.4341240000000  0.5587220000000 1.0
C      1  0.4979200000000  0.4831130000000  0.4202430000000 1.0
C      1  0.4993980000000  0.4100250000000  0.4949250000000 1.0
C      1  0.5790340000000  0.4700910000000  0.5599020000000 1.0
C      1  0.4938540000000  0.5531500000000  0.5413760000000 1.0
C      1  0.4997770000000  0.4102920000000  0.5442120000000 1.0
C      1  0.5369070000000  0.5774280000000  0.4622560000000 1.0
C      1  0.5019130000000  0.5148680000000  0.4140840000000 1.0
C      1  0.4687640000000  0.4566170000000  0.4142970000000 1.0
C      1  0.4717010000000  0.5466310000000  0.4886050000000 1.0
C      1  0.5523350000000  0.5861040000000  0.5269590000000 1.0
C      1  0.4640830000000  0.5771580000000  0.5005880000000 1.0
C      1  0.4690430000000  0.5145070000000  0.5973280000000 1.0
C      1  0.4492130000000  0.4723080000000  0.4600390000000 1.0
C      1  0.5211920000000  0.5416450000000  0.5679440000000 1.0
C      1  0.5498650000000  0.5701260000000  0.5501750000000 1.0
C      1  0.5146170000000  0.4782710000000  0.5773990000000 1.0
C      1  0.4834550000000  0.4858740000000  0.5893100000000 1.0
C      1  0.4134750000000  0.4984450000000  0.4909260000000 1.0
C      1  0.5755020000000  0.4663260000000  0.4575360000000 1.0
C      1  0.4577420000000  0.5119930000000  0.5457900000000 1.0
C      1  0.4741700000000  0.4726720000000  0.4417760000000 1.0
C      1  0.4653090000000  0.5444260000000  0.5388940000000 1.0
C      1  0.5463070000000  0.5339740000000  0.5818720000000 1.0
C      1  0.5172780000000  0.5127120000000  0.4416760000000 1.0
C      1  0.5399500000000  0.4210280000000  0.5276460000000 1.0
C      1  0.5301340000000  0.5984420000000  0.5136800000000 1.0
C      1  0.5172740000000  0.5822620000000  0.4886440000000 1.0
C      1  0.5688890000000  0.4612780000000  0.4300220000000 1.0
C      1  0.5060790000000  0.5649070000000  0.4625030000000 1.0
C      1  0.4744500000000  0.5434270000000  0.4185210000000 1.0
C      1  0.4744720000000  0.4428650000000  0.5722760000000 1.0
C      1  0.5704620000000  0.4969960000000  0.4608500000000 1.0
C      1  0.5737390000000  0.5758220000000  0.5090550000000 1.0
C      1  0.5557470000000  0.5471030000000  0.5118110000000 1.0
C      1  0.4056590000000  0.5163340000000  0.5132700000000 1.0
C      1  0.4549430000000  0.4472540000000  0.4798350000000 1.0
C      1  0.4673600000000  0.4070610000000  0.5059230000000 1.0
C      1  0.5618470000000  0.4873090000000  0.4886260000000 1.0
C      1  0.4602670000000  0.4840670000000  0.4062250000000 1.0
END
