TITL C-2847946-5639-619 0.000418117308755803 125000 -758.733377573368 0 0 139 (C1) n - 1
REM
REM in /home/bkarasulu/work/CARBON/AIRSS/Generating-Clusters/AIREBO/with-SteepDescent/Only-C1/SD-CG-opt/Try1-1.4A-POS3A/HFTN-CG
REM
REM
REM
REM
REM
REM ./C.cell (11c1c37f851c82e70ff6c80c92926a4b)
REM
REM compiler GCC version 9.2.1 20190827 (Red Hat 9.2.1-1)
REM options -cpp -mtune=generic -march=x86-64 -g -O0 -fpre-include=/usr/include/finclude/math-vector-fortran.h
REM seed 1746431367 1302500237 -725297525 -795226487 -1098416961 -1373664877 580458046 -1416048889 1757426502 1362802439 241842556 -1623249959 -1953834552 700321453 -86497078 36342901 36699914 230470631 1028048649 -1694561001 1239704187 1731984278 -42933201 -759289736 2025482053 -1409296005 1221183339 1150257752 -783569094 1930808687 -1120150473 -169594502 337052689
REM
CELL 1.54180   50.00000   50.00000   50.00000   90.00000   90.00000   90.00000
LATT -1
SFAC C  
C      1  0.5084820000000  0.3998000000000  0.4579190000000 1.0
C      1  0.4830440000000  0.6042620000000  0.5061860000000 1.0
C      1  0.4509860000000  0.4842140000000  0.5559660000000 1.0
C      1  0.4266020000000  0.4900370000000  0.4667340000000 1.0
C      1  0.5366570000000  0.5436570000000  0.4452180000000 1.0
C      1  0.4634520000000  0.6071980000000  0.4874090000000 1.0
C      1  0.4402660000000  0.4797560000000  0.5305180000000 1.0
C      1  0.4589830000000  0.4525840000000  0.4245730000000 1.0
C      1  0.5041290000000  0.5400700000000  0.4134400000000 1.0
C      1  0.4708000000000  0.4701930000000  0.4584410000000 1.0
C      1  0.4698870000000  0.5215690000000  0.5476010000000 1.0
C      1  0.5604790000000  0.4621740000000  0.4401580000000 1.0
C      1  0.4886470000000  0.5524080000000  0.5692050000000 1.0
C      1  0.4165830000000  0.5343810000000  0.5396510000000 1.0
C      1  0.5609130000000  0.5590980000000  0.5570230000000 1.0
C      1  0.4548760000000  0.4188620000000  0.4717630000000 1.0
C      1  0.5386920000000  0.6050700000000  0.5218400000000 1.0
C      1  0.5246190000000  0.4536590000000  0.4543420000000 1.0
C      1  0.4828200000000  0.5838250000000  0.5457560000000 1.0
C      1  0.5646660000000  0.4787320000000  0.4695840000000 1.0
C      1  0.5493190000000  0.5309130000000  0.4920680000000 1.0
C      1  0.4165160000000  0.5567570000000  0.5240990000000 1.0
C      1  0.5253100000000  0.5075890000000  0.4892520000000 1.0
C      1  0.4398330000000  0.4757270000000  0.4183150000000 1.0
C      1  0.5104710000000  0.5760990000000  0.5655550000000 1.0
C      1  0.5341430000000  0.4226380000000  0.5586180000000 1.0
C      1  0.4727600000000  0.4787680000000  0.4898870000000 1.0
C      1  0.5055870000000  0.4897940000000  0.4594220000000 1.0
C      1  0.5804650000000  0.5353280000000  0.5167720000000 1.0
C      1  0.5597170000000  0.5096360000000  0.4689930000000 1.0
C      1  0.5160940000000  0.4597740000000  0.5255480000000 1.0
C      1  0.5757010000000  0.4381540000000  0.4825650000000 1.0
C      1  0.4438480000000  0.5801240000000  0.4811260000000 1.0
C      1  0.5498230000000  0.4639970000000  0.5246790000000 1.0
C      1  0.5408780000000  0.4429030000000  0.4199010000000 1.0
C      1  0.5326200000000  0.5020540000000  0.4177330000000 1.0
C      1  0.4881380000000  0.4165640000000  0.4714830000000 1.0
C      1  0.4275060000000  0.4092570000000  0.4851540000000 1.0
C      1  0.4041840000000  0.5149750000000  0.4974370000000 1.0
C      1  0.5213000000000  0.5877240000000  0.4548190000000 1.0
C      1  0.5108630000000  0.4318510000000  0.4238420000000 1.0
C      1  0.5525930000000  0.5288080000000  0.5651790000000 1.0
C      1  0.5071710000000  0.5428610000000  0.5436290000000 1.0
C      1  0.5240470000000  0.4269660000000  0.5296860000000 1.0
C      1  0.4402220000000  0.5346720000000  0.5578430000000 1.0
C      1  0.5324610000000  0.4776000000000  0.5699120000000 1.0
C      1  0.5894530000000  0.5457780000000  0.4543830000000 1.0
C      1  0.5073780000000  0.6011330000000  0.5297750000000 1.0
C      1  0.5099280000000  0.4538460000000  0.5648080000000 1.0
C      1  0.4838770000000  0.4678670000000  0.5179510000000 1.0
C      1  0.4125780000000  0.4480730000000  0.5258920000000 1.0
C      1  0.5445990000000  0.5809260000000  0.4765440000000 1.0
C      1  0.4234350000000  0.5151270000000  0.4588400000000 1.0
C      1  0.4794610000000  0.4961420000000  0.4387070000000 1.0
C      1  0.5769840000000  0.4464920000000  0.5141010000000 1.0
C      1  0.4945150000000  0.5360170000000  0.5954810000000 1.0
C      1  0.5071090000000  0.5044570000000  0.5135100000000 1.0
C      1  0.5799060000000  0.5026770000000  0.5175140000000 1.0
C      1  0.5252650000000  0.4524020000000  0.4937280000000 1.0
C      1  0.5870510000000  0.4901750000000  0.5665570000000 1.0
C      1  0.5699110000000  0.5216490000000  0.4454130000000 1.0
C      1  0.4017750000000  0.4718580000000  0.4596350000000 1.0
C      1  0.4831110000000  0.4996660000000  0.3991100000000 1.0
C      1  0.4816230000000  0.4697790000000  0.5593160000000 1.0
C      1  0.5436460000000  0.4987730000000  0.5896100000000 1.0
C      1  0.4382020000000  0.5544450000000  0.4234380000000 1.0
C      1  0.4952410000000  0.5241920000000  0.4421650000000 1.0
C      1  0.4840450000000  0.5085720000000  0.4778610000000 1.0
C      1  0.4572210000000  0.4512220000000  0.5309510000000 1.0
C      1  0.4429300000000  0.5052420000000  0.5719800000000 1.0
C      1  0.4946070000000  0.4155550000000  0.5250670000000 1.0
C      1  0.5220910000000  0.5187700000000  0.5578750000000 1.0
C      1  0.4651450000000  0.5906300000000  0.4576010000000 1.0
C      1  0.4735460000000  0.4233060000000  0.5001940000000 1.0
C      1  0.5370850000000  0.5499850000000  0.5121410000000 1.0
C      1  0.4840380000000  0.4949890000000  0.5366210000000 1.0
C      1  0.4396550000000  0.4754290000000  0.4903860000000 1.0
C      1  0.5741410000000  0.4433170000000  0.5478480000000 1.0
C      1  0.5808350000000  0.5390640000000  0.4859080000000 1.0
C      1  0.4409150000000  0.5545160000000  0.5005230000000 1.0
C      1  0.4497080000000  0.4436980000000  0.4553750000000 1.0
C      1  0.4626320000000  0.5676560000000  0.5231520000000 1.0
C      1  0.5496030000000  0.4949790000000  0.5181720000000 1.0
C      1  0.5360300000000  0.4036110000000  0.4716220000000 1.0
C      1  0.4302820000000  0.5477280000000  0.4619990000000 1.0
C      1  0.5706240000000  0.5073390000000  0.5788560000000 1.0
C      1  0.4484080000000  0.5296070000000  0.4311570000000 1.0
C      1  0.4896840000000  0.5732230000000  0.5078710000000 1.0
C      1  0.4390850000000  0.4487750000000  0.5787730000000 1.0
C      1  0.5236180000000  0.4901570000000  0.5395700000000 1.0
C      1  0.5330530000000  0.5549590000000  0.5759560000000 1.0
C      1  0.4628380000000  0.5287930000000  0.4951470000000 1.0
C      1  0.5574450000000  0.4215030000000  0.5263640000000 1.0
C      1  0.5220700000000  0.5195580000000  0.4601510000000 1.0
C      1  0.5090700000000  0.4040230000000  0.4307110000000 1.0
C      1  0.5586220000000  0.5590480000000  0.4598120000000 1.0
C      1  0.6002510000000  0.5175380000000  0.4709050000000 1.0
C      1  0.4357780000000  0.5764160000000  0.4480230000000 1.0
C      1  0.4133980000000  0.4789770000000  0.5117240000000 1.0
C      1  0.4589530000000  0.5324360000000  0.4615550000000 1.0
C      1  0.4198660000000  0.4280170000000  0.5051230000000 1.0
C      1  0.6003310000000  0.4689860000000  0.5084110000000 1.0
C      1  0.5079800000000  0.5111210000000  0.4066280000000 1.0
C      1  0.4883230000000  0.4476590000000  0.4399080000000 1.0
C      1  0.5822550000000  0.4452110000000  0.4571440000000 1.0
C      1  0.5324280000000  0.4814220000000  0.4402870000000 1.0
C      1  0.4766170000000  0.4895290000000  0.5934460000000 1.0
C      1  0.4468710000000  0.4445440000000  0.5011660000000 1.0
C      1  0.4145260000000  0.5099180000000  0.5266920000000 1.0
C      1  0.5773150000000  0.4767390000000  0.5401270000000 1.0
C      1  0.4678640000000  0.4242210000000  0.5409590000000 1.0
C      1  0.4998210000000  0.4466790000000  0.4719120000000 1.0
C      1  0.4686730000000  0.5205400000000  0.5819730000000 1.0
C      1  0.5222940000000  0.5709270000000  0.5344820000000 1.0
C      1  0.5505610000000  0.3993150000000  0.5020950000000 1.0
C      1  0.5906270000000  0.4920810000000  0.4870250000000 1.0
C      1  0.5463870000000  0.4484340000000  0.5668690000000 1.0
C      1  0.4875720000000  0.5461110000000  0.4642420000000 1.0
C      1  0.5051710000000  0.5056900000000  0.5843950000000 1.0
C      1  0.4236120000000  0.4600440000000  0.4408540000000 1.0
C      1  0.5400710000000  0.4797170000000  0.4893040000000 1.0
C      1  0.5277320000000  0.5280790000000  0.5963180000000 1.0
C      1  0.4983760000000  0.5466910000000  0.4915320000000 1.0
C      1  0.4128620000000  0.5398200000000  0.4881060000000 1.0
C      1  0.5639580000000  0.5603010000000  0.5277280000000 1.0
C      1  0.4895460000000  0.5754780000000  0.4528680000000 1.0
C      1  0.5459220000000  0.4304790000000  0.4893110000000 1.0
C      1  0.5136940000000  0.5619220000000  0.4344120000000 1.0
C      1  0.4631080000000  0.4626240000000  0.5869240000000 1.0
C      1  0.5410270000000  0.4285840000000  0.4497760000000 1.0
C      1  0.5199600000000  0.5704020000000  0.4947980000000 1.0
C      1  0.4867370000000  0.5308140000000  0.5192670000000 1.0
C      1  0.4949330000000  0.4282710000000  0.5567100000000 1.0
C      1  0.4302990000000  0.4471300000000  0.5513290000000 1.0
C      1  0.4558510000000  0.5015150000000  0.4184260000000 1.0
C      1  0.5500400000000  0.5230860000000  0.4239240000000 1.0
C      1  0.3921840000000  0.4870820000000  0.4864190000000 1.0
C      1  0.4609210000000  0.5597010000000  0.5554980000000 1.0
C      1  0.5540760000000  0.5859400000000  0.5084370000000 1.0
END
