TITL C-2848502-4955-297 -0.00154421495019188 125000 -458.706147868876 0 0 83 (C1) n - 1
REM
REM in /home/bkarasulu/work/CARBON/AIRSS/Generating-Clusters/AIREBO/with-SteepDescent/Only-C1/SD-CG-opt/Try1-1.4A-POS3A/HFTN-CG
REM
REM
REM
REM
REM
REM ./C.cell (11c1c37f851c82e70ff6c80c92926a4b)
REM
REM compiler GCC version 9.2.1 20190827 (Red Hat 9.2.1-1)
REM options -cpp -mtune=generic -march=x86-64 -g -O0 -fpre-include=/usr/include/finclude/math-vector-fortran.h
REM seed 1676626953 1663123579 1145619407 1672189145 -905731432 1784681386 -1583858580 28705278 1419504511 705355869 256920408 -1106445651 1851027949 1020433310 -526881594 -1608255392 -1390082415 -51090320 823787298 -762399962 -1544444094 -1588231063 1927160404 -640809362 -1452348815 -1644801303 1969175621 1703438066 -339517807 1293224973 1073968458 -705987334 590786657
REM
CELL 1.54180   50.00000   50.00000   50.00000   90.00000   90.00000   90.00000
LATT -1
SFAC C  
C      1  0.4793600000000  0.5838920000000  0.4855480000000 1.0
C      1  0.5392170000000  0.5317560000000  0.5593540000000 1.0
C      1  0.4390630000000  0.5281590000000  0.5473720000000 1.0
C      1  0.5468890000000  0.4317350000000  0.5222670000000 1.0
C      1  0.4694840000000  0.5737090000000  0.4599170000000 1.0
C      1  0.4890740000000  0.5598180000000  0.4435130000000 1.0
C      1  0.5752300000000  0.4915890000000  0.4225420000000 1.0
C      1  0.4900900000000  0.5101710000000  0.4828800000000 1.0
C      1  0.5847500000000  0.4536850000000  0.4751620000000 1.0
C      1  0.5612020000000  0.5380230000000  0.5424020000000 1.0
C      1  0.5605950000000  0.5631160000000  0.4837140000000 1.0
C      1  0.5433550000000  0.4583370000000  0.4508650000000 1.0
C      1  0.5681010000000  0.4622020000000  0.5488820000000 1.0
C      1  0.4755190000000  0.5345170000000  0.5108600000000 1.0
C      1  0.5327850000000  0.5716310000000  0.4677690000000 1.0
C      1  0.4225360000000  0.4762460000000  0.4250980000000 1.0
C      1  0.5823290000000  0.4931410000000  0.5001390000000 1.0
C      1  0.5187670000000  0.4937010000000  0.5294640000000 1.0
C      1  0.5079230000000  0.4826080000000  0.4885280000000 1.0
C      1  0.4832600000000  0.4395010000000  0.5603830000000 1.0
C      1  0.4187560000000  0.5245760000000  0.4694260000000 1.0
C      1  0.5722840000000  0.5463220000000  0.5103060000000 1.0
C      1  0.4845620000000  0.4488780000000  0.4516370000000 1.0
C      1  0.5357040000000  0.5254060000000  0.4215540000000 1.0
C      1  0.5627560000000  0.5146520000000  0.5177550000000 1.0
C      1  0.4639620000000  0.5191370000000  0.4736070000000 1.0
C      1  0.4630120000000  0.4049540000000  0.4952610000000 1.0
C      1  0.5149250000000  0.5717570000000  0.4472680000000 1.0
C      1  0.5155570000000  0.4068310000000  0.5502640000000 1.0
C      1  0.4531550000000  0.5253200000000  0.4491180000000 1.0
C      1  0.5659230000000  0.4778180000000  0.4773170000000 1.0
C      1  0.5336110000000  0.5723480000000  0.5000970000000 1.0
C      1  0.4232670000000  0.5117440000000  0.5230030000000 1.0
C      1  0.5313440000000  0.5223340000000  0.5850000000000 1.0
C      1  0.5787600000000  0.4895480000000  0.5341950000000 1.0
C      1  0.4424650000000  0.4949510000000  0.5458440000000 1.0
C      1  0.4483850000000  0.4512080000000  0.5168840000000 1.0
C      1  0.4870470000000  0.4670050000000  0.5506190000000 1.0
C      1  0.4394760000000  0.5253360000000  0.4963850000000 1.0
C      1  0.5156620000000  0.5654020000000  0.5472430000000 1.0
C      1  0.4939330000000  0.5814370000000  0.5522010000000 1.0
C      1  0.4988000000000  0.4359100000000  0.5127030000000 1.0
C      1  0.4730290000000  0.4798280000000  0.4354880000000 1.0
C      1  0.5021080000000  0.4733030000000  0.4474520000000 1.0
C      1  0.4970580000000  0.4700350000000  0.5182520000000 1.0
C      1  0.4420060000000  0.5576310000000  0.4947650000000 1.0
C      1  0.5223630000000  0.5519870000000  0.5183430000000 1.0
C      1  0.4617720000000  0.5036760000000  0.5101850000000 1.0
C      1  0.5655390000000  0.4354420000000  0.5439190000000 1.0
C      1  0.5439390000000  0.4332900000000  0.4397660000000 1.0
C      1  0.4663950000000  0.4786620000000  0.5142750000000 1.0
C      1  0.4897730000000  0.5320800000000  0.4347870000000 1.0
C      1  0.4282640000000  0.4728760000000  0.5242280000000 1.0
C      1  0.4872770000000  0.4181100000000  0.4885200000000 1.0
C      1  0.4891390000000  0.5289280000000  0.5529910000000 1.0
C      1  0.4230790000000  0.4889150000000  0.4977200000000 1.0
C      1  0.5466300000000  0.4798240000000  0.5289300000000 1.0
C      1  0.5455780000000  0.5050620000000  0.4768610000000 1.0
C      1  0.4499730000000  0.4183430000000  0.5149530000000 1.0
C      1  0.5069580000000  0.5094830000000  0.5910050000000 1.0
C      1  0.4414400000000  0.4877280000000  0.4422250000000 1.0
C      1  0.4703630000000  0.4873560000000  0.5610490000000 1.0
C      1  0.4309070000000  0.5447780000000  0.4506490000000 1.0
C      1  0.4913050000000  0.4248550000000  0.4620610000000 1.0
C      1  0.5322740000000  0.5122180000000  0.5057970000000 1.0
C      1  0.5634620000000  0.5304200000000  0.4810500000000 1.0
C      1  0.4701130000000  0.5745670000000  0.5414180000000 1.0
C      1  0.5160640000000  0.5261530000000  0.5395550000000 1.0
C      1  0.5460200000000  0.4561510000000  0.5081060000000 1.0
C      1  0.4643950000000  0.5429150000000  0.5415130000000 1.0
C      1  0.5149120000000  0.5191740000000  0.4384790000000 1.0
C      1  0.5345050000000  0.4653390000000  0.4810180000000 1.0
C      1  0.5050630000000  0.5311890000000  0.5015750000000 1.0
C      1  0.5218830000000  0.4213340000000  0.5269850000000 1.0
C      1  0.4655570000000  0.5095690000000  0.4268490000000 1.0
C      1  0.5636380000000  0.4792520000000  0.4432520000000 1.0
C      1  0.4724270000000  0.4347780000000  0.5321230000000 1.0
C      1  0.4851460000000  0.5090140000000  0.5723300000000 1.0
C      1  0.4672010000000  0.5676190000000  0.5104710000000 1.0
C      1  0.4997530000000  0.4190020000000  0.5695690000000 1.0
C      1  0.4286130000000  0.4964640000000  0.4710120000000 1.0
C      1  0.5188870000000  0.4963310000000  0.4593920000000 1.0
C      1  0.4423160000000  0.5659120000000  0.4667350000000 1.0
END
