TITL C-2848507-1641-410 0.00148915791353495 125000 -784.689904172539 0 0 149 (C1) n - 1
REM
REM in /home/bkarasulu/work/CARBON/AIRSS/Generating-Clusters/AIREBO/with-SteepDescent/Only-C1/SD-CG-opt/Try1-1.4A-POS3A/HFTN-CG
REM
REM
REM
REM
REM
REM ./C.cell (11c1c37f851c82e70ff6c80c92926a4b)
REM
REM compiler GCC version 9.2.1 20190827 (Red Hat 9.2.1-1)
REM options -cpp -mtune=generic -march=x86-64 -g -O0 -fpre-include=/usr/include/finclude/math-vector-fortran.h
REM seed 714293212 1141231326 -670332780 1497316089 -1445585413 -1627003604 -115433346 -1392189776 -909143713 1005742296 -1290446555 -875784910 43878240 2111084398 420531767 148186083 -432290049 257585091 -1987436956 -1333504469 334502958 -855986870 -385457796 172381467 64605278 349786812 821526683 -194113205 1519884676 -852639617 -1734914437 105690693 1805956534
REM
CELL 1.54180   50.00000   50.00000   50.00000   90.00000   90.00000   90.00000
LATT -1
SFAC C  
C      1  0.5137690000000  0.4723290000000  0.5282700000000 1.0
C      1  0.5518330000000  0.4016050000000  0.4429220000000 1.0
C      1  0.4159700000000  0.4755690000000  0.5354410000000 1.0
C      1  0.4650360000000  0.5577280000000  0.4567800000000 1.0
C      1  0.5092290000000  0.4822880000000  0.5980170000000 1.0
C      1  0.4912210000000  0.4805750000000  0.5068350000000 1.0
C      1  0.5010810000000  0.4475890000000  0.4513830000000 1.0
C      1  0.4590960000000  0.5906720000000  0.5330640000000 1.0
C      1  0.4718940000000  0.4668930000000  0.4038550000000 1.0
C      1  0.5370440000000  0.4249000000000  0.4278230000000 1.0
C      1  0.4368570000000  0.4889310000000  0.4506510000000 1.0
C      1  0.5323540000000  0.4855690000000  0.4076800000000 1.0
C      1  0.4691580000000  0.5149600000000  0.4424030000000 1.0
C      1  0.5298260000000  0.5022860000000  0.5269710000000 1.0
C      1  0.5371600000000  0.5003550000000  0.5893210000000 1.0
C      1  0.4748780000000  0.4540950000000  0.4687510000000 1.0
C      1  0.4875250000000  0.4370350000000  0.5999890000000 1.0
C      1  0.5511980000000  0.5898590000000  0.4734660000000 1.0
C      1  0.4946560000000  0.5374590000000  0.5175740000000 1.0
C      1  0.4923840000000  0.5610580000000  0.5825040000000 1.0
C      1  0.4330650000000  0.4245220000000  0.5402060000000 1.0
C      1  0.4877230000000  0.5275840000000  0.5869010000000 1.0
C      1  0.5800860000000  0.4902900000000  0.5126580000000 1.0
C      1  0.5809610000000  0.4287090000000  0.5275350000000 1.0
C      1  0.5856310000000  0.5362650000000  0.4713780000000 1.0
C      1  0.5057270000000  0.4644460000000  0.4063170000000 1.0
C      1  0.5526460000000  0.4324220000000  0.4572710000000 1.0
C      1  0.4955500000000  0.5555680000000  0.4642890000000 1.0
C      1  0.5449810000000  0.4543480000000  0.4821990000000 1.0
C      1  0.4466080000000  0.4636880000000  0.4802450000000 1.0
C      1  0.5312730000000  0.4887970000000  0.4969270000000 1.0
C      1  0.4572610000000  0.4946030000000  0.4170500000000 1.0
C      1  0.5746510000000  0.5697000000000  0.4701150000000 1.0
C      1  0.4214780000000  0.5513090000000  0.5538220000000 1.0
C      1  0.5367770000000  0.4995640000000  0.4383800000000 1.0
C      1  0.4950350000000  0.5068050000000  0.5609940000000 1.0
C      1  0.4932840000000  0.4101930000000  0.5016920000000 1.0
C      1  0.4978020000000  0.5635640000000  0.4960070000000 1.0
C      1  0.4716660000000  0.5885280000000  0.4658640000000 1.0
C      1  0.4061200000000  0.4973490000000  0.4633880000000 1.0
C      1  0.6117710000000  0.4829550000000  0.5133230000000 1.0
C      1  0.4754090000000  0.5141980000000  0.5335370000000 1.0
C      1  0.5427370000000  0.5481440000000  0.4599080000000 1.0
C      1  0.5078790000000  0.4561080000000  0.5928150000000 1.0
C      1  0.5615800000000  0.4803730000000  0.4252090000000 1.0
C      1  0.5502180000000  0.5942180000000  0.5297360000000 1.0
C      1  0.4487890000000  0.4223820000000  0.5101240000000 1.0
C      1  0.5717650000000  0.5186050000000  0.5200080000000 1.0
C      1  0.5494320000000  0.4414640000000  0.5288670000000 1.0
C      1  0.4723710000000  0.5012660000000  0.4733740000000 1.0
C      1  0.5250160000000  0.5300920000000  0.5126180000000 1.0
C      1  0.5505460000000  0.5282210000000  0.4262850000000 1.0
C      1  0.4222640000000  0.5575790000000  0.4848160000000 1.0
C      1  0.4522510000000  0.5175250000000  0.5103140000000 1.0
C      1  0.4575580000000  0.5499720000000  0.4277210000000 1.0
C      1  0.4940100000000  0.6033450000000  0.4698710000000 1.0
C      1  0.4540260000000  0.4953130000000  0.5520550000000 1.0
C      1  0.4933000000000  0.5942800000000  0.5339050000000 1.0
C      1  0.5333710000000  0.5589440000000  0.5221990000000 1.0
C      1  0.5184180000000  0.4821830000000  0.5591020000000 1.0
C      1  0.5884650000000  0.4637170000000  0.4376940000000 1.0
C      1  0.5541110000000  0.4727600000000  0.5164160000000 1.0
C      1  0.4092570000000  0.5076960000000  0.5762490000000 1.0
C      1  0.4176420000000  0.5238890000000  0.4478200000000 1.0
C      1  0.5111690000000  0.4369900000000  0.4234550000000 1.0
C      1  0.4303970000000  0.4637460000000  0.4334400000000 1.0
C      1  0.5182750000000  0.5541380000000  0.4417630000000 1.0
C      1  0.5111560000000  0.5257070000000  0.4688630000000 1.0
C      1  0.5552550000000  0.5579690000000  0.5458640000000 1.0
C      1  0.5033680000000  0.4876350000000  0.4776420000000 1.0
C      1  0.5095980000000  0.5809770000000  0.5607220000000 1.0
C      1  0.4805370000000  0.4465860000000  0.5505980000000 1.0
C      1  0.5966060000000  0.4820840000000  0.4832480000000 1.0
C      1  0.5182640000000  0.4515390000000  0.5030730000000 1.0
C      1  0.4892260000000  0.4177810000000  0.4627340000000 1.0
C      1  0.5210330000000  0.5889580000000  0.5161940000000 1.0
C      1  0.4699460000000  0.4327170000000  0.5797800000000 1.0
C      1  0.4776700000000  0.5850900000000  0.5051350000000 1.0
C      1  0.4774090000000  0.4400110000000  0.4201240000000 1.0
C      1  0.4392660000000  0.4736110000000  0.5736790000000 1.0
C      1  0.4290490000000  0.4798910000000  0.5969620000000 1.0
C      1  0.5368480000000  0.4093350000000  0.5632920000000 1.0
C      1  0.5202410000000  0.5980190000000  0.4854290000000 1.0
C      1  0.3949150000000  0.4708550000000  0.5128720000000 1.0
C      1  0.4873980000000  0.5255580000000  0.4892170000000 1.0
C      1  0.5793860000000  0.4360870000000  0.4737260000000 1.0
C      1  0.5110210000000  0.4504710000000  0.5616150000000 1.0
C      1  0.5217550000000  0.5381220000000  0.4154940000000 1.0
C      1  0.5719590000000  0.5811030000000  0.5179940000000 1.0
C      1  0.4668940000000  0.4482770000000  0.5227050000000 1.0
C      1  0.4470710000000  0.4732210000000  0.5271600000000 1.0
C      1  0.4388890000000  0.4438630000000  0.4537210000000 1.0
C      1  0.4621720000000  0.4247680000000  0.4440850000000 1.0
C      1  0.4226930000000  0.5309350000000  0.5021920000000 1.0
C      1  0.4576630000000  0.5394380000000  0.4848690000000 1.0
C      1  0.4951620000000  0.4883300000000  0.4280940000000 1.0
C      1  0.5597150000000  0.5128780000000  0.5706310000000 1.0
C      1  0.4590360000000  0.4862690000000  0.5008250000000 1.0
C      1  0.4587060000000  0.4187520000000  0.4777010000000 1.0
C      1  0.4672420000000  0.4754520000000  0.4433200000000 1.0
C      1  0.5396480000000  0.5842770000000  0.5581980000000 1.0
C      1  0.4731910000000  0.5531350000000  0.4055890000000 1.0
C      1  0.4088990000000  0.4745680000000  0.4864830000000 1.0
C      1  0.5710380000000  0.5489610000000  0.4434140000000 1.0
C      1  0.5810890000000  0.4960460000000  0.5646610000000 1.0
C      1  0.4178980000000  0.4243400000000  0.4966330000000 1.0
C      1  0.5511840000000  0.5306430000000  0.4971360000000 1.0
C      1  0.4546960000000  0.5290290000000  0.5771460000000 1.0
C      1  0.4013440000000  0.5063200000000  0.4960210000000 1.0
C      1  0.5486890000000  0.5246980000000  0.5442620000000 1.0
C      1  0.4949110000000  0.5397520000000  0.3969090000000 1.0
C      1  0.5291810000000  0.5657930000000  0.4830630000000 1.0
C      1  0.4720210000000  0.3990990000000  0.5160750000000 1.0
C      1  0.4441290000000  0.4425320000000  0.5663940000000 1.0
C      1  0.5434510000000  0.5150970000000  0.4679010000000 1.0
C      1  0.4172670000000  0.4459270000000  0.4780830000000 1.0
C      1  0.4164210000000  0.5085490000000  0.5270080000000 1.0
C      1  0.5400750000000  0.4258010000000  0.5008730000000 1.0
C      1  0.4295120000000  0.5183970000000  0.5569090000000 1.0
C      1  0.4504970000000  0.5572880000000  0.5129220000000 1.0
C      1  0.5725570000000  0.4281070000000  0.4992730000000 1.0
C      1  0.4410960000000  0.5145600000000  0.4705990000000 1.0
C      1  0.5477910000000  0.4748310000000  0.5695220000000 1.0
C      1  0.5907090000000  0.4486440000000  0.5446810000000 1.0
C      1  0.5822530000000  0.5058930000000  0.4669260000000 1.0
C      1  0.4095200000000  0.5520510000000  0.4602060000000 1.0
C      1  0.5334830000000  0.4331530000000  0.5528010000000 1.0
C      1  0.4655550000000  0.5554580000000  0.5694370000000 1.0
C      1  0.4693810000000  0.5592230000000  0.5395800000000 1.0
C      1  0.4993070000000  0.5189320000000  0.4423270000000 1.0
C      1  0.4490080000000  0.5784430000000  0.4879830000000 1.0
C      1  0.5081300000000  0.5093470000000  0.4047050000000 1.0
C      1  0.5142500000000  0.4777270000000  0.4515190000000 1.0
C      1  0.5928800000000  0.4581470000000  0.4644490000000 1.0
C      1  0.4794960000000  0.4767760000000  0.5646510000000 1.0
C      1  0.5825840000000  0.5028930000000  0.4376770000000 1.0
C      1  0.5085750000000  0.3983000000000  0.4798180000000 1.0
C      1  0.4148590000000  0.4502470000000  0.5525580000000 1.0
C      1  0.5572580000000  0.4858630000000  0.4784620000000 1.0
C      1  0.4408790000000  0.5225660000000  0.4273610000000 1.0
C      1  0.4315190000000  0.5706310000000  0.5369640000000 1.0
C      1  0.5700450000000  0.4715880000000  0.5464970000000 1.0
C      1  0.5969720000000  0.5378290000000  0.5235090000000 1.0
C      1  0.5159910000000  0.5306060000000  0.5514880000000 1.0
C      1  0.5862210000000  0.5618760000000  0.5375980000000 1.0
C      1  0.4882450000000  0.4414890000000  0.4974660000000 1.0
C      1  0.5768820000000  0.5527490000000  0.4998100000000 1.0
C      1  0.5097540000000  0.5131960000000  0.6035470000000 1.0
C      1  0.4999860000000  0.5562230000000  0.5437860000000 1.0
END
