TITL C-2847952-8118-91 0.0121098753736307 125000 -105.515760472344 0 0 22 (C1) n - 1
REM
REM in /home/bkarasulu/work/CARBON/AIRSS/Generating-Clusters/AIREBO/with-SteepDescent/Only-C1/SD-CG-opt/Try1-1.4A-POS3A/HFTN-CG
REM
REM
REM
REM
REM
REM ./C.cell (11c1c37f851c82e70ff6c80c92926a4b)
REM
REM compiler GCC version 9.2.1 20190827 (Red Hat 9.2.1-1)
REM options -cpp -mtune=generic -march=x86-64 -g -O0 -fpre-include=/usr/include/finclude/math-vector-fortran.h
REM seed 1483289865 -1638557183 -933963245 482046242 1139871744 -870352844 1811798540 42883961 -1401640654 899170985 -1408145622 -1462073720 -1889497658 -337664996 -1052763004 1134919102 943911410 -841992995 1417364240 1498692241 1842699341 1132578667 -773083816 2025312853 -427289340 44328611 -1576172255 -311177289 1431768868 264186277 -1983964595 -1576337485 -244051955
REM
CELL 1.54180   50.00000   50.00000   50.00000   90.00000   90.00000   90.00000
LATT -1
SFAC C  
C      1  0.5018040000000  0.4854140000000  0.5644290000000 1.0
C      1  0.5344080000000  0.4962660000000  0.5071700000000 1.0
C      1  0.4885040000000  0.4814860000000  0.5866710000000 1.0
C      1  0.4810100000000  0.5674080000000  0.4416420000000 1.0
C      1  0.5227700000000  0.5399420000000  0.4684750000000 1.0
C      1  0.4585100000000  0.4925650000000  0.4829150000000 1.0
C      1  0.5160720000000  0.4868450000000  0.5411970000000 1.0
C      1  0.4950040000000  0.4354390000000  0.4802770000000 1.0
C      1  0.5286540000000  0.5265830000000  0.4990080000000 1.0
C      1  0.4769160000000  0.5826010000000  0.4675890000000 1.0
C      1  0.4429130000000  0.5010500000000  0.5065760000000 1.0
C      1  0.4974600000000  0.4571780000000  0.5035380000000 1.0
C      1  0.5029410000000  0.4841620000000  0.5120650000000 1.0
C      1  0.5032800000000  0.4252910000000  0.4576720000000 1.0
C      1  0.4793600000000  0.4310830000000  0.5083050000000 1.0
C      1  0.5452670000000  0.4900950000000  0.5379740000000 1.0
C      1  0.4969050000000  0.5283790000000  0.4918080000000 1.0
C      1  0.5492320000000  0.4990630000000  0.4786420000000 1.0
C      1  0.4924850000000  0.5524720000000  0.4700080000000 1.0
C      1  0.4597600000000  0.5129830000000  0.5277440000000 1.0
C      1  0.4824900000000  0.5055320000000  0.5035770000000 1.0
C      1  0.5442550000000  0.5181620000000  0.4627180000000 1.0
END
