TITL C-2848498-1409-719 -0.0010685885800883 125000 -570.967882885576 0 0 104 (C1) n - 1
REM
REM in /home/bkarasulu/work/CARBON/AIRSS/Generating-Clusters/AIREBO/with-SteepDescent/Only-C1/SD-CG-opt/Try1-1.4A-POS3A/HFTN-CG
REM
REM
REM
REM
REM
REM ./C.cell (11c1c37f851c82e70ff6c80c92926a4b)
REM
REM compiler GCC version 9.2.1 20190827 (Red Hat 9.2.1-1)
REM options -cpp -mtune=generic -march=x86-64 -g -O0 -fpre-include=/usr/include/finclude/math-vector-fortran.h
REM seed 1522839948 -2032327641 -877632717 7373143 -2002919386 1895011395 -875773836 -266238743 455216992 -553304174 829053301 1604123209 1053212306 -36470694 -1933938875 996774087 796911868 1794378892 -930398293 1585567143 -377967622 1127177421 1937654375 -1719543099 -1708135999 539014463 -1096754108 786421852 2108187819 1243400721 1853494630 -870770396 -1261444428
REM
CELL 1.54180   50.00000   50.00000   50.00000   90.00000   90.00000   90.00000
LATT -1
SFAC C  
C      1  0.4329830000000  0.5532030000000  0.5151790000000 1.0
C      1  0.4559860000000  0.5355460000000  0.4090240000000 1.0
C      1  0.5446650000000  0.4292230000000  0.4645140000000 1.0
C      1  0.4300080000000  0.5105760000000  0.4472810000000 1.0
C      1  0.5253720000000  0.4360470000000  0.4302330000000 1.0
C      1  0.5208940000000  0.4481980000000  0.5608120000000 1.0
C      1  0.4990530000000  0.4198830000000  0.4814220000000 1.0
C      1  0.4986030000000  0.5468600000000  0.4273340000000 1.0
C      1  0.4770910000000  0.5106950000000  0.5654870000000 1.0
C      1  0.4909690000000  0.4613070000000  0.4569780000000 1.0
C      1  0.4808770000000  0.5731460000000  0.4653250000000 1.0
C      1  0.5010320000000  0.4864330000000  0.4944180000000 1.0
C      1  0.5473050000000  0.5328450000000  0.4878570000000 1.0
C      1  0.5824230000000  0.4979160000000  0.4819790000000 1.0
C      1  0.5192110000000  0.4156490000000  0.4567310000000 1.0
C      1  0.4797420000000  0.5204710000000  0.5058510000000 1.0
C      1  0.4746810000000  0.4120070000000  0.5025200000000 1.0
C      1  0.5723800000000  0.5481580000000  0.5483070000000 1.0
C      1  0.4564080000000  0.5237070000000  0.4813280000000 1.0
C      1  0.4922860000000  0.4798190000000  0.5247850000000 1.0
C      1  0.5675140000000  0.5258020000000  0.4445790000000 1.0
C      1  0.5548920000000  0.5345450000000  0.4160970000000 1.0
C      1  0.5041380000000  0.4635030000000  0.5799410000000 1.0
C      1  0.4512830000000  0.4421460000000  0.5393200000000 1.0
C      1  0.5809720000000  0.5229770000000  0.4691880000000 1.0
C      1  0.4779060000000  0.4811280000000  0.5555150000000 1.0
C      1  0.5287640000000  0.5849930000000  0.4895490000000 1.0
C      1  0.4712630000000  0.4203080000000  0.4636110000000 1.0
C      1  0.5554790000000  0.5906520000000  0.4892710000000 1.0
C      1  0.5603280000000  0.5188460000000  0.5142650000000 1.0
C      1  0.5445710000000  0.4375090000000  0.4959150000000 1.0
C      1  0.5104560000000  0.5792890000000  0.5358620000000 1.0
C      1  0.4926180000000  0.5593250000000  0.5521380000000 1.0
C      1  0.4482540000000  0.5739350000000  0.5134300000000 1.0
C      1  0.5174050000000  0.4174130000000  0.5561930000000 1.0
C      1  0.5385410000000  0.4617080000000  0.4733860000000 1.0
C      1  0.5046120000000  0.4973070000000  0.5803190000000 1.0
C      1  0.4539860000000  0.4284710000000  0.5082020000000 1.0
C      1  0.5399220000000  0.5704300000000  0.5444000000000 1.0
C      1  0.4684600000000  0.5530740000000  0.4862640000000 1.0
C      1  0.4511500000000  0.5525750000000  0.4325570000000 1.0
C      1  0.5381270000000  0.4615230000000  0.4195520000000 1.0
C      1  0.5312930000000  0.5331400000000  0.5243670000000 1.0
C      1  0.4832120000000  0.5203150000000  0.4173930000000 1.0
C      1  0.5352670000000  0.5101670000000  0.5725090000000 1.0
C      1  0.5122300000000  0.5531630000000  0.5141760000000 1.0
C      1  0.4940980000000  0.5009110000000  0.4012230000000 1.0
C      1  0.4776370000000  0.5630660000000  0.4384620000000 1.0
C      1  0.4530330000000  0.5254120000000  0.5542450000000 1.0
C      1  0.4287350000000  0.4481940000000  0.5070950000000 1.0
C      1  0.4186010000000  0.4363810000000  0.5346270000000 1.0
C      1  0.4084890000000  0.5107970000000  0.5358980000000 1.0
C      1  0.5838420000000  0.4945450000000  0.5666100000000 1.0
C      1  0.5262980000000  0.5007550000000  0.5242500000000 1.0
C      1  0.5274300000000  0.5153220000000  0.4729550000000 1.0
C      1  0.5258840000000  0.5421580000000  0.4285010000000 1.0
C      1  0.4833360000000  0.5943800000000  0.4911780000000 1.0
C      1  0.5165280000000  0.4576980000000  0.5295750000000 1.0
C      1  0.4643890000000  0.5538810000000  0.5436680000000 1.0
C      1  0.4980300000000  0.5275360000000  0.4778580000000 1.0
C      1  0.4053810000000  0.4999620000000  0.4562450000000 1.0
C      1  0.5495610000000  0.4569000000000  0.5680540000000 1.0
C      1  0.5688090000000  0.4554670000000  0.5021700000000 1.0
C      1  0.4572260000000  0.4975570000000  0.4596050000000 1.0
C      1  0.5311700000000  0.4876090000000  0.4869060000000 1.0
C      1  0.5442890000000  0.4770620000000  0.5339500000000 1.0
C      1  0.5167920000000  0.4304350000000  0.5091440000000 1.0
C      1  0.4648040000000  0.4581840000000  0.5625360000000 1.0
C      1  0.4244770000000  0.5289940000000  0.4822950000000 1.0
C      1  0.5722400000000  0.5725250000000  0.5032880000000 1.0
C      1  0.4606760000000  0.4679870000000  0.5205910000000 1.0
C      1  0.5758250000000  0.5483140000000  0.4876710000000 1.0
C      1  0.4825530000000  0.5180300000000  0.4498300000000 1.0
C      1  0.4677500000000  0.4456880000000  0.4526600000000 1.0
C      1  0.4492950000000  0.5252040000000  0.5204490000000 1.0
C      1  0.4858450000000  0.3967130000000  0.5238370000000 1.0
C      1  0.5058300000000  0.5917550000000  0.5064570000000 1.0
C      1  0.4478400000000  0.4663780000000  0.4497530000000 1.0
C      1  0.5830830000000  0.5279460000000  0.5326450000000 1.0
C      1  0.5093280000000  0.4098190000000  0.5314870000000 1.0
C      1  0.4577760000000  0.3972380000000  0.4579410000000 1.0
C      1  0.4978050000000  0.5126700000000  0.5316380000000 1.0
C      1  0.5590500000000  0.4878910000000  0.5052880000000 1.0
C      1  0.5542270000000  0.4881380000000  0.5629420000000 1.0
C      1  0.4217900000000  0.5192250000000  0.5558010000000 1.0
C      1  0.4346060000000  0.5400480000000  0.4514770000000 1.0
C      1  0.5359830000000  0.5131070000000  0.4435450000000 1.0
C      1  0.5016810000000  0.5314060000000  0.5597920000000 1.0
C      1  0.5187000000000  0.5335750000000  0.5881450000000 1.0
C      1  0.5073320000000  0.5600730000000  0.4812220000000 1.0
C      1  0.5364460000000  0.4892470000000  0.4192680000000 1.0
C      1  0.4357770000000  0.4774210000000  0.5066590000000 1.0
C      1  0.4798700000000  0.5620810000000  0.5144820000000 1.0
C      1  0.5407850000000  0.5381900000000  0.5555090000000 1.0
C      1  0.3990270000000  0.5064730000000  0.4834350000000 1.0
C      1  0.4244910000000  0.5061270000000  0.5074810000000 1.0
C      1  0.4846080000000  0.4833240000000  0.4726240000000 1.0
C      1  0.4987180000000  0.4778180000000  0.6076900000000 1.0
C      1  0.4753520000000  0.3745270000000  0.5345140000000 1.0
C      1  0.5504970000000  0.5092870000000  0.4017830000000 1.0
C      1  0.5894300000000  0.4693290000000  0.4871880000000 1.0
C      1  0.5167530000000  0.4552060000000  0.4526270000000 1.0
C      1  0.3975530000000  0.4244540000000  0.5460020000000 1.0
C      1  0.5680240000000  0.5736520000000  0.5318630000000 1.0
END
