TITL C-2847957-7266-564 -0.000777721791507961 125000 -313.887352221347 0 0 57 (C1) n - 1
REM
REM in /home/bkarasulu/work/CARBON/AIRSS/Generating-Clusters/AIREBO/with-SteepDescent/Only-C1/SD-CG-opt/Try1-1.4A-POS3A/HFTN-CG
REM
REM
REM
REM
REM
REM ./C.cell (11c1c37f851c82e70ff6c80c92926a4b)
REM
REM compiler GCC version 9.2.1 20190827 (Red Hat 9.2.1-1)
REM options -cpp -mtune=generic -march=x86-64 -g -O0 -fpre-include=/usr/include/finclude/math-vector-fortran.h
REM seed -804939475 -202718028 1129427587 1175416892 444212475 -1563189406 1950580269 817200300 1766505005 -1175227473 963625654 1270138214 -1568021633 1055238438 2099145197 456305310 -1937704959 1411360729 -291832223 -631941930 -948918831 -823364099 -1189183705 576947302 1666136451 735643181 1511086202 1560852391 -74169927 1479458937 1269953673 -684931711 -1294501278
REM
CELL 1.54180   50.00000   50.00000   50.00000   90.00000   90.00000   90.00000
LATT -1
SFAC C  
C      1  0.4989430000000  0.5622080000000  0.4653920000000 1.0
C      1  0.4856750000000  0.4314040000000  0.5379340000000 1.0
C      1  0.4599040000000  0.5282870000000  0.4500030000000 1.0
C      1  0.4664480000000  0.5063650000000  0.4826820000000 1.0
C      1  0.5180530000000  0.5421750000000  0.4775710000000 1.0
C      1  0.4547630000000  0.5493360000000  0.4971150000000 1.0
C      1  0.4408230000000  0.4508160000000  0.4335030000000 1.0
C      1  0.4463450000000  0.4615710000000  0.4580010000000 1.0
C      1  0.5223690000000  0.4780600000000  0.4398590000000 1.0
C      1  0.5084720000000  0.4392190000000  0.4788110000000 1.0
C      1  0.5517200000000  0.4805640000000  0.4557840000000 1.0
C      1  0.4341440000000  0.4768870000000  0.5042350000000 1.0
C      1  0.5433300000000  0.5285750000000  0.5469350000000 1.0
C      1  0.5732120000000  0.4945410000000  0.4936810000000 1.0
C      1  0.4689500000000  0.5515650000000  0.4692330000000 1.0
C      1  0.5155810000000  0.5193290000000  0.5607120000000 1.0
C      1  0.5386190000000  0.4500590000000  0.5486780000000 1.0
C      1  0.4405460000000  0.5295560000000  0.5129580000000 1.0
C      1  0.5014800000000  0.4881060000000  0.4767190000000 1.0
C      1  0.5416660000000  0.5043200000000  0.4960280000000 1.0
C      1  0.4739440000000  0.4717290000000  0.4649350000000 1.0
C      1  0.4502900000000  0.5290740000000  0.5386800000000 1.0
C      1  0.4799550000000  0.5132460000000  0.5437310000000 1.0
C      1  0.4831130000000  0.4856730000000  0.5029980000000 1.0
C      1  0.4929760000000  0.4701710000000  0.5527590000000 1.0
C      1  0.4843830000000  0.5463710000000  0.5056360000000 1.0
C      1  0.5138670000000  0.4910900000000  0.5622820000000 1.0
C      1  0.5332570000000  0.5081170000000  0.4632770000000 1.0
C      1  0.4482380000000  0.4613430000000  0.5234970000000 1.0
C      1  0.5097790000000  0.4135090000000  0.4749730000000 1.0
C      1  0.4874760000000  0.5542670000000  0.4376150000000 1.0
C      1  0.4981890000000  0.4994090000000  0.5264710000000 1.0
C      1  0.5776410000000  0.4827520000000  0.4711870000000 1.0
C      1  0.4953430000000  0.5569600000000  0.5295980000000 1.0
C      1  0.5664390000000  0.5292470000000  0.5621480000000 1.0
C      1  0.5396850000000  0.4781450000000  0.5512750000000 1.0
C      1  0.4967370000000  0.5205630000000  0.4871810000000 1.0
C      1  0.5321250000000  0.5024250000000  0.5286180000000 1.0
C      1  0.5212490000000  0.5677400000000  0.5278020000000 1.0
C      1  0.4991240000000  0.5326140000000  0.4254770000000 1.0
C      1  0.4696890000000  0.4417940000000  0.5134560000000 1.0
C      1  0.4414930000000  0.5041470000000  0.5003070000000 1.0
C      1  0.4919050000000  0.5410760000000  0.5560210000000 1.0
C      1  0.4282090000000  0.4634960000000  0.4796640000000 1.0
C      1  0.5117940000000  0.4683090000000  0.5244790000000 1.0
C      1  0.5285380000000  0.4593740000000  0.4676370000000 1.0
C      1  0.5408150000000  0.5492980000000  0.5249150000000 1.0
C      1  0.5454510000000  0.5375280000000  0.4584410000000 1.0
C      1  0.5448690000000  0.5381130000000  0.4980810000000 1.0
C      1  0.4853730000000  0.4542040000000  0.4903090000000 1.0
C      1  0.5684190000000  0.5477000000000  0.4752650000000 1.0
C      1  0.4757860000000  0.5023560000000  0.4502270000000 1.0
C      1  0.5242470000000  0.4751230000000  0.4966270000000 1.0
C      1  0.4624290000000  0.5292240000000  0.5686970000000 1.0
C      1  0.5130760000000  0.4389730000000  0.5380150000000 1.0
C      1  0.4662930000000  0.4559260000000  0.5503220000000 1.0
C      1  0.5067610000000  0.5059710000000  0.4415630000000 1.0
END
