TITL C-2848498-1409-609 0.00195823217862351 125000 -486.469832957969 0 0 91 (C1) n - 1
REM
REM in /home/bkarasulu/work/CARBON/AIRSS/Generating-Clusters/AIREBO/with-SteepDescent/Only-C1/SD-CG-opt/Try1-1.4A-POS3A/HFTN-CG
REM
REM
REM
REM
REM
REM ./C.cell (11c1c37f851c82e70ff6c80c92926a4b)
REM
REM compiler GCC version 9.2.1 20190827 (Red Hat 9.2.1-1)
REM options -cpp -mtune=generic -march=x86-64 -g -O0 -fpre-include=/usr/include/finclude/math-vector-fortran.h
REM seed 225436333 -303484960 832340763 1136783704 96626499 1355721310 2143943526 -1181478677 1700094448 1432129271 897478548 92926584 -170145473 -1026741098 -1791192897 -569590122 -1303095188 -1648454109 731679532 1009757253 901051825 1228119506 -985873977 1848149161 -166162949 142981735 -1371416095 976592077 1222524322 1703788381 532574152 2027403767 -1751003354
REM
CELL 1.54180   50.00000   50.00000   50.00000   90.00000   90.00000   90.00000
LATT -1
SFAC C  
C      1  0.4994160000000  0.5165460000000  0.5079790000000 1.0
C      1  0.5153410000000  0.4960630000000  0.4649440000000 1.0
C      1  0.5626640000000  0.4434150000000  0.5408680000000 1.0
C      1  0.4169380000000  0.4979490000000  0.4622770000000 1.0
C      1  0.5718520000000  0.4864430000000  0.5188340000000 1.0
C      1  0.5036710000000  0.4227110000000  0.5039930000000 1.0
C      1  0.4894660000000  0.4263400000000  0.4581080000000 1.0
C      1  0.5534510000000  0.4831570000000  0.5677170000000 1.0
C      1  0.5246250000000  0.5720210000000  0.5321390000000 1.0
C      1  0.4887540000000  0.4811890000000  0.4528650000000 1.0
C      1  0.4763550000000  0.4614070000000  0.5872770000000 1.0
C      1  0.4446770000000  0.4590110000000  0.4951200000000 1.0
C      1  0.5298410000000  0.4046010000000  0.5513570000000 1.0
C      1  0.5029370000000  0.5475190000000  0.5689970000000 1.0
C      1  0.4944460000000  0.5639520000000  0.4912350000000 1.0
C      1  0.4349460000000  0.4624500000000  0.5247120000000 1.0
C      1  0.4146790000000  0.5202550000000  0.4808270000000 1.0
C      1  0.4870690000000  0.4805040000000  0.4258830000000 1.0
C      1  0.4195860000000  0.4272950000000  0.4543260000000 1.0
C      1  0.5326770000000  0.4784880000000  0.5875300000000 1.0
C      1  0.4463050000000  0.5122800000000  0.5533500000000 1.0
C      1  0.5196120000000  0.5722100000000  0.4597970000000 1.0
C      1  0.4220810000000  0.5561870000000  0.4593390000000 1.0
C      1  0.4620780000000  0.4852300000000  0.4851780000000 1.0
C      1  0.5537820000000  0.5122160000000  0.4801830000000 1.0
C      1  0.4800510000000  0.4053610000000  0.4431340000000 1.0
C      1  0.4820290000000  0.5403170000000  0.5222150000000 1.0
C      1  0.5339040000000  0.4780390000000  0.4848410000000 1.0
C      1  0.5297620000000  0.5605150000000  0.5664740000000 1.0
C      1  0.4438320000000  0.5381960000000  0.4782930000000 1.0
C      1  0.5412800000000  0.5795830000000  0.4850090000000 1.0
C      1  0.5652660000000  0.4865730000000  0.4610280000000 1.0
C      1  0.4530480000000  0.5412370000000  0.5597640000000 1.0
C      1  0.5038470000000  0.4649320000000  0.5884940000000 1.0
C      1  0.4634220000000  0.5887080000000  0.4874780000000 1.0
C      1  0.4487600000000  0.5103090000000  0.5207770000000 1.0
C      1  0.5107960000000  0.4780860000000  0.4113930000000 1.0
C      1  0.4511310000000  0.4483620000000  0.5434080000000 1.0
C      1  0.4505470000000  0.5378080000000  0.5086560000000 1.0
C      1  0.4759500000000  0.5462810000000  0.5754930000000 1.0
C      1  0.5063450000000  0.4947800000000  0.5412960000000 1.0
C      1  0.4689210000000  0.4391300000000  0.4819360000000 1.0
C      1  0.5154880000000  0.4888860000000  0.5090730000000 1.0
C      1  0.5836310000000  0.5319660000000  0.5225240000000 1.0
C      1  0.5913760000000  0.5042090000000  0.5248720000000 1.0
C      1  0.4289780000000  0.4889390000000  0.5342520000000 1.0
C      1  0.4016590000000  0.4806500000000  0.4487260000000 1.0
C      1  0.4494890000000  0.5067220000000  0.4667070000000 1.0
C      1  0.5357110000000  0.5353560000000  0.4394920000000 1.0
C      1  0.4672060000000  0.5591890000000  0.4714460000000 1.0
C      1  0.4761750000000  0.4927960000000  0.5151790000000 1.0
C      1  0.5308810000000  0.5167240000000  0.5326570000000 1.0
C      1  0.4627910000000  0.5103240000000  0.4388380000000 1.0
C      1  0.5405050000000  0.5543140000000  0.5077500000000 1.0
C      1  0.4650800000000  0.4654950000000  0.5615150000000 1.0
C      1  0.5653480000000  0.4762620000000  0.4931090000000 1.0
C      1  0.4364990000000  0.4373350000000  0.4702210000000 1.0
C      1  0.4909980000000  0.5456380000000  0.4138670000000 1.0
C      1  0.5572910000000  0.5612930000000  0.5569770000000 1.0
C      1  0.5198030000000  0.4228880000000  0.5331870000000 1.0
C      1  0.5359130000000  0.4220950000000  0.4994940000000 1.0
C      1  0.5103750000000  0.4558020000000  0.5080420000000 1.0
C      1  0.5359470000000  0.5935100000000  0.5136320000000 1.0
C      1  0.5163990000000  0.4709810000000  0.5589930000000 1.0
C      1  0.4913160000000  0.5569230000000  0.4522060000000 1.0
C      1  0.4733790000000  0.4181230000000  0.5062920000000 1.0
C      1  0.4490720000000  0.5573570000000  0.5363970000000 1.0
C      1  0.5250860000000  0.4648310000000  0.4552230000000 1.0
C      1  0.4735470000000  0.5260230000000  0.4199600000000 1.0
C      1  0.4888320000000  0.4359310000000  0.5385440000000 1.0
C      1  0.4706390000000  0.5714840000000  0.5147980000000 1.0
C      1  0.5538310000000  0.5199440000000  0.4265710000000 1.0
C      1  0.5556830000000  0.4925440000000  0.4330080000000 1.0
C      1  0.5271770000000  0.5244320000000  0.4667030000000 1.0
C      1  0.5322530000000  0.4563760000000  0.5340880000000 1.0
C      1  0.5471290000000  0.4869110000000  0.5359110000000 1.0
C      1  0.4828370000000  0.6080210000000  0.4808780000000 1.0
C      1  0.5107880000000  0.5417060000000  0.5368480000000 1.0
C      1  0.5336070000000  0.4764410000000  0.4278520000000 1.0
C      1  0.4899470000000  0.4659010000000  0.4827910000000 1.0
C      1  0.5163410000000  0.5570440000000  0.4297600000000 1.0
C      1  0.4731320000000  0.4936830000000  0.5490950000000 1.0
C      1  0.5542630000000  0.5232350000000  0.5087980000000 1.0
C      1  0.5159390000000  0.4354100000000  0.4578150000000 1.0
C      1  0.5142590000000  0.5398100000000  0.4921210000000 1.0
C      1  0.4863870000000  0.4629030000000  0.5277670000000 1.0
C      1  0.5611580000000  0.4534810000000  0.4691790000000 1.0
C      1  0.5417130000000  0.4337220000000  0.4739920000000 1.0
C      1  0.4622940000000  0.4211700000000  0.5341490000000 1.0
C      1  0.5101240000000  0.5930960000000  0.4833510000000 1.0
C      1  0.5655870000000  0.5544690000000  0.5308280000000 1.0
END
