TITL C-2847948-6138-62 0.00188936298882654 125000 -371.646752481764 0 0 73 (C1) n - 1
REM
REM in /home/bkarasulu/work/CARBON/AIRSS/Generating-Clusters/AIREBO/with-SteepDescent/Only-C1/SD-CG-opt/Try1-1.4A-POS3A/HFTN-CG
REM
REM
REM
REM
REM
REM ./C.cell (11c1c37f851c82e70ff6c80c92926a4b)
REM
REM compiler GCC version 9.2.1 20190827 (Red Hat 9.2.1-1)
REM options -cpp -mtune=generic -march=x86-64 -g -O0 -fpre-include=/usr/include/finclude/math-vector-fortran.h
REM seed -1334239066 368075443 -332005227 1155178003 -626622316 456765551 -1414011279 487358513 1823467522 -539323096 -1116502561 -562228141 -360552762 -1003833005 -497374741 -368666524 1732811092 700290849 -264470564 -1132224075 -1997812019 -884652739 -1653252255 277783257 1983968625 -231652688 -979899835 -1064075302 -1377030672 185782557 1433500701 550032510 1008192730
REM
CELL 1.54180   50.00000   50.00000   50.00000   90.00000   90.00000   90.00000
LATT -1
SFAC C  
C      1  0.4730950000000  0.4475420000000  0.4665630000000 1.0
C      1  0.5234440000000  0.5710880000000  0.4752000000000 1.0
C      1  0.4545410000000  0.5632220000000  0.5093570000000 1.0
C      1  0.4892050000000  0.4996310000000  0.4697130000000 1.0
C      1  0.5030620000000  0.5445030000000  0.5510960000000 1.0
C      1  0.5359920000000  0.4457120000000  0.5562080000000 1.0
C      1  0.4619620000000  0.5289350000000  0.4347420000000 1.0
C      1  0.4963970000000  0.4328850000000  0.4466080000000 1.0
C      1  0.4782760000000  0.4916180000000  0.5009020000000 1.0
C      1  0.4718360000000  0.4444600000000  0.5377030000000 1.0
C      1  0.5321630000000  0.4520290000000  0.4696430000000 1.0
C      1  0.4641820000000  0.4992850000000  0.4466930000000 1.0
C      1  0.5449610000000  0.5241680000000  0.5240540000000 1.0
C      1  0.5605760000000  0.4901980000000  0.4791280000000 1.0
C      1  0.5153080000000  0.5412960000000  0.4894730000000 1.0
C      1  0.5576000000000  0.4621290000000  0.4732500000000 1.0
C      1  0.4443200000000  0.5294070000000  0.4638150000000 1.0
C      1  0.5516440000000  0.4510290000000  0.5110710000000 1.0
C      1  0.5738360000000  0.4449960000000  0.4913170000000 1.0
C      1  0.5125420000000  0.5204240000000  0.5297000000000 1.0
C      1  0.5132700000000  0.4680720000000  0.5450810000000 1.0
C      1  0.4390840000000  0.4885460000000  0.5363430000000 1.0
C      1  0.5046240000000  0.5732740000000  0.4481930000000 1.0
C      1  0.5315470000000  0.4774580000000  0.5033670000000 1.0
C      1  0.5378960000000  0.5051320000000  0.4586560000000 1.0
C      1  0.5562720000000  0.5337400000000  0.4589870000000 1.0
C      1  0.4984400000000  0.4637310000000  0.4332180000000 1.0
C      1  0.4254640000000  0.5260480000000  0.4824970000000 1.0
C      1  0.4841300000000  0.5528440000000  0.4966120000000 1.0
C      1  0.4694000000000  0.5396970000000  0.5513770000000 1.0
C      1  0.5017660000000  0.4430310000000  0.5251410000000 1.0
C      1  0.5442980000000  0.5573340000000  0.5302290000000 1.0
C      1  0.4696210000000  0.4552670000000  0.5638570000000 1.0
C      1  0.4940530000000  0.4279720000000  0.4956460000000 1.0
C      1  0.5275170000000  0.5476640000000  0.4519210000000 1.0
C      1  0.4649800000000  0.5030200000000  0.5368590000000 1.0
C      1  0.4460740000000  0.4934940000000  0.4973430000000 1.0
C      1  0.4904680000000  0.5157650000000  0.4210680000000 1.0
C      1  0.5082780000000  0.5197090000000  0.4497620000000 1.0
C      1  0.4756650000000  0.5307240000000  0.4722180000000 1.0
C      1  0.5634320000000  0.5012650000000  0.5066280000000 1.0
C      1  0.4845630000000  0.5116730000000  0.5632820000000 1.0
C      1  0.4318280000000  0.5200740000000  0.5131570000000 1.0
C      1  0.5184260000000  0.5105430000000  0.5679920000000 1.0
C      1  0.4509100000000  0.4624410000000  0.4517180000000 1.0
C      1  0.4148040000000  0.5050820000000  0.5376310000000 1.0
C      1  0.5501290000000  0.4358620000000  0.5347270000000 1.0
C      1  0.5110810000000  0.4287510000000  0.4728810000000 1.0
C      1  0.4538460000000  0.4449950000000  0.5160810000000 1.0
C      1  0.5671600000000  0.4952520000000  0.5398850000000 1.0
C      1  0.4959860000000  0.4930990000000  0.5299010000000 1.0
C      1  0.4455610000000  0.5437710000000  0.5274470000000 1.0
C      1  0.4697840000000  0.4735660000000  0.4277910000000 1.0
C      1  0.5272570000000  0.5087980000000  0.4907410000000 1.0
C      1  0.5012370000000  0.5752000000000  0.5157000000000 1.0
C      1  0.4409240000000  0.4875690000000  0.4675840000000 1.0
C      1  0.5018020000000  0.4670930000000  0.4668850000000 1.0
C      1  0.4879920000000  0.5467280000000  0.4458970000000 1.0
C      1  0.4380080000000  0.4675880000000  0.5154480000000 1.0
C      1  0.5406430000000  0.4820190000000  0.5331850000000 1.0
C      1  0.5175470000000  0.5652050000000  0.5367410000000 1.0
C      1  0.4788920000000  0.4799490000000  0.5742910000000 1.0
C      1  0.4820870000000  0.5293720000000  0.5211410000000 1.0
C      1  0.4649710000000  0.4334610000000  0.4927980000000 1.0
C      1  0.4840700000000  0.5765390000000  0.4722140000000 1.0
C      1  0.5140180000000  0.4182800000000  0.5373770000000 1.0
C      1  0.5579170000000  0.5655930000000  0.5047770000000 1.0
C      1  0.5461120000000  0.5850700000000  0.4893940000000 1.0
C      1  0.5274970000000  0.4794930000000  0.4388550000000 1.0
C      1  0.5487000000000  0.5354210000000  0.4920950000000 1.0
C      1  0.5442950000000  0.5140470000000  0.5565120000000 1.0
C      1  0.5091190000000  0.4822380000000  0.5737450000000 1.0
C      1  0.5016120000000  0.4668810000000  0.5008850000000 1.0
END
