TITL C-2848502-4955-392 0.00625610182122955 125000 -921.764549860262 0 0 166 (C1) n - 1
REM
REM in /home/bkarasulu/work/CARBON/AIRSS/Generating-Clusters/AIREBO/with-SteepDescent/Only-C1/SD-CG-opt/Try1-1.4A-POS3A/HFTN-CG
REM
REM
REM
REM
REM
REM ./C.cell (11c1c37f851c82e70ff6c80c92926a4b)
REM
REM compiler GCC version 9.2.1 20190827 (Red Hat 9.2.1-1)
REM options -cpp -mtune=generic -march=x86-64 -g -O0 -fpre-include=/usr/include/finclude/math-vector-fortran.h
REM seed -1381515083 2115105816 1983338928 49039125 -1166985467 -119451414 1340469824 758659621 712357197 1540550188 1331929175 2126757212 -1958530685 -1576388292 -1847874778 382814368 132068867 1766876494 1813867724 -1015638562 304885511 -905190794 821340258 -2065769075 -1238896227 -400460145 1111542419 -10081147 1682894252 -1274260607 510671551 -1015865992 1613516485
REM
CELL 1.54180   50.00000   50.00000   50.00000   90.00000   90.00000   90.00000
LATT -1
SFAC C  
C      1  0.4744120000000  0.5449120000000  0.4388380000000 1.0
C      1  0.4169880000000  0.5280650000000  0.4618480000000 1.0
C      1  0.4762770000000  0.5037840000000  0.4099820000000 1.0
C      1  0.5689560000000  0.4922820000000  0.5527620000000 1.0
C      1  0.5454340000000  0.6156610000000  0.4981980000000 1.0
C      1  0.4795590000000  0.4691870000000  0.4608130000000 1.0
C      1  0.4060610000000  0.4807970000000  0.4856230000000 1.0
C      1  0.4987550000000  0.4378050000000  0.4888630000000 1.0
C      1  0.4980700000000  0.4426240000000  0.5387370000000 1.0
C      1  0.4246530000000  0.4986030000000  0.4228250000000 1.0
C      1  0.5754050000000  0.4305950000000  0.4554590000000 1.0
C      1  0.5201780000000  0.5400530000000  0.6082890000000 1.0
C      1  0.4419750000000  0.4905000000000  0.5744930000000 1.0
C      1  0.4229770000000  0.5306930000000  0.5989150000000 1.0
C      1  0.5964110000000  0.5080880000000  0.4704650000000 1.0
C      1  0.4062910000000  0.4999450000000  0.5137490000000 1.0
C      1  0.4526870000000  0.4577030000000  0.5946100000000 1.0
C      1  0.6064800000000  0.4602110000000  0.5122340000000 1.0
C      1  0.4535870000000  0.4879470000000  0.5364720000000 1.0
C      1  0.5583460000000  0.4784380000000  0.3922460000000 1.0
C      1  0.4480430000000  0.4475220000000  0.4993260000000 1.0
C      1  0.5558930000000  0.5023290000000  0.4053730000000 1.0
C      1  0.4434620000000  0.4597400000000  0.5302960000000 1.0
C      1  0.6019760000000  0.4854650000000  0.5320380000000 1.0
C      1  0.4736230000000  0.5412640000000  0.4884410000000 1.0
C      1  0.5107070000000  0.5897530000000  0.4577750000000 1.0
C      1  0.4990830000000  0.4625220000000  0.5642110000000 1.0
C      1  0.5654980000000  0.4014260000000  0.4992340000000 1.0
C      1  0.5430840000000  0.4202360000000  0.4577920000000 1.0
C      1  0.4217140000000  0.5293070000000  0.4335180000000 1.0
C      1  0.4755880000000  0.4381110000000  0.5887350000000 1.0
C      1  0.4613230000000  0.3980440000000  0.5166520000000 1.0
C      1  0.4045750000000  0.4790300000000  0.5405210000000 1.0
C      1  0.4830650000000  0.4260210000000  0.4665620000000 1.0
C      1  0.5017590000000  0.5378130000000  0.4567450000000 1.0
C      1  0.4991020000000  0.4991390000000  0.4938730000000 1.0
C      1  0.4802030000000  0.4728270000000  0.4929260000000 1.0
C      1  0.5449520000000  0.4929380000000  0.5732330000000 1.0
C      1  0.4447030000000  0.4378250000000  0.5520920000000 1.0
C      1  0.4475910000000  0.5995190000000  0.4882160000000 1.0
C      1  0.4795940000000  0.4482500000000  0.5122220000000 1.0
C      1  0.4901800000000  0.5209680000000  0.5184810000000 1.0
C      1  0.4705330000000  0.5361290000000  0.5887540000000 1.0
C      1  0.4932100000000  0.4858010000000  0.3866090000000 1.0
C      1  0.4377900000000  0.5051880000000  0.4759970000000 1.0
C      1  0.5573720000000  0.4463760000000  0.4313170000000 1.0
C      1  0.4757200000000  0.5836350000000  0.5709270000000 1.0
C      1  0.5781040000000  0.4240710000000  0.4871510000000 1.0
C      1  0.4868720000000  0.3937230000000  0.4434330000000 1.0
C      1  0.5261610000000  0.5871060000000  0.5656960000000 1.0
C      1  0.5467220000000  0.4621870000000  0.5796710000000 1.0
C      1  0.4167560000000  0.4889220000000  0.4548070000000 1.0
C      1  0.5607080000000  0.4999620000000  0.4359800000000 1.0
C      1  0.5138210000000  0.3933410000000  0.4879530000000 1.0
C      1  0.4762280000000  0.6004110000000  0.4998460000000 1.0
C      1  0.5453200000000  0.5721430000000  0.5189120000000 1.0
C      1  0.4411190000000  0.5146440000000  0.5536240000000 1.0
C      1  0.5362430000000  0.5120030000000  0.5230470000000 1.0
C      1  0.4512750000000  0.5130910000000  0.5981550000000 1.0
C      1  0.4357010000000  0.5108770000000  0.5202700000000 1.0
C      1  0.4726320000000  0.4707300000000  0.4064040000000 1.0
C      1  0.5587710000000  0.5141400000000  0.4976690000000 1.0
C      1  0.6071010000000  0.4838490000000  0.4527450000000 1.0
C      1  0.4751570000000  0.4255680000000  0.5572620000000 1.0
C      1  0.5418690000000  0.4456270000000  0.4704960000000 1.0
C      1  0.4719590000000  0.3758410000000  0.4627450000000 1.0
C      1  0.5568290000000  0.4663790000000  0.5066320000000 1.0
C      1  0.4600820000000  0.4066510000000  0.4700470000000 1.0
C      1  0.4473740000000  0.5963480000000  0.4590630000000 1.0
C      1  0.5606000000000  0.5569030000000  0.5419970000000 1.0
C      1  0.5168580000000  0.4671460000000  0.4108660000000 1.0
C      1  0.4794660000000  0.5061570000000  0.5438920000000 1.0
C      1  0.4627660000000  0.4850230000000  0.6105200000000 1.0
C      1  0.5160010000000  0.4593180000000  0.4765350000000 1.0
C      1  0.5384430000000  0.4030450000000  0.5052860000000 1.0
C      1  0.5088580000000  0.4657350000000  0.4438930000000 1.0
C      1  0.5709190000000  0.4923300000000  0.5199960000000 1.0
C      1  0.5917030000000  0.5100890000000  0.4383500000000 1.0
C      1  0.4412660000000  0.4184270000000  0.4476960000000 1.0
C      1  0.4502310000000  0.5194770000000  0.4146700000000 1.0
C      1  0.5120720000000  0.5483130000000  0.4262510000000 1.0
C      1  0.5338220000000  0.5602050000000  0.4908810000000 1.0
C      1  0.5911550000000  0.4698600000000  0.5596930000000 1.0
C      1  0.4717100000000  0.4748710000000  0.5736050000000 1.0
C      1  0.5124720000000  0.4228890000000  0.5146530000000 1.0
C      1  0.5279010000000  0.6119720000000  0.4772290000000 1.0
C      1  0.5169700000000  0.5337630000000  0.5261380000000 1.0
C      1  0.4745860000000  0.6011510000000  0.5317030000000 1.0
C      1  0.4527700000000  0.4872130000000  0.4376980000000 1.0
C      1  0.4942550000000  0.3966810000000  0.5155860000000 1.0
C      1  0.4445010000000  0.5682040000000  0.4537900000000 1.0
C      1  0.5795890000000  0.3787510000000  0.5033090000000 1.0
C      1  0.5859430000000  0.5287450000000  0.4857880000000 1.0
C      1  0.5843050000000  0.4466450000000  0.5031630000000 1.0
C      1  0.4482290000000  0.5588720000000  0.5380280000000 1.0
C      1  0.4263720000000  0.4400250000000  0.4558460000000 1.0
C      1  0.5145680000000  0.5658150000000  0.5254010000000 1.0
C      1  0.4979910000000  0.4505270000000  0.6022080000000 1.0
C      1  0.4380540000000  0.5568870000000  0.4791180000000 1.0
C      1  0.4174530000000  0.4730640000000  0.5654850000000 1.0
C      1  0.4307280000000  0.5389840000000  0.5679360000000 1.0
C      1  0.5610960000000  0.5536020000000  0.4463880000000 1.0
C      1  0.4700920000000  0.5483250000000  0.5207280000000 1.0
C      1  0.4707560000000  0.5123130000000  0.4484360000000 1.0
C      1  0.4961620000000  0.6110340000000  0.4799510000000 1.0
C      1  0.5122020000000  0.5093550000000  0.4641970000000 1.0
C      1  0.4166060000000  0.4481100000000  0.4859600000000 1.0
C      1  0.5010170000000  0.5765150000000  0.5845850000000 1.0
C      1  0.4496130000000  0.4136070000000  0.4971990000000 1.0
C      1  0.4289890000000  0.4630890000000  0.4406230000000 1.0
C      1  0.4920760000000  0.4790910000000  0.6077220000000 1.0
C      1  0.5420910000000  0.4724700000000  0.4412040000000 1.0
C      1  0.4242210000000  0.4454210000000  0.5696580000000 1.0
C      1  0.4303780000000  0.5774340000000  0.4977830000000 1.0
C      1  0.5151130000000  0.4043980000000  0.4575870000000 1.0
C      1  0.4984490000000  0.4974590000000  0.4354460000000 1.0
C      1  0.5535060000000  0.4480800000000  0.5351030000000 1.0
C      1  0.4678950000000  0.4572870000000  0.4320650000000 1.0
C      1  0.5322080000000  0.5294630000000  0.4829850000000 1.0
C      1  0.5348810000000  0.5248700000000  0.4020360000000 1.0
C      1  0.5820750000000  0.5407940000000  0.5414620000000 1.0
C      1  0.5031510000000  0.4322510000000  0.4421570000000 1.0
C      1  0.4662930000000  0.4101100000000  0.4307610000000 1.0
C      1  0.5879370000000  0.5404560000000  0.4301630000000 1.0
C      1  0.4026760000000  0.5329480000000  0.5212000000000 1.0
C      1  0.5221460000000  0.4515370000000  0.5846430000000 1.0
C      1  0.5201510000000  0.5542350000000  0.3937600000000 1.0
C      1  0.5969170000000  0.5190190000000  0.5342820000000 1.0
C      1  0.5037330000000  0.4937720000000  0.5597380000000 1.0
C      1  0.5650840000000  0.4654670000000  0.4736520000000 1.0
C      1  0.4451560000000  0.5505580000000  0.4276180000000 1.0
C      1  0.4898630000000  0.5309480000000  0.5640390000000 1.0
C      1  0.5083010000000  0.4956130000000  0.5911010000000 1.0
C      1  0.5246610000000  0.4777840000000  0.5013120000000 1.0
C      1  0.4083200000000  0.5484680000000  0.5498240000000 1.0
C      1  0.5159920000000  0.5008570000000  0.4065150000000 1.0
C      1  0.4714890000000  0.5115060000000  0.4783510000000 1.0
C      1  0.5396850000000  0.5742490000000  0.4630400000000 1.0
C      1  0.4885760000000  0.5726110000000  0.5075440000000 1.0
C      1  0.4988490000000  0.5873150000000  0.5462020000000 1.0
C      1  0.4765310000000  0.3976750000000  0.5444500000000 1.0
C      1  0.5458910000000  0.5443000000000  0.5907220000000 1.0
C      1  0.5656100000000  0.4530900000000  0.5600170000000 1.0
C      1  0.5586660000000  0.4949970000000  0.4695680000000 1.0
C      1  0.5440730000000  0.6078340000000  0.5492370000000 1.0
C      1  0.5303170000000  0.4906710000000  0.5426260000000 1.0
C      1  0.5137850000000  0.5405330000000  0.5562810000000 1.0
C      1  0.5252200000000  0.4613880000000  0.5305190000000 1.0
C      1  0.4945760000000  0.5726080000000  0.4392270000000 1.0
C      1  0.5436640000000  0.4567810000000  0.4046660000000 1.0
C      1  0.4426220000000  0.5307880000000  0.4976790000000 1.0
C      1  0.5024270000000  0.5560740000000  0.4823450000000 1.0
C      1  0.5818400000000  0.5531820000000  0.4733340000000 1.0
C      1  0.5385470000000  0.5579330000000  0.5645040000000 1.0
C      1  0.4146740000000  0.4610760000000  0.5165310000000 1.0
C      1  0.4512680000000  0.4741700000000  0.4784530000000 1.0
C      1  0.5913010000000  0.4605880000000  0.4548570000000 1.0
C      1  0.4502990000000  0.5912620000000  0.5410930000000 1.0
C      1  0.4206120000000  0.5623170000000  0.5221200000000 1.0
C      1  0.5082740000000  0.5646050000000  0.3692280000000 1.0
C      1  0.4975670000000  0.5526640000000  0.5989970000000 1.0
C      1  0.5479360000000  0.5248360000000  0.4553310000000 1.0
C      1  0.5478570000000  0.6019520000000  0.5225140000000 1.0
C      1  0.5439470000000  0.5535160000000  0.4184040000000 1.0
C      1  0.4564060000000  0.5603190000000  0.5692800000000 1.0
C      1  0.5344760000000  0.5126490000000  0.5948960000000 1.0
END
