TITL C-2847949-8115-174 -0.0036895254292754 125000 -925.301492543569 0 0 173 (C1) n - 1
REM
REM in /home/bkarasulu/work/CARBON/AIRSS/Generating-Clusters/AIREBO/with-SteepDescent/Only-C1/SD-CG-opt/Try1-1.4A-POS3A/HFTN-CG
REM
REM
REM
REM
REM
REM ./C.cell (11c1c37f851c82e70ff6c80c92926a4b)
REM
REM compiler GCC version 9.2.1 20190827 (Red Hat 9.2.1-1)
REM options -cpp -mtune=generic -march=x86-64 -g -O0 -fpre-include=/usr/include/finclude/math-vector-fortran.h
REM seed -1770743250 -879426847 -1460683520 221405277 1982168264 1977025436 1704398094 -1989017157 -2027637986 1813136545 -836355368 -930321645 -194592439 410883646 -1847195791 -951328660 -433382479 1375840590 1008562182 1937869442 1681833758 2111269111 -1735211156 -816145303 -1483352646 -114487674 1168791108 1806079563 -1782958735 1583235010 -2017037142 -340253811 -1716301471
REM
CELL 1.54180   50.00000   50.00000   50.00000   90.00000   90.00000   90.00000
LATT -1
SFAC C  
C      1  0.5314160000000  0.4902200000000  0.5174400000000 1.0
C      1  0.5907970000000  0.4633130000000  0.4174650000000 1.0
C      1  0.4698390000000  0.4042380000000  0.5138230000000 1.0
C      1  0.4833550000000  0.5664560000000  0.4832630000000 1.0
C      1  0.4360510000000  0.5889870000000  0.5457240000000 1.0
C      1  0.4592480000000  0.5088120000000  0.4498000000000 1.0
C      1  0.5525440000000  0.5193640000000  0.4177260000000 1.0
C      1  0.5330360000000  0.4073430000000  0.4925830000000 1.0
C      1  0.5102630000000  0.5382110000000  0.3943240000000 1.0
C      1  0.4908170000000  0.4520060000000  0.3972700000000 1.0
C      1  0.5924170000000  0.5248790000000  0.5514320000000 1.0
C      1  0.5423850000000  0.4579300000000  0.4529710000000 1.0
C      1  0.5984700000000  0.4422740000000  0.5072840000000 1.0
C      1  0.4250600000000  0.4809020000000  0.4108780000000 1.0
C      1  0.5023470000000  0.4063420000000  0.4376170000000 1.0
C      1  0.4477860000000  0.4720060000000  0.5976550000000 1.0
C      1  0.4479180000000  0.5748760000000  0.4102500000000 1.0
C      1  0.4494310000000  0.4183770000000  0.5450250000000 1.0
C      1  0.5383590000000  0.4554580000000  0.4134750000000 1.0
C      1  0.4252520000000  0.4489580000000  0.5538010000000 1.0
C      1  0.4603600000000  0.5299080000000  0.5706920000000 1.0
C      1  0.5228620000000  0.4743480000000  0.4905900000000 1.0
C      1  0.4941680000000  0.5645340000000  0.5296220000000 1.0
C      1  0.5517970000000  0.5527010000000  0.5073550000000 1.0
C      1  0.5005870000000  0.4969510000000  0.4908640000000 1.0
C      1  0.4069620000000  0.4219070000000  0.5203130000000 1.0
C      1  0.5229290000000  0.4451550000000  0.4855010000000 1.0
C      1  0.5203630000000  0.4088510000000  0.4177930000000 1.0
C      1  0.4042880000000  0.4639630000000  0.4495420000000 1.0
C      1  0.4734660000000  0.5053010000000  0.4191100000000 1.0
C      1  0.4746920000000  0.4615680000000  0.5704510000000 1.0
C      1  0.4444620000000  0.4476290000000  0.5773950000000 1.0
C      1  0.4456020000000  0.4349290000000  0.4107240000000 1.0
C      1  0.5189610000000  0.5222110000000  0.6016920000000 1.0
C      1  0.5790290000000  0.4326620000000  0.4590430000000 1.0
C      1  0.5340250000000  0.5916340000000  0.5044210000000 1.0
C      1  0.5625960000000  0.5208350000000  0.5122770000000 1.0
C      1  0.4618650000000  0.5058190000000  0.4949750000000 1.0
C      1  0.5311060000000  0.5277960000000  0.5497070000000 1.0
C      1  0.5094190000000  0.4026020000000  0.4704550000000 1.0
C      1  0.4620080000000  0.4207420000000  0.5738050000000 1.0
C      1  0.5521150000000  0.5525860000000  0.4229380000000 1.0
C      1  0.5447770000000  0.5032050000000  0.5638710000000 1.0
C      1  0.4806410000000  0.4737840000000  0.3791570000000 1.0
C      1  0.4848920000000  0.5039670000000  0.5202000000000 1.0
C      1  0.5154920000000  0.5871600000000  0.4498410000000 1.0
C      1  0.4779780000000  0.5540310000000  0.6146790000000 1.0
C      1  0.4051650000000  0.5217540000000  0.4980900000000 1.0
C      1  0.5283960000000  0.5327480000000  0.4375730000000 1.0
C      1  0.4203450000000  0.5797950000000  0.5260080000000 1.0
C      1  0.5920680000000  0.4741790000000  0.5150450000000 1.0
C      1  0.4543280000000  0.5610690000000  0.4343580000000 1.0
C      1  0.4777920000000  0.4771210000000  0.6013440000000 1.0
C      1  0.4103350000000  0.5025500000000  0.6057450000000 1.0
C      1  0.4061000000000  0.4930720000000  0.4502790000000 1.0
C      1  0.5503660000000  0.4366770000000  0.5734500000000 1.0
C      1  0.4804140000000  0.4001060000000  0.4843570000000 1.0
C      1  0.4967200000000  0.5548940000000  0.4126680000000 1.0
C      1  0.4366460000000  0.4638290000000  0.4913190000000 1.0
C      1  0.4206910000000  0.4477880000000  0.4659070000000 1.0
C      1  0.5024160000000  0.4763040000000  0.5249120000000 1.0
C      1  0.5281390000000  0.6412640000000  0.5097920000000 1.0
C      1  0.5969140000000  0.4941500000000  0.4573160000000 1.0
C      1  0.5149510000000  0.4268710000000  0.5130340000000 1.0
C      1  0.5148360000000  0.4119740000000  0.5393680000000 1.0
C      1  0.4388170000000  0.4890660000000  0.5140200000000 1.0
C      1  0.4894060000000  0.4566500000000  0.5049120000000 1.0
C      1  0.4316720000000  0.4937930000000  0.5910800000000 1.0
C      1  0.4410840000000  0.4859730000000  0.4323480000000 1.0
C      1  0.5428390000000  0.5733540000000  0.5317440000000 1.0
C      1  0.5982660000000  0.4662810000000  0.4452940000000 1.0
C      1  0.4912180000000  0.4437910000000  0.4733110000000 1.0
C      1  0.4654500000000  0.4469320000000  0.5434480000000 1.0
C      1  0.4683830000000  0.4740810000000  0.4846580000000 1.0
C      1  0.4723230000000  0.4458740000000  0.4211090000000 1.0
C      1  0.5737180000000  0.4767270000000  0.5641000000000 1.0
C      1  0.5073230000000  0.5263890000000  0.5312470000000 1.0
C      1  0.4801290000000  0.5387770000000  0.5466680000000 1.0
C      1  0.5190760000000  0.5658540000000  0.5503500000000 1.0
C      1  0.4754890000000  0.5380020000000  0.4282380000000 1.0
C      1  0.4306680000000  0.5277960000000  0.5195240000000 1.0
C      1  0.5771030000000  0.5455840000000  0.4853380000000 1.0
C      1  0.4710410000000  0.4744090000000  0.4332160000000 1.0
C      1  0.4578290000000  0.5673030000000  0.5137860000000 1.0
C      1  0.5611640000000  0.4736100000000  0.4293160000000 1.0
C      1  0.5804180000000  0.5836910000000  0.5230180000000 1.0
C      1  0.5670860000000  0.5041820000000  0.4431490000000 1.0
C      1  0.4908330000000  0.5709660000000  0.5685830000000 1.0
C      1  0.4988140000000  0.5274020000000  0.4482840000000 1.0
C      1  0.5531520000000  0.5499160000000  0.5916800000000 1.0
C      1  0.4449380000000  0.5264630000000  0.4738930000000 1.0
C      1  0.5772300000000  0.5089450000000  0.5731700000000 1.0
C      1  0.4368990000000  0.4130480000000  0.5168280000000 1.0
C      1  0.4886190000000  0.3960930000000  0.5410110000000 1.0
C      1  0.4662860000000  0.5759220000000  0.5455700000000 1.0
C      1  0.5721280000000  0.5360130000000  0.4540290000000 1.0
C      1  0.4307450000000  0.4234750000000  0.4594080000000 1.0
C      1  0.4031910000000  0.4668050000000  0.4966710000000 1.0
C      1  0.4855160000000  0.5225000000000  0.4771180000000 1.0
C      1  0.4675800000000  0.6013070000000  0.4718360000000 1.0
C      1  0.5299620000000  0.4790520000000  0.3715660000000 1.0
C      1  0.5187910000000  0.6158970000000  0.5133090000000 1.0
C      1  0.4086090000000  0.5515970000000  0.5140410000000 1.0
C      1  0.4935960000000  0.5415770000000  0.5040840000000 1.0
C      1  0.3945700000000  0.4394690000000  0.5012980000000 1.0
C      1  0.4077240000000  0.5409010000000  0.4724670000000 1.0
C      1  0.5654960000000  0.5255720000000  0.5976220000000 1.0
C      1  0.5440860000000  0.5090240000000  0.6071530000000 1.0
C      1  0.4727100000000  0.5783510000000  0.4531050000000 1.0
C      1  0.4254240000000  0.5047770000000  0.5400490000000 1.0
C      1  0.5023600000000  0.5792200000000  0.4263460000000 1.0
C      1  0.5186030000000  0.4774890000000  0.4490280000000 1.0
C      1  0.5427420000000  0.5785280000000  0.4532140000000 1.0
C      1  0.5185360000000  0.5047620000000  0.4642990000000 1.0
C      1  0.5942370000000  0.5241330000000  0.5002640000000 1.0
C      1  0.4613320000000  0.4181140000000  0.4668420000000 1.0
C      1  0.3959890000000  0.4953030000000  0.5340570000000 1.0
C      1  0.4821050000000  0.4287100000000  0.4449210000000 1.0
C      1  0.4931780000000  0.4863230000000  0.5573540000000 1.0
C      1  0.5442460000000  0.4842550000000  0.5921320000000 1.0
C      1  0.5761820000000  0.5921690000000  0.4743620000000 1.0
C      1  0.5643850000000  0.4555950000000  0.5230550000000 1.0
C      1  0.4840740000000  0.5471220000000  0.5855460000000 1.0
C      1  0.4610240000000  0.5350310000000  0.5123550000000 1.0
C      1  0.5411440000000  0.4281380000000  0.4195070000000 1.0
C      1  0.5243690000000  0.5431990000000  0.4896480000000 1.0
C      1  0.4760470000000  0.5935390000000  0.5024890000000 1.0
C      1  0.5598880000000  0.5318460000000  0.5404320000000 1.0
C      1  0.3945230000000  0.4922660000000  0.5057300000000 1.0
C      1  0.5245590000000  0.5445060000000  0.5762900000000 1.0
C      1  0.4839650000000  0.4313210000000  0.5229240000000 1.0
C      1  0.5815070000000  0.5559860000000  0.5430800000000 1.0
C      1  0.4645730000000  0.4999010000000  0.5449600000000 1.0
C      1  0.5964930000000  0.5053740000000  0.5267970000000 1.0
C      1  0.4401290000000  0.5076340000000  0.5664210000000 1.0
C      1  0.5179940000000  0.4303460000000  0.5652000000000 1.0
C      1  0.4896480000000  0.6002630000000  0.5497960000000 1.0
C      1  0.5605650000000  0.4936340000000  0.4748090000000 1.0
C      1  0.5805460000000  0.4319440000000  0.4886450000000 1.0
C      1  0.5518530000000  0.4348050000000  0.5000940000000 1.0
C      1  0.5670070000000  0.5851620000000  0.5522940000000 1.0
C      1  0.4397050000000  0.4591750000000  0.5278660000000 1.0
C      1  0.4501480000000  0.5580040000000  0.4819940000000 1.0
C      1  0.4050140000000  0.4315480000000  0.5473540000000 1.0
C      1  0.5465390000000  0.4759080000000  0.5436700000000 1.0
C      1  0.5734780000000  0.4471980000000  0.5612320000000 1.0
C      1  0.5425590000000  0.5489260000000  0.4614840000000 1.0
C      1  0.5217260000000  0.4955000000000  0.4243650000000 1.0
C      1  0.4342890000000  0.4853290000000  0.4650780000000 1.0
C      1  0.5661680000000  0.5923600000000  0.5010870000000 1.0
C      1  0.5903670000000  0.4940770000000  0.4892220000000 1.0
C      1  0.5587950000000  0.4227400000000  0.4434090000000 1.0
C      1  0.4883790000000  0.4135240000000  0.5682540000000 1.0
C      1  0.4883220000000  0.4724580000000  0.4574320000000 1.0
C      1  0.5256380000000  0.5153350000000  0.3997920000000 1.0
C      1  0.4238480000000  0.5731560000000  0.4940040000000 1.0
C      1  0.4897440000000  0.5145360000000  0.5761310000000 1.0
C      1  0.5377880000000  0.5113410000000  0.4915500000000 1.0
C      1  0.4289610000000  0.5527100000000  0.4485470000000 1.0
C      1  0.4209770000000  0.5200950000000  0.4506140000000 1.0
C      1  0.4935920000000  0.6083200000000  0.5224690000000 1.0
C      1  0.4943890000000  0.4998640000000  0.6031410000000 1.0
C      1  0.5799880000000  0.5679340000000  0.4630670000000 1.0
C      1  0.4902630000000  0.4975280000000  0.3947820000000 1.0
C      1  0.5187510000000  0.4639650000000  0.5592370000000 1.0
C      1  0.5902050000000  0.4391070000000  0.5378130000000 1.0
C      1  0.5160480000000  0.4755080000000  0.3974490000000 1.0
C      1  0.5725000000000  0.4641100000000  0.4664230000000 1.0
C      1  0.5343070000000  0.4590210000000  0.5874010000000 1.0
C      1  0.5300090000000  0.4266360000000  0.4578790000000 1.0
C      1  0.5156480000000  0.5770780000000  0.4823280000000 1.0
C      1  0.4709350000000  0.5611310000000  0.6381590000000 1.0
C      1  0.4488660000000  0.4321890000000  0.4938440000000 1.0
END
