TITL C-2848504-8560-118 -0.00163088682802729 125000 -730.376206368389 0 0 137 (C1) n - 1
REM
REM in /home/bkarasulu/work/CARBON/AIRSS/Generating-Clusters/AIREBO/with-SteepDescent/Only-C1/SD-CG-opt/Try1-1.4A-POS3A/HFTN-CG
REM
REM
REM
REM
REM
REM ./C.cell (11c1c37f851c82e70ff6c80c92926a4b)
REM
REM compiler GCC version 9.2.1 20190827 (Red Hat 9.2.1-1)
REM options -cpp -mtune=generic -march=x86-64 -g -O0 -fpre-include=/usr/include/finclude/math-vector-fortran.h
REM seed -1891671795 -577680886 -1913112366 -1984019078 -1999347482 1549708988 1067851830 861216937 122560558 -1310206270 187354534 177268329 -837493599 743715062 -473105463 -1321491710 -1867187318 -1285515035 173616361 -1209925400 1952150994 -143978165 761565883 -900754495 -859494107 1538827369 -1207969445 1583336652 -515432881 625548703 209968509 -167805361 1734974418
REM
CELL 1.54180   50.00000   50.00000   50.00000   90.00000   90.00000   90.00000
LATT -1
SFAC C  
C      1  0.5616600000000  0.4517890000000  0.4607240000000 1.0
C      1  0.5348770000000  0.5183590000000  0.4845860000000 1.0
C      1  0.4664660000000  0.4352220000000  0.4304950000000 1.0
C      1  0.5290810000000  0.4054260000000  0.4825630000000 1.0
C      1  0.4359880000000  0.5683030000000  0.5437030000000 1.0
C      1  0.4531730000000  0.4006520000000  0.4794300000000 1.0
C      1  0.5280710000000  0.5906760000000  0.4936480000000 1.0
C      1  0.4863590000000  0.5624060000000  0.5711530000000 1.0
C      1  0.5967210000000  0.5120710000000  0.4882950000000 1.0
C      1  0.4366260000000  0.4842660000000  0.5235690000000 1.0
C      1  0.5783010000000  0.5201050000000  0.5427730000000 1.0
C      1  0.4187530000000  0.5327590000000  0.5006270000000 1.0
C      1  0.4848860000000  0.4586140000000  0.4469390000000 1.0
C      1  0.4456010000000  0.4189360000000  0.4616550000000 1.0
C      1  0.4201290000000  0.5416930000000  0.5334220000000 1.0
C      1  0.4950610000000  0.5948280000000  0.5023310000000 1.0
C      1  0.4774810000000  0.4057750000000  0.4941450000000 1.0
C      1  0.4891490000000  0.5453230000000  0.4606370000000 1.0
C      1  0.5227730000000  0.5463230000000  0.5329980000000 1.0
C      1  0.5311080000000  0.3954480000000  0.5105090000000 1.0
C      1  0.5711300000000  0.4356080000000  0.4957620000000 1.0
C      1  0.4721210000000  0.5129250000000  0.5785990000000 1.0
C      1  0.4653560000000  0.4926440000000  0.4179970000000 1.0
C      1  0.5429160000000  0.5434900000000  0.5057130000000 1.0
C      1  0.4871950000000  0.4713810000000  0.5148820000000 1.0
C      1  0.4531120000000  0.4957250000000  0.5984230000000 1.0
C      1  0.5429150000000  0.5241270000000  0.5658350000000 1.0
C      1  0.4817070000000  0.5599860000000  0.4880400000000 1.0
C      1  0.4583230000000  0.5507010000000  0.5264500000000 1.0
C      1  0.5365170000000  0.4580630000000  0.5820270000000 1.0
C      1  0.4143470000000  0.4897540000000  0.5559330000000 1.0
C      1  0.4590700000000  0.5062900000000  0.4471610000000 1.0
C      1  0.5377540000000  0.4497590000000  0.4229950000000 1.0
C      1  0.5238480000000  0.5491810000000  0.5668630000000 1.0
C      1  0.4307900000000  0.4909910000000  0.4369930000000 1.0
C      1  0.4599470000000  0.5003600000000  0.5346860000000 1.0
C      1  0.5136790000000  0.4929870000000  0.4096470000000 1.0
C      1  0.4258310000000  0.4535460000000  0.5309250000000 1.0
C      1  0.5008480000000  0.5154180000000  0.5930770000000 1.0
C      1  0.5681680000000  0.4199770000000  0.5486590000000 1.0
C      1  0.4266860000000  0.5433030000000  0.4692470000000 1.0
C      1  0.4405850000000  0.5385480000000  0.5699790000000 1.0
C      1  0.5736950000000  0.4911710000000  0.5605580000000 1.0
C      1  0.4375090000000  0.4647970000000  0.5584710000000 1.0
C      1  0.5541680000000  0.4981850000000  0.5043320000000 1.0
C      1  0.5134220000000  0.4335290000000  0.4346720000000 1.0
C      1  0.4196250000000  0.4644190000000  0.4527480000000 1.0
C      1  0.5360930000000  0.4640430000000  0.5230990000000 1.0
C      1  0.5787620000000  0.5538350000000  0.5472510000000 1.0
C      1  0.5991520000000  0.5477890000000  0.5228170000000 1.0
C      1  0.5566210000000  0.5755320000000  0.5389470000000 1.0
C      1  0.4419640000000  0.4341150000000  0.5120960000000 1.0
C      1  0.5668000000000  0.5403250000000  0.5748220000000 1.0
C      1  0.5480340000000  0.5739860000000  0.5120190000000 1.0
C      1  0.5355450000000  0.5732560000000  0.4410620000000 1.0
C      1  0.5199360000000  0.4488650000000  0.5471820000000 1.0
C      1  0.4785740000000  0.5424850000000  0.4106810000000 1.0
C      1  0.5405140000000  0.4293450000000  0.5642620000000 1.0
C      1  0.5014590000000  0.4581640000000  0.4766280000000 1.0
C      1  0.5179050000000  0.4816130000000  0.5044790000000 1.0
C      1  0.5099870000000  0.5324610000000  0.4055800000000 1.0
C      1  0.5723080000000  0.5362210000000  0.4580290000000 1.0
C      1  0.5079600000000  0.4658910000000  0.4230430000000 1.0
C      1  0.5684500000000  0.5524990000000  0.4851340000000 1.0
C      1  0.5937980000000  0.4722940000000  0.4711630000000 1.0
C      1  0.5466580000000  0.5337900000000  0.4420640000000 1.0
C      1  0.4999120000000  0.4058860000000  0.4721980000000 1.0
C      1  0.4848400000000  0.5096630000000  0.4035710000000 1.0
C      1  0.5661720000000  0.4226800000000  0.5216870000000 1.0
C      1  0.5951010000000  0.4937930000000  0.5345720000000 1.0
C      1  0.5560460000000  0.4815000000000  0.5799580000000 1.0
C      1  0.4283630000000  0.5174500000000  0.5519170000000 1.0
C      1  0.5924930000000  0.5379470000000  0.4984980000000 1.0
C      1  0.5068770000000  0.4917450000000  0.4743750000000 1.0
C      1  0.4334140000000  0.4376440000000  0.4381070000000 1.0
C      1  0.4391420000000  0.4933660000000  0.4938090000000 1.0
C      1  0.4827930000000  0.4813110000000  0.5454730000000 1.0
C      1  0.5760340000000  0.4788750000000  0.4459750000000 1.0
C      1  0.5048630000000  0.4438340000000  0.5056200000000 1.0
C      1  0.5198190000000  0.5160970000000  0.4323500000000 1.0
C      1  0.4923840000000  0.4194090000000  0.4458970000000 1.0
C      1  0.4489240000000  0.4643940000000  0.4242090000000 1.0
C      1  0.5312110000000  0.4109400000000  0.5367950000000 1.0
C      1  0.4012370000000  0.5053920000000  0.4977860000000 1.0
C      1  0.5471530000000  0.5082330000000  0.5360650000000 1.0
C      1  0.5320730000000  0.5026750000000  0.5862510000000 1.0
C      1  0.4684470000000  0.5967290000000  0.4806000000000 1.0
C      1  0.4768290000000  0.4880140000000  0.4619510000000 1.0
C      1  0.5038450000000  0.5801630000000  0.4733090000000 1.0
C      1  0.5455070000000  0.4996090000000  0.4067420000000 1.0
C      1  0.4585180000000  0.4499140000000  0.4665650000000 1.0
C      1  0.4114690000000  0.4582230000000  0.5040130000000 1.0
C      1  0.4711340000000  0.5374560000000  0.5550590000000 1.0
C      1  0.5010470000000  0.5237530000000  0.5462620000000 1.0
C      1  0.4666710000000  0.4814740000000  0.4897070000000 1.0
C      1  0.4484050000000  0.5293970000000  0.4082070000000 1.0
C      1  0.4582760000000  0.5314540000000  0.4639750000000 1.0
C      1  0.5315340000000  0.4998260000000  0.4562730000000 1.0
C      1  0.4133640000000  0.4867500000000  0.4762150000000 1.0
C      1  0.4272970000000  0.5694290000000  0.4875100000000 1.0
C      1  0.5212360000000  0.5412140000000  0.4633880000000 1.0
C      1  0.4701830000000  0.5884200000000  0.4534010000000 1.0
C      1  0.5397640000000  0.4673260000000  0.4827020000000 1.0
C      1  0.4660420000000  0.4488940000000  0.4975020000000 1.0
C      1  0.4503960000000  0.5231450000000  0.4937940000000 1.0
C      1  0.5051310000000  0.5817410000000  0.5532670000000 1.0
C      1  0.5875180000000  0.5089780000000  0.4568470000000 1.0
C      1  0.4886270000000  0.5766550000000  0.5259300000000 1.0
C      1  0.4956600000000  0.5457990000000  0.5134650000000 1.0
C      1  0.4549690000000  0.5733760000000  0.5013250000000 1.0
C      1  0.4657290000000  0.5804940000000  0.5510700000000 1.0
C      1  0.4931620000000  0.4387980000000  0.5371450000000 1.0
C      1  0.5073430000000  0.5770550000000  0.4444570000000 1.0
C      1  0.5163710000000  0.5090310000000  0.5216450000000 1.0
C      1  0.4295790000000  0.4498320000000  0.4818120000000 1.0
C      1  0.5372210000000  0.4701880000000  0.4497020000000 1.0
C      1  0.5708960000000  0.4697030000000  0.4961660000000 1.0
C      1  0.5081870000000  0.4660360000000  0.5811670000000 1.0
C      1  0.5043880000000  0.5469160000000  0.5922570000000 1.0
C      1  0.5414610000000  0.5666950000000  0.4732870000000 1.0
C      1  0.4801710000000  0.5624770000000  0.4337680000000 1.0
C      1  0.5348700000000  0.5773620000000  0.5560700000000 1.0
C      1  0.5059190000000  0.4961410000000  0.5655100000000 1.0
C      1  0.5355330000000  0.4348550000000  0.5133790000000 1.0
C      1  0.5021020000000  0.5187780000000  0.4938500000000 1.0
C      1  0.5622540000000  0.5055130000000  0.4313640000000 1.0
C      1  0.4629760000000  0.4432870000000  0.5515110000000 1.0
C      1  0.4287420000000  0.5199010000000  0.4245740000000 1.0
C      1  0.5946020000000  0.4908270000000  0.5069660000000 1.0
C      1  0.4708300000000  0.5229540000000  0.5177950000000 1.0
C      1  0.4070740000000  0.4975800000000  0.5247970000000 1.0
C      1  0.5309610000000  0.4812570000000  0.5489670000000 1.0
C      1  0.4866240000000  0.4496740000000  0.5750220000000 1.0
C      1  0.4609710000000  0.4818480000000  0.5700700000000 1.0
C      1  0.4154210000000  0.5376950000000  0.4407740000000 1.0
C      1  0.5520710000000  0.4223240000000  0.4743400000000 1.0
C      1  0.4697750000000  0.4198560000000  0.5241790000000 1.0
END
