TITL C-2848503-6230-159 -6.53338164922958e-05 125000 -125.859120915209 0 0 24 (C1) n - 1
REM
REM in /home/bkarasulu/work/CARBON/AIRSS/Generating-Clusters/AIREBO/with-SteepDescent/Only-C1/SD-CG-opt/Try1-1.4A-POS3A/HFTN-CG
REM
REM
REM
REM
REM
REM ./C.cell (11c1c37f851c82e70ff6c80c92926a4b)
REM
REM compiler GCC version 9.2.1 20190827 (Red Hat 9.2.1-1)
REM options -cpp -mtune=generic -march=x86-64 -g -O0 -fpre-include=/usr/include/finclude/math-vector-fortran.h
REM seed 651971772 847854081 849019172 509528890 -1169966049 594897429 -1916858785 -1283642570 -730899845 1979086537 -1634582358 -493057696 -1873629579 221152805 -2003240568 -1412046570 -1307541738 1857649986 946188384 1716770264 -1808995945 -1128580729 -786020611 -1944951084 -41252926 -1541306442 -1749334659 -1338438569 -1489384175 1240172242 1834677441 1017965253 -1378253012
REM
CELL 1.54180   50.00000   50.00000   50.00000   90.00000   90.00000   90.00000
LATT -1
SFAC C  
C      1  0.4505990000000  0.5620370000000  0.4943960000000 1.0
C      1  0.4823500000000  0.5663260000000  0.4830080000000 1.0
C      1  0.5477730000000  0.4713750000000  0.5667060000000 1.0
C      1  0.5104070000000  0.4802270000000  0.4789370000000 1.0
C      1  0.4991040000000  0.5378080000000  0.4856020000000 1.0
C      1  0.5528430000000  0.5030800000000  0.4837050000000 1.0
C      1  0.5362070000000  0.4756860000000  0.5197660000000 1.0
C      1  0.4873480000000  0.4469050000000  0.5441680000000 1.0
C      1  0.4836220000000  0.5182240000000  0.5461130000000 1.0
C      1  0.5015920000000  0.4716030000000  0.5510470000000 1.0
C      1  0.4794920000000  0.5185500000000  0.4833240000000 1.0
C      1  0.4551980000000  0.5323360000000  0.4787070000000 1.0
C      1  0.4861650000000  0.4930550000000  0.5374260000000 1.0
C      1  0.5330890000000  0.4868500000000  0.4944200000000 1.0
C      1  0.5140120000000  0.4671090000000  0.4548860000000 1.0
C      1  0.4716350000000  0.4521540000000  0.5209940000000 1.0
C      1  0.4565010000000  0.5614850000000  0.4611430000000 1.0
C      1  0.4747220000000  0.4801260000000  0.5140780000000 1.0
C      1  0.4637340000000  0.4762760000000  0.4674150000000 1.0
C      1  0.5702550000000  0.5204300000000  0.4746040000000 1.0
C      1  0.4817750000000  0.4887290000000  0.4859200000000 1.0
C      1  0.5297640000000  0.4730260000000  0.5468260000000 1.0
C      1  0.5171390000000  0.4524540000000  0.4333840000000 1.0
C      1  0.5146730000000  0.5641500000000  0.4934280000000 1.0
END
