TITL C-2848504-8560-455 0.000193504971108839 125000 -712.646212182871 0 0 130 (C1) n - 1
REM
REM in /home/bkarasulu/work/CARBON/AIRSS/Generating-Clusters/AIREBO/with-SteepDescent/Only-C1/SD-CG-opt/Try1-1.4A-POS3A/HFTN-CG
REM
REM
REM
REM
REM
REM ./C.cell (11c1c37f851c82e70ff6c80c92926a4b)
REM
REM compiler GCC version 9.2.1 20190827 (Red Hat 9.2.1-1)
REM options -cpp -mtune=generic -march=x86-64 -g -O0 -fpre-include=/usr/include/finclude/math-vector-fortran.h
REM seed 1266499266 -2108900890 4113515 384484998 1689857613 1828630592 -234508249 1769423621 -836681793 1644493094 -599121579 -1584430277 -1691645289 -1183221927 477795254 -1643350136 336403056 -1023555581 2101355268 -1150503351 75614214 148174196 1127022691 23039418 -1716094238 1997217918 -343156263 -1535642671 845617497 -720186972 -1111853417 377561385 639394857
REM
CELL 1.54180   50.00000   50.00000   50.00000   90.00000   90.00000   90.00000
LATT -1
SFAC C  
C      1  0.5456830000000  0.5474580000000  0.5019620000000 1.0
C      1  0.4449680000000  0.5142730000000  0.4766640000000 1.0
C      1  0.4434330000000  0.5792190000000  0.5286380000000 1.0
C      1  0.5889110000000  0.5411250000000  0.5150220000000 1.0
C      1  0.4805220000000  0.3638890000000  0.4941150000000 1.0
C      1  0.5043580000000  0.4851620000000  0.5877440000000 1.0
C      1  0.5113290000000  0.4225180000000  0.5643310000000 1.0
C      1  0.5822810000000  0.5028210000000  0.5059160000000 1.0
C      1  0.5770200000000  0.5155580000000  0.4417160000000 1.0
C      1  0.4692810000000  0.4398940000000  0.5086950000000 1.0
C      1  0.5159620000000  0.5040220000000  0.4116560000000 1.0
C      1  0.5277450000000  0.4576720000000  0.5092020000000 1.0
C      1  0.4459620000000  0.5368220000000  0.4309190000000 1.0
C      1  0.4709430000000  0.5250570000000  0.5877920000000 1.0
C      1  0.5221980000000  0.5892490000000  0.4914300000000 1.0
C      1  0.5395420000000  0.5653170000000  0.4745760000000 1.0
C      1  0.5547130000000  0.5166090000000  0.4965370000000 1.0
C      1  0.4373470000000  0.4565360000000  0.5504370000000 1.0
C      1  0.5935190000000  0.5188470000000  0.4636020000000 1.0
C      1  0.4943730000000  0.4256330000000  0.4920540000000 1.0
C      1  0.4625290000000  0.4863500000000  0.4439400000000 1.0
C      1  0.4081800000000  0.5290400000000  0.4801270000000 1.0
C      1  0.4516190000000  0.4303380000000  0.4700190000000 1.0
C      1  0.4986250000000  0.5317630000000  0.5939490000000 1.0
C      1  0.4759530000000  0.5734880000000  0.4804800000000 1.0
C      1  0.5238540000000  0.4953670000000  0.5617700000000 1.0
C      1  0.5203850000000  0.4697260000000  0.4099040000000 1.0
C      1  0.4008890000000  0.4703650000000  0.5137110000000 1.0
C      1  0.5406130000000  0.4610100000000  0.4478630000000 1.0
C      1  0.5427300000000  0.4145980000000  0.5229440000000 1.0
C      1  0.4286980000000  0.5484570000000  0.5290850000000 1.0
C      1  0.4781650000000  0.5117420000000  0.4272240000000 1.0
C      1  0.4959200000000  0.5873980000000  0.5780380000000 1.0
C      1  0.4678880000000  0.4107670000000  0.4813370000000 1.0
C      1  0.4911690000000  0.4847010000000  0.4010230000000 1.0
C      1  0.5425450000000  0.4646240000000  0.4793910000000 1.0
C      1  0.4701730000000  0.5568780000000  0.5098200000000 1.0
C      1  0.4535540000000  0.4661950000000  0.5787260000000 1.0
C      1  0.5148940000000  0.4447990000000  0.4326310000000 1.0
C      1  0.4737970000000  0.5062550000000  0.4872370000000 1.0
C      1  0.5108480000000  0.5281320000000  0.4992520000000 1.0
C      1  0.5266350000000  0.5745050000000  0.5767920000000 1.0
C      1  0.4905390000000  0.5933850000000  0.5480350000000 1.0
C      1  0.4631860000000  0.4986410000000  0.5821310000000 1.0
C      1  0.4735720000000  0.5947840000000  0.5257690000000 1.0
C      1  0.5388900000000  0.5248990000000  0.4064840000000 1.0
C      1  0.5739750000000  0.4849990000000  0.5448220000000 1.0
C      1  0.5639000000000  0.5637130000000  0.5234290000000 1.0
C      1  0.4250330000000  0.4929210000000  0.4815570000000 1.0
C      1  0.3973750000000  0.5028680000000  0.4653410000000 1.0
C      1  0.4856640000000  0.4666960000000  0.5898990000000 1.0
C      1  0.4380880000000  0.4668780000000  0.4407790000000 1.0
C      1  0.5678770000000  0.4880390000000  0.4373410000000 1.0
C      1  0.5281740000000  0.4276940000000  0.4951430000000 1.0
C      1  0.4332260000000  0.4743800000000  0.5044340000000 1.0
C      1  0.4980540000000  0.5514670000000  0.4698570000000 1.0
C      1  0.5797850000000  0.5364030000000  0.4847640000000 1.0
C      1  0.5014520000000  0.4669980000000  0.4724910000000 1.0
C      1  0.5124910000000  0.4156400000000  0.5330500000000 1.0
C      1  0.5254240000000  0.5540220000000  0.5284760000000 1.0
C      1  0.4163130000000  0.4775910000000  0.4540970000000 1.0
C      1  0.5402360000000  0.4852590000000  0.5235520000000 1.0
C      1  0.4663310000000  0.4094020000000  0.5413880000000 1.0
C      1  0.5299000000000  0.4936750000000  0.4923140000000 1.0
C      1  0.5137690000000  0.4818710000000  0.4473920000000 1.0
C      1  0.4709070000000  0.4520470000000  0.5528210000000 1.0
C      1  0.5705670000000  0.5373720000000  0.5433910000000 1.0
C      1  0.4993880000000  0.5543780000000  0.5724060000000 1.0
C      1  0.4462840000000  0.5192230000000  0.5269200000000 1.0
C      1  0.5551390000000  0.4159270000000  0.4780850000000 1.0
C      1  0.5182510000000  0.5153190000000  0.4688180000000 1.0
C      1  0.5691960000000  0.5628040000000  0.4729540000000 1.0
C      1  0.4833070000000  0.5479090000000  0.5430510000000 1.0
C      1  0.4902120000000  0.5865870000000  0.4525210000000 1.0
C      1  0.4681310000000  0.5081290000000  0.3960670000000 1.0
C      1  0.4720590000000  0.5259260000000  0.5117030000000 1.0
C      1  0.4452540000000  0.4306990000000  0.5309310000000 1.0
C      1  0.4439340000000  0.5680060000000  0.4704000000000 1.0
C      1  0.4991960000000  0.5242370000000  0.5275410000000 1.0
C      1  0.5182670000000  0.5781380000000  0.5464510000000 1.0
C      1  0.4382670000000  0.5336730000000  0.5555000000000 1.0
C      1  0.5013160000000  0.4776300000000  0.5487190000000 1.0
C      1  0.4807220000000  0.4427250000000  0.4331790000000 1.0
C      1  0.5446180000000  0.5871380000000  0.5170000000000 1.0
C      1  0.5395560000000  0.5023900000000  0.4456820000000 1.0
C      1  0.5521460000000  0.5102750000000  0.5379450000000 1.0
C      1  0.5082560000000  0.5598870000000  0.4997080000000 1.0
C      1  0.5966540000000  0.4963480000000  0.4824610000000 1.0
C      1  0.4872020000000  0.4014040000000  0.5254870000000 1.0
C      1  0.5918020000000  0.4692960000000  0.4760650000000 1.0
C      1  0.4410550000000  0.5708750000000  0.4992090000000 1.0
C      1  0.4789040000000  0.3899170000000  0.5006190000000 1.0
C      1  0.4089260000000  0.5018050000000  0.5204290000000 1.0
C      1  0.4902280000000  0.5955330000000  0.5012780000000 1.0
C      1  0.4202310000000  0.4160250000000  0.5210210000000 1.0
C      1  0.5640180000000  0.4425140000000  0.4858660000000 1.0
C      1  0.5049250000000  0.5329040000000  0.4269830000000 1.0
C      1  0.4874710000000  0.4734360000000  0.4310710000000 1.0
C      1  0.5144260000000  0.4507710000000  0.5363440000000 1.0
C      1  0.4171940000000  0.4759510000000  0.5410280000000 1.0
C      1  0.4526070000000  0.4873200000000  0.5263270000000 1.0
C      1  0.4720470000000  0.5436720000000  0.4497550000000 1.0
C      1  0.5452980000000  0.5071840000000  0.5947810000000 1.0
C      1  0.4534900000000  0.4406450000000  0.4432410000000 1.0
C      1  0.5374510000000  0.4371970000000  0.5554620000000 1.0
C      1  0.4713870000000  0.4916680000000  0.5540920000000 1.0
C      1  0.4469250000000  0.5255750000000  0.4065880000000 1.0
C      1  0.5622690000000  0.4338240000000  0.5392740000000 1.0
C      1  0.4521210000000  0.4564900000000  0.4878640000000 1.0
C      1  0.5860010000000  0.4535100000000  0.5026070000000 1.0
C      1  0.4116850000000  0.5271670000000  0.5087420000000 1.0
C      1  0.5166140000000  0.5106790000000  0.5978670000000 1.0
C      1  0.4340890000000  0.5406180000000  0.4613680000000 1.0
C      1  0.4803610000000  0.4673980000000  0.5239680000000 1.0
C      1  0.5737620000000  0.4651540000000  0.4544140000000 1.0
C      1  0.5916300000000  0.5121890000000  0.5345510000000 1.0
C      1  0.4979720000000  0.4853230000000  0.5006390000000 1.0
C      1  0.4874790000000  0.5148010000000  0.4590430000000 1.0
C      1  0.5781270000000  0.4562550000000  0.5302040000000 1.0
C      1  0.4706720000000  0.4756000000000  0.4731670000000 1.0
C      1  0.4927260000000  0.5643710000000  0.4326350000000 1.0
C      1  0.5244390000000  0.5444210000000  0.4523520000000 1.0
C      1  0.5118060000000  0.6017300000000  0.4615590000000 1.0
C      1  0.5136040000000  0.4378760000000  0.4661430000000 1.0
C      1  0.4869940000000  0.4316290000000  0.5709310000000 1.0
C      1  0.4619120000000  0.5417280000000  0.5668220000000 1.0
C      1  0.5506940000000  0.5325190000000  0.4343200000000 1.0
C      1  0.5544970000000  0.4907210000000  0.5720680000000 1.0
C      1  0.5245530000000  0.5243330000000  0.5452680000000 1.0
C      1  0.5457690000000  0.5348040000000  0.3834770000000 1.0
END
