TITL C-2848505-4874-92 0.149401058240322 125000 -295.420842342053 0 0 53 (C1) n - 1
REM
REM in /home/bkarasulu/work/CARBON/AIRSS/Generating-Clusters/AIREBO/with-SteepDescent/Only-C1/SD-CG-opt/Try1-1.4A-POS3A/HFTN-CG
REM
REM
REM
REM
REM
REM ./C.cell (11c1c37f851c82e70ff6c80c92926a4b)
REM
REM compiler GCC version 9.2.1 20190827 (Red Hat 9.2.1-1)
REM options -cpp -mtune=generic -march=x86-64 -g -O0 -fpre-include=/usr/include/finclude/math-vector-fortran.h
REM seed -1512300253 -1202345254 -742418372 -456331470 1315882266 -2075493135 -473982063 1449604170 -1679197065 -452873638 902792696 -1466740125 1025988016 -1542611640 1603363626 -1654990831 1112079349 -2008790168 -154083220 -197934840 -1975958220 -925172793 -827665445 764804268 -408133834 -1416994700 867406772 -454078160 -2023700507 -614849391 1422022577 -1283250255 -1996811652
REM
CELL 1.54180   50.00000   50.00000   50.00000   90.00000   90.00000   90.00000
LATT -1
SFAC C  
C      1  0.5676360000000  0.5497010000000  0.5088530000000 1.0
C      1  0.5363660000000  0.4934670000000  0.4515500000000 1.0
C      1  0.4778700000000  0.5314050000000  0.4376910000000 1.0
C      1  0.4403480000000  0.4847250000000  0.5860110000000 1.0
C      1  0.5017530000000  0.5633820000000  0.4741530000000 1.0
C      1  0.5529860000000  0.4715940000000  0.4888760000000 1.0
C      1  0.5024850000000  0.5308660000000  0.5208950000000 1.0
C      1  0.5094730000000  0.4625270000000  0.5706370000000 1.0
C      1  0.5553610000000  0.5264960000000  0.5193920000000 1.0
C      1  0.5226850000000  0.4484070000000  0.5534730000000 1.0
C      1  0.4962000000000  0.4845680000000  0.5275110000000 1.0
C      1  0.4604780000000  0.4386650000000  0.4750130000000 1.0
C      1  0.4764990000000  0.5038080000000  0.4799190000000 1.0
C      1  0.5365920000000  0.5094500000000  0.4738980000000 1.0
C      1  0.5199890000000  0.4973680000000  0.5081710000000 1.0
C      1  0.4916940000000  0.4552720000000  0.5128920000000 1.0
C      1  0.4884900000000  0.5116110000000  0.5760180000000 1.0
C      1  0.5206080000000  0.4564380000000  0.5251320000000 1.0
C      1  0.4779940000000  0.5108370000000  0.5114580000000 1.0
C      1  0.5025970000000  0.5342360000000  0.5702480000000 1.0
C      1  0.4546570000000  0.5530050000000  0.5340640000000 1.0
C      1  0.5606630000000  0.4511020000000  0.4447560000000 1.0
C      1  0.5329570000000  0.5301310000000  0.5361010000000 1.0
C      1  0.4291120000000  0.4762230000000  0.4695220000000 1.0
C      1  0.5414520000000  0.4250320000000  0.4946910000000 1.0
C      1  0.5263970000000  0.5574400000000  0.4869860000000 1.0
C      1  0.5091440000000  0.5280300000000  0.4298610000000 1.0
C      1  0.5233260000000  0.5288220000000  0.4955550000000 1.0
C      1  0.5678420000000  0.4469540000000  0.5269820000000 1.0
C      1  0.5151240000000  0.4997100000000  0.4334590000000 1.0
C      1  0.3964340000000  0.5165590000000  0.4789520000000 1.0
C      1  0.5520240000000  0.5014580000000  0.5024370000000 1.0
C      1  0.4641990000000  0.5418930000000  0.5102900000000 1.0
C      1  0.4398460000000  0.4984810000000  0.4496750000000 1.0
C      1  0.4436920000000  0.5225640000000  0.4945530000000 1.0
C      1  0.4690620000000  0.5047450000000  0.4508060000000 1.0
C      1  0.5506860000000  0.5296780000000  0.5820970000000 1.0
C      1  0.4756170000000  0.4380650000000  0.4512050000000 1.0
C      1  0.5308910000000  0.5313330000000  0.5641570000000 1.0
C      1  0.4932750000000  0.5478590000000  0.5465190000000 1.0
C      1  0.4226770000000  0.5082270000000  0.4768110000000 1.0
C      1  0.4912920000000  0.4839540000000  0.5584310000000 1.0
C      1  0.5505550000000  0.4702810000000  0.4605160000000 1.0
C      1  0.4836600000000  0.4588250000000  0.4354750000000 1.0
C      1  0.4794020000000  0.5614150000000  0.4913390000000 1.0
C      1  0.4901010000000  0.4857040000000  0.4363090000000 1.0
C      1  0.4986940000000  0.5531520000000  0.4482440000000 1.0
C      1  0.4977840000000  0.4856260000000  0.4876030000000 1.0
C      1  0.4346590000000  0.4498840000000  0.4730910000000 1.0
C      1  0.5521320000000  0.5666730000000  0.4930410000000 1.0
C      1  0.5457920000000  0.4495740000000  0.5087190000000 1.0
C      1  0.4744630000000  0.4410600000000  0.4990820000000 1.0
C      1  0.4642880000000  0.4917180000000  0.5768800000000 1.0
END
