TITL C-2848505-4874-336 0.00118346431030805 125000 -460.214345276752 0 0 82 (C1) n - 1
REM
REM in /home/bkarasulu/work/CARBON/AIRSS/Generating-Clusters/AIREBO/with-SteepDescent/Only-C1/SD-CG-opt/Try1-1.4A-POS3A/HFTN-CG
REM
REM
REM
REM
REM
REM ./C.cell (11c1c37f851c82e70ff6c80c92926a4b)
REM
REM compiler GCC version 9.2.1 20190827 (Red Hat 9.2.1-1)
REM options -cpp -mtune=generic -march=x86-64 -g -O0 -fpre-include=/usr/include/finclude/math-vector-fortran.h
REM seed 2101219106 2138711082 -459950776 -1967961226 -1758633573 496312174 898304083 1612087160 -568556724 403130120 1353292893 2085412064 1741702192 -91410855 -631990425 -1563613078 -1122129727 -811434889 1243469087 -14939128 -1798956749 1083634577 1365674546 896815885 2138009930 -718327673 -207675459 1982969684 -2140197287 1308987520 1775376757 -1551387079 -514820501
REM
CELL 1.54180   50.00000   50.00000   50.00000   90.00000   90.00000   90.00000
LATT -1
SFAC C  
C      1  0.5593990000000  0.5101300000000  0.5095630000000 1.0
C      1  0.4898610000000  0.4961540000000  0.4810200000000 1.0
C      1  0.4955710000000  0.4227310000000  0.5117020000000 1.0
C      1  0.5932620000000  0.4704200000000  0.4575450000000 1.0
C      1  0.5513520000000  0.5644480000000  0.5202330000000 1.0
C      1  0.5005310000000  0.5146440000000  0.4545280000000 1.0
C      1  0.4614690000000  0.5419860000000  0.5502440000000 1.0
C      1  0.4967990000000  0.5551060000000  0.5216460000000 1.0
C      1  0.5396640000000  0.4961210000000  0.4935010000000 1.0
C      1  0.5536790000000  0.5191840000000  0.5365490000000 1.0
C      1  0.4739100000000  0.4198560000000  0.5277990000000 1.0
C      1  0.5192330000000  0.5099750000000  0.5744920000000 1.0
C      1  0.5322930000000  0.4488760000000  0.5545540000000 1.0
C      1  0.4803800000000  0.4387770000000  0.4593110000000 1.0
C      1  0.4442700000000  0.4930650000000  0.4305500000000 1.0
C      1  0.4562480000000  0.5054370000000  0.5129250000000 1.0
C      1  0.5170180000000  0.4841910000000  0.4739860000000 1.0
C      1  0.4795160000000  0.4685530000000  0.5245420000000 1.0
C      1  0.5568160000000  0.4437340000000  0.5387120000000 1.0
C      1  0.4779510000000  0.5322170000000  0.4694380000000 1.0
C      1  0.4507080000000  0.4971040000000  0.4061870000000 1.0
C      1  0.5696790000000  0.5541290000000  0.5014200000000 1.0
C      1  0.5145680000000  0.5176670000000  0.5447020000000 1.0
C      1  0.5026860000000  0.4619950000000  0.5655350000000 1.0
C      1  0.4472640000000  0.5175110000000  0.5497930000000 1.0
C      1  0.5098790000000  0.4392080000000  0.4524650000000 1.0
C      1  0.4395380000000  0.5997490000000  0.5077100000000 1.0
C      1  0.4657840000000  0.4890130000000  0.5479860000000 1.0
C      1  0.4220890000000  0.5149970000000  0.4739530000000 1.0
C      1  0.5087970000000  0.5616090000000  0.5515400000000 1.0
C      1  0.5108400000000  0.4634460000000  0.5325430000000 1.0
C      1  0.5102170000000  0.5092000000000  0.5044400000000 1.0
C      1  0.5487130000000  0.4242870000000  0.4849480000000 1.0
C      1  0.5340910000000  0.5426470000000  0.4232950000000 1.0
C      1  0.4602740000000  0.4437390000000  0.5325040000000 1.0
C      1  0.5220690000000  0.4454260000000  0.5059730000000 1.0
C      1  0.5548000000000  0.5011480000000  0.4516900000000 1.0
C      1  0.4410250000000  0.4689870000000  0.5345970000000 1.0
C      1  0.5689100000000  0.4440260000000  0.4745940000000 1.0
C      1  0.4835110000000  0.4815270000000  0.5734250000000 1.0
C      1  0.5242580000000  0.4912440000000  0.5299130000000 1.0
C      1  0.4658060000000  0.5547290000000  0.5228980000000 1.0
C      1  0.5649270000000  0.4763430000000  0.4647590000000 1.0
C      1  0.5076220000000  0.5417500000000  0.4991690000000 1.0
C      1  0.4279510000000  0.5153910000000  0.5265990000000 1.0
C      1  0.4477930000000  0.5755540000000  0.5060530000000 1.0
C      1  0.5182560000000  0.4665950000000  0.4486350000000 1.0
C      1  0.5327230000000  0.5418930000000  0.5375650000000 1.0
C      1  0.5944350000000  0.4817820000000  0.5196540000000 1.0
C      1  0.4099100000000  0.5145010000000  0.5058650000000 1.0
C      1  0.4825840000000  0.5475850000000  0.5677140000000 1.0
C      1  0.5537330000000  0.4896750000000  0.5434000000000 1.0
C      1  0.4480400000000  0.4678300000000  0.4802280000000 1.0
C      1  0.4232840000000  0.4394830000000  0.4624190000000 1.0
C      1  0.5274850000000  0.4964810000000  0.4380260000000 1.0
C      1  0.4942010000000  0.5045610000000  0.5868420000000 1.0
C      1  0.5642960000000  0.5273260000000  0.4586560000000 1.0
C      1  0.5879470000000  0.5057370000000  0.5028540000000 1.0
C      1  0.4530550000000  0.4394160000000  0.4647550000000 1.0
C      1  0.4339680000000  0.4889650000000  0.4585200000000 1.0
C      1  0.4117150000000  0.4639460000000  0.4642160000000 1.0
C      1  0.4694050000000  0.5299890000000  0.5001950000000 1.0
C      1  0.4813080000000  0.5627010000000  0.4597900000000 1.0
C      1  0.5331300000000  0.5813240000000  0.5379840000000 1.0
C      1  0.5794660000000  0.5325490000000  0.4837210000000 1.0
C      1  0.5722190000000  0.4693730000000  0.5355850000000 1.0
C      1  0.4933000000000  0.4469040000000  0.4878960000000 1.0
C      1  0.4337940000000  0.5405080000000  0.4630980000000 1.0
C      1  0.4331270000000  0.4814600000000  0.5060880000000 1.0
C      1  0.5083940000000  0.5574640000000  0.4749340000000 1.0
C      1  0.4059720000000  0.4877130000000  0.4865460000000 1.0
C      1  0.5487560000000  0.5488820000000  0.4470870000000 1.0
C      1  0.4864200000000  0.5076930000000  0.5284480000000 1.0
C      1  0.4826650000000  0.5306470000000  0.5907300000000 1.0
C      1  0.5481390000000  0.4261200000000  0.5160290000000 1.0
C      1  0.4545280000000  0.5544460000000  0.4459220000000 1.0
C      1  0.5152880000000  0.5228700000000  0.4260380000000 1.0
C      1  0.4758970000000  0.4728980000000  0.4932120000000 1.0
C      1  0.4521190000000  0.5528710000000  0.4855520000000 1.0
C      1  0.5459000000000  0.4637720000000  0.4899820000000 1.0
C      1  0.5336460000000  0.5649750000000  0.4647810000000 1.0
C      1  0.5278730000000  0.4210300000000  0.4655030000000 1.0
END
