TITL C-2848501-3133-438 -507.442296676074 125000 -1079.08171003683 0 0 199 (C1) n - 1
REM
REM in /home/bkarasulu/work/CARBON/AIRSS/Generating-Clusters/AIREBO/with-SteepDescent/Only-C1/SD-CG-opt/Try1-1.4A-POS3A/HFTN-CG
REM
REM
REM
REM
REM
REM ./C.cell (11c1c37f851c82e70ff6c80c92926a4b)
REM
REM compiler GCC version 9.2.1 20190827 (Red Hat 9.2.1-1)
REM options -cpp -mtune=generic -march=x86-64 -g -O0 -fpre-include=/usr/include/finclude/math-vector-fortran.h
REM seed -1366376200 286193675 1730747400 -141924275 2125630185 616625852 2018391729 -1584426244 118531739 984119208 -1023221879 1675805915 1695732183 -1350157210 13158139 -1000402940 -746799659 1619064728 769384434 1687078725 -1027718641 -984543416 1905635611 1706784094 1569512908 1635676160 -1821988583 1493373157 -1329523844 -1762605441 -371615447 1121068084 -1983755048
REM
CELL 1.54180   50.00000   50.00000   50.00000   90.00000   90.00000   90.00000
LATT -1
SFAC C  
C      1  0.5960920000000  0.5020720000000  0.4575460000000 1.0
C      1  0.5073180000000  0.3883270000000  0.5543910000000 1.0
C      1  0.5598730000000  0.6014080000000  0.5061390000000 1.0
C      1  0.4345680000000  0.5406190000000  0.4888260000000 1.0
C      1  0.5092320000000  0.4248780000000  0.4760020000000 1.0
C      1  0.4627930000000  0.5702310000000  0.4265420000000 1.0
C      1  0.5147640000000  0.5435440000000  0.5272840000000 1.0
C      1  0.4571820000000  0.4426970000000  0.5766900000000 1.0
C      1  0.4479800000000  0.5976210000000  0.5142520000000 1.0
C      1  0.5004450000000  0.4903080000000  0.4600880000000 1.0
C      1  0.5508170000000  0.4387460000000  0.5749210000000 1.0
C      1  0.5356430000000  0.6073980000000  0.4907370000000 1.0
C      1  0.6031660000000  0.5564000000000  0.5221870000000 1.0
C      1  0.5419750000000  0.5240330000000  0.5792130000000 1.0
C      1  0.4862920000000  0.5353560000000  0.4860270000000 1.0
C      1  0.5290620000000  0.4516450000000  0.4145950000000 1.0
C      1  0.5394190000000  0.4746550000000  0.6072790000000 1.0
C      1  0.4163980000000  0.5754410000000  0.4949930000000 1.0
C      1  0.4464790000000  0.5323020000000  0.3965180000000 1.0
C      1  0.5922420000000  0.5369100000000  0.5597100000000 1.0
C      1  0.5630490000000  0.4816720000000  0.5929660000000 1.0
C      1  0.5963050000000  0.5107390000000  0.4286780000000 1.0
C      1  0.4208690000000  0.4756970000000  0.4470410000000 1.0
C      1  0.4591270000000  0.4582210000000  0.4185020000000 1.0
C      1  0.5390080000000  0.4516960000000  0.5250850000000 1.0
C      1  0.4419340000000  0.5655160000000  0.5532770000000 1.0
C      1  0.4585460000000  0.5337190000000  0.4657050000000 1.0
C      1  0.5707920000000  0.4027780000000  0.5068080000000 1.0
C      1  0.5366630000000  0.4923910000000  0.4930250000000 1.0
C      1  0.5137320000000  0.6137550000000  0.5051300000000 1.0
C      1  0.5743680000000  0.4206250000000  0.5299650000000 1.0
C      1  0.4239010000000  0.4274230000000  0.4417790000000 1.0
C      1  0.4032400000000  0.5093760000000  0.4998160000000 1.0
C      1  0.4463770000000  0.5043230000000  0.4777210000000 1.0
C      1  0.4639590000000  0.3976310000000  0.5327210000000 1.0
C      1  0.5920680000000  0.4427730000000  0.4784840000000 1.0
C      1  0.6063870000000  0.4840160000000  0.5034920000000 1.0
C      1  0.4764680000000  0.5127270000000  0.5985500000000 1.0
C      1  0.5149280000000  0.4927930000000  0.6098090000000 1.0
C      1  0.5547760000000  0.4895170000000  0.4574880000000 1.0
C      1  0.4878600000000  0.4770060000000  0.6227770000000 1.0
C      1  0.4831140000000  0.3926590000000  0.5672790000000 1.0
C      1  0.5647140000000  0.5077620000000  0.4814670000000 1.0
C      1  0.5081850000000  0.3935770000000  0.5209460000000 1.0
C      1  0.5998370000000  0.4557270000000  0.5035410000000 1.0
C      1  0.3995590000000  0.4680700000000  0.5358580000000 1.0
C      1  0.5702210000000  0.5354180000000  0.4624420000000 1.0
C      1  0.5333660000000  0.4433360000000  0.6037430000000 1.0
C      1  0.5553510000000  0.5496670000000  0.4148590000000 1.0
C      1  0.4202090000000  0.4966640000000  0.4656460000000 1.0
C      1  0.5404490000000  0.5796430000000  0.4312900000000 1.0
C      1  0.4343430000000  0.5448470000000  0.5747290000000 1.0
C      1  0.4745370000000  0.4790200000000  0.3724900000000 1.0
C      1  0.4643060000000  0.5367460000000  0.5806970000000 1.0
C      1  0.4699130000000  0.4771610000000  0.5255770000000 1.0
C      1  0.5246790000000  0.4141110000000  0.5936160000000 1.0
C      1  0.4317090000000  0.5134760000000  0.5368210000000 1.0
C      1  0.4496790000000  0.5964010000000  0.5447080000000 1.0
C      1  0.4709550000000  0.4835010000000  0.4756270000000 1.0
C      1  0.4979900000000  0.5391300000000  0.6016630000000 1.0
C      1  0.5989600000000  0.5282490000000  0.4791820000000 1.0
C      1  0.5330680000000  0.4920040000000  0.4159180000000 1.0
C      1  0.4952700000000  0.4893780000000  0.5822620000000 1.0
C      1  0.5371600000000  0.5738800000000  0.5946190000000 1.0
C      1  0.5462270000000  0.5595170000000  0.4652250000000 1.0
C      1  0.3962140000000  0.4667910000000  0.5073050000000 1.0
C      1  0.4030500000000  0.5255210000000  0.4289060000000 1.0
C      1  0.4397350000000  0.4035810000000  0.5336480000000 1.0
C      1  0.5217040000000  0.5351770000000  0.3790740000000 1.0
C      1  0.5248370000000  0.4114180000000  0.5623230000000 1.0
C      1  0.5559580000000  0.4131340000000  0.5540360000000 1.0
C      1  0.5186070000000  0.5013500000000  0.3793690000000 1.0
C      1  0.5474040000000  0.4839960000000  0.5301090000000 1.0
C      1  0.5317080000000  0.5107350000000  0.4442720000000 1.0
C      1  0.4937230000000  0.5907720000000  0.5107610000000 1.0
C      1  0.4966860000000  0.5518250000000  0.3939210000000 1.0
C      1  0.3889570000000  0.5332840000000  0.4588610000000 1.0
C      1  0.4999020000000  0.4447440000000  0.5212610000000 1.0
C      1  0.6124160000000  0.5123190000000  0.5034770000000 1.0
C      1  0.4904730000000  0.4816580000000  0.5024040000000 1.0
C      1  0.5812170000000  0.4679080000000  0.5476900000000 1.0
C      1  0.4682960000000  0.4743360000000  0.4429900000000 1.0
C      1  0.4566630000000  0.5010170000000  0.5085720000000 1.0
C      1  0.4329900000000  0.5334930000000  0.4432670000000 1.0
C      1  0.5236330000000  0.5217580000000  0.6057790000000 1.0
C      1  0.5732230000000  0.4890550000000  0.5085600000000 1.0
C      1  0.4565870000000  0.5670350000000  0.4590460000000 1.0
C      1  0.5118920000000  0.5190770000000  0.4706580000000 1.0
C      1  0.4730760000000  0.5916620000000  0.4694040000000 1.0
C      1  0.4965410000000  0.4989260000000  0.4294320000000 1.0
C      1  0.5602890000000  0.4622780000000  0.4920550000000 1.0
C      1  0.5279330000000  0.4640010000000  0.5702260000000 1.0
C      1  0.6079710000000  0.5269570000000  0.5312540000000 1.0
C      1  0.5819620000000  0.5062580000000  0.5364440000000 1.0
C      1  0.5571200000000  0.4708550000000  0.4144920000000 1.0
C      1  0.5454320000000  0.5493550000000  0.5393480000000 1.0
C      1  0.5594260000000  0.5258460000000  0.4316410000000 1.0
C      1  0.4029270000000  0.4321110000000  0.4862340000000 1.0
C      1  0.5042350000000  0.5607150000000  0.4998820000000 1.0
C      1  0.3912820000000  0.5313440000000  0.5151390000000 1.0
C      1  0.5766020000000  0.4183580000000  0.4811980000000 1.0
C      1  0.4772270000000  0.4061910000000  0.4425190000000 1.0
C      1  0.4805650000000  0.4597120000000  0.3971690000000 1.0
C      1  0.5353990000000  0.4936190000000  0.5666500000000 1.0
C      1  0.4049010000000  0.4953190000000  0.5469460000000 1.0
C      1  0.5245610000000  0.5557320000000  0.4130050000000 1.0
C      1  0.4575150000000  0.4538190000000  0.4853910000000 1.0
C      1  0.5472540000000  0.4496230000000  0.4632830000000 1.0
C      1  0.5654460000000  0.5836220000000  0.4540130000000 1.0
C      1  0.4784140000000  0.5335840000000  0.4251380000000 1.0
C      1  0.4329840000000  0.5688510000000  0.5212230000000 1.0
C      1  0.3907120000000  0.5051840000000  0.4721810000000 1.0
C      1  0.4912320000000  0.5612390000000  0.4402030000000 1.0
C      1  0.4023270000000  0.5469730000000  0.4869840000000 1.0
C      1  0.4259370000000  0.4931620000000  0.5101450000000 1.0
C      1  0.5359410000000  0.5353570000000  0.4829960000000 1.0
C      1  0.5073670000000  0.4132300000000  0.4449470000000 1.0
C      1  0.5740410000000  0.4587100000000  0.5756640000000 1.0
C      1  0.5177090000000  0.4683620000000  0.5044780000000 1.0
C      1  0.5080410000000  0.5620440000000  0.4661200000000 1.0
C      1  0.5277800000000  0.4766570000000  0.4668020000000 1.0
C      1  0.4870170000000  0.5035820000000  0.3739590000000 1.0
C      1  0.4529420000000  0.4761430000000  0.5683140000000 1.0
C      1  0.4687820000000  0.5966770000000  0.4962700000000 1.0
C      1  0.5437190000000  0.5887220000000  0.5333240000000 1.0
C      1  0.4986710000000  0.3895350000000  0.4910090000000 1.0
C      1  0.5282520000000  0.5789150000000  0.5620070000000 1.0
C      1  0.4258530000000  0.4643210000000  0.4920670000000 1.0
C      1  0.4901860000000  0.5158350000000  0.5423160000000 1.0
C      1  0.4583600000000  0.5217000000000  0.5527680000000 1.0
C      1  0.5036100000000  0.4829980000000  0.4037930000000 1.0
C      1  0.5444540000000  0.5162810000000  0.3958490000000 1.0
C      1  0.5426840000000  0.4205810000000  0.4803620000000 1.0
C      1  0.4978540000000  0.5994580000000  0.4582340000000 1.0
C      1  0.4405140000000  0.4050690000000  0.4860260000000 1.0
C      1  0.5832820000000  0.4718490000000  0.4631280000000 1.0
C      1  0.4732420000000  0.4604980000000  0.5987330000000 1.0
C      1  0.4249370000000  0.4484320000000  0.5741050000000 1.0
C      1  0.4983810000000  0.5453890000000  0.5537120000000 1.0
C      1  0.4732200000000  0.6079380000000  0.5610120000000 1.0
C      1  0.4346610000000  0.4814470000000  0.4227840000000 1.0
C      1  0.5976170000000  0.5580520000000  0.4942990000000 1.0
C      1  0.4241000000000  0.4717650000000  0.5950500000000 1.0
C      1  0.4549200000000  0.4277150000000  0.4667160000000 1.0
C      1  0.5109260000000  0.5298460000000  0.4253100000000 1.0
C      1  0.4899950000000  0.4443020000000  0.4887390000000 1.0
C      1  0.5590000000000  0.5517680000000  0.5018670000000 1.0
C      1  0.4165900000000  0.4499730000000  0.4626290000000 1.0
C      1  0.5961640000000  0.5382650000000  0.4406210000000 1.0
C      1  0.4110190000000  0.5571360000000  0.4493570000000 1.0
C      1  0.4830470000000  0.5635420000000  0.5862510000000 1.0
C      1  0.4980830000000  0.5889890000000  0.5741480000000 1.0
C      1  0.5224480000000  0.3939970000000  0.4685860000000 1.0
C      1  0.4752910000000  0.5253640000000  0.5132860000000 1.0
C      1  0.4536970000000  0.4516490000000  0.5191060000000 1.0
C      1  0.5688800000000  0.4574340000000  0.4382220000000 1.0
C      1  0.5735720000000  0.5786370000000  0.4869460000000 1.0
C      1  0.4780070000000  0.4864090000000  0.5542400000000 1.0
C      1  0.5192770000000  0.4410140000000  0.5490600000000 1.0
C      1  0.4943950000000  0.4569550000000  0.4573070000000 1.0
C      1  0.4679340000000  0.5087630000000  0.4445600000000 1.0
C      1  0.4205530000000  0.4176880000000  0.5015490000000 1.0
C      1  0.4895460000000  0.4182030000000  0.5351810000000 1.0
C      1  0.4724470000000  0.3996620000000  0.4756770000000 1.0
C      1  0.4309210000000  0.4333240000000  0.5275770000000 1.0
C      1  0.4452050000000  0.5379270000000  0.5186860000000 1.0
C      1  0.5352570000000  0.5197390000000  0.5131910000000 1.0
C      1  0.5651270000000  0.5361600000000  0.5630520000000 1.0
C      1  0.5208160000000  0.4435660000000  0.4427510000000 1.0
C      1  0.4775090000000  0.5241500000000  0.3924620000000 1.0
C      1  0.3880080000000  0.5226700000000  0.5406550000000 1.0
C      1  0.4883270000000  0.5887280000000  0.5385340000000 1.0
C      1  0.4549570000000  0.4299700000000  0.4327840000000 1.0
C      1  0.4141860000000  0.4475080000000  0.5480630000000 1.0
C      1  0.4639670000000  0.5604780000000  0.3996020000000 1.0
C      1  0.4249610000000  0.4951910000000  0.5716670000000 1.0
C      1  0.4269660000000  0.5732420000000  0.4669730000000 1.0
C      1  0.5414020000000  0.3985670000000  0.5269580000000 1.0
C      1  0.5712650000000  0.5016670000000  0.4108710000000 1.0
C      1  0.5212310000000  0.5030330000000  0.5392780000000 1.0
C      1  0.5285610000000  0.5884240000000  0.4684630000000 1.0
C      1  0.5350930000000  0.5711150000000  0.5074620000000 1.0
C      1  0.5926190000000  0.5731320000000  0.5421930000000 1.0
C      1  0.5106270000000  0.5870060000000  0.4330030000000 1.0
C      1  0.5100880000000  0.4446050000000  0.3956350000000 1.0
C      1  0.5632550000000  0.4260500000000  0.4442890000000 1.0
C      1  0.5689500000000  0.4958790000000  0.5626320000000 1.0
C      1  0.5196720000000  0.5500300000000  0.5778310000000 1.0
C      1  0.5375160000000  0.4243740000000  0.5102010000000 1.0
C      1  0.3783330000000  0.4797090000000  0.4904420000000 1.0
C      1  0.4322540000000  0.5130100000000  0.4167460000000 1.0
C      1  0.4734710000000  0.5650120000000  0.5539860000000 1.0
C      1  0.4541880000000  0.4878930000000  0.5997890000000 1.0
C      1  0.5660490000000  0.5290200000000  0.5237250000000 1.0
C      1  0.4179290000000  0.5242630000000  0.5816760000000 1.0
C      1  0.4725580000000  0.4199890000000  0.5646470000000 1.0
C      1  0.5667220000000  0.5737320000000  0.5497800000000 1.0
C      1  0.5728520000000  0.4513500000000  0.5217370000000 1.0
C      1  0.5051170000000  0.4584210000000  0.5923190000000 1.0
END
