TITL C-2847947-6848-412 -0.00106090509714941 125000 -867.742585524216 0 0 166 (C1) n - 1
REM
REM in /home/bkarasulu/work/CARBON/AIRSS/Generating-Clusters/AIREBO/with-SteepDescent/Only-C1/SD-CG-opt/Try1-1.4A-POS3A/HFTN-CG
REM
REM
REM
REM
REM
REM ./C.cell (11c1c37f851c82e70ff6c80c92926a4b)
REM
REM compiler GCC version 9.2.1 20190827 (Red Hat 9.2.1-1)
REM options -cpp -mtune=generic -march=x86-64 -g -O0 -fpre-include=/usr/include/finclude/math-vector-fortran.h
REM seed 438638919 -448630355 1451568882 48359160 1635870962 -804357788 1448100437 -42462041 -209885688 1205887456 -1837136042 1558087698 -1301279193 -1438165012 766984399 -1190489435 766271664 1886489266 -1295588635 -1292025543 -1968434343 -2031863546 -1746148481 20200667 -135857981 690869057 170896819 573125226 956371773 1365680680 1276745921 -684469332 2102253375
REM
CELL 1.54180   50.00000   50.00000   50.00000   90.00000   90.00000   90.00000
LATT -1
SFAC C  
C      1  0.4653390000000  0.4095290000000  0.5395690000000 1.0
C      1  0.4914050000000  0.5115650000000  0.3953090000000 1.0
C      1  0.5341830000000  0.5908170000000  0.4436580000000 1.0
C      1  0.5534340000000  0.4930050000000  0.5487580000000 1.0
C      1  0.5038250000000  0.4338510000000  0.4977190000000 1.0
C      1  0.5338240000000  0.5720210000000  0.5357670000000 1.0
C      1  0.5146400000000  0.5009990000000  0.6079530000000 1.0
C      1  0.5100010000000  0.5767300000000  0.4986500000000 1.0
C      1  0.4466860000000  0.5790860000000  0.4522950000000 1.0
C      1  0.5654460000000  0.5574450000000  0.5934450000000 1.0
C      1  0.4239960000000  0.5234280000000  0.5185420000000 1.0
C      1  0.5361980000000  0.4884940000000  0.4186230000000 1.0
C      1  0.5129520000000  0.4974010000000  0.4766580000000 1.0
C      1  0.5042440000000  0.4763920000000  0.6037960000000 1.0
C      1  0.5663750000000  0.5600410000000  0.5376510000000 1.0
C      1  0.5628080000000  0.5234990000000  0.5534800000000 1.0
C      1  0.5968490000000  0.5316450000000  0.4576150000000 1.0
C      1  0.4920140000000  0.5742990000000  0.4427300000000 1.0
C      1  0.5166720000000  0.4026080000000  0.5301590000000 1.0
C      1  0.4174850000000  0.5261580000000  0.4852760000000 1.0
C      1  0.5163040000000  0.5126590000000  0.4146400000000 1.0
C      1  0.5628620000000  0.4129690000000  0.5087920000000 1.0
C      1  0.5786750000000  0.5422360000000  0.5042320000000 1.0
C      1  0.5381960000000  0.5283740000000  0.5962700000000 1.0
C      1  0.5830380000000  0.5689830000000  0.4908960000000 1.0
C      1  0.5487130000000  0.4459960000000  0.5413090000000 1.0
C      1  0.4144080000000  0.5061640000000  0.4496510000000 1.0
C      1  0.5633870000000  0.4658120000000  0.4560750000000 1.0
C      1  0.4585970000000  0.5361710000000  0.5937480000000 1.0
C      1  0.4191560000000  0.5421660000000  0.4552140000000 1.0
C      1  0.4739170000000  0.5597600000000  0.4987700000000 1.0
C      1  0.4953520000000  0.4459710000000  0.5284100000000 1.0
C      1  0.3972740000000  0.4945610000000  0.4715180000000 1.0
C      1  0.5459570000000  0.5036810000000  0.3898080000000 1.0
C      1  0.5951890000000  0.5020060000000  0.5266980000000 1.0
C      1  0.4361940000000  0.5740650000000  0.4777630000000 1.0
C      1  0.5399330000000  0.5634750000000  0.4336590000000 1.0
C      1  0.3904170000000  0.5110330000000  0.4992610000000 1.0
C      1  0.5542880000000  0.4114390000000  0.4757320000000 1.0
C      1  0.4162540000000  0.4527200000000  0.4937830000000 1.0
C      1  0.5429490000000  0.4914530000000  0.4672580000000 1.0
C      1  0.5052780000000  0.5268060000000  0.5878920000000 1.0
C      1  0.5182940000000  0.4566080000000  0.5822830000000 1.0
C      1  0.4947650000000  0.4317800000000  0.4197220000000 1.0
C      1  0.4967150000000  0.4416080000000  0.5599660000000 1.0
C      1  0.5390770000000  0.4733610000000  0.5308760000000 1.0
C      1  0.5384090000000  0.5494270000000  0.4930200000000 1.0
C      1  0.4784510000000  0.5409430000000  0.5521780000000 1.0
C      1  0.5674440000000  0.5315520000000  0.5809530000000 1.0
C      1  0.4265840000000  0.4593870000000  0.5944170000000 1.0
C      1  0.5755120000000  0.4784820000000  0.4168030000000 1.0
C      1  0.5909840000000  0.4759790000000  0.5390280000000 1.0
C      1  0.4544820000000  0.5953310000000  0.5252460000000 1.0
C      1  0.4587680000000  0.5062060000000  0.4221180000000 1.0
C      1  0.4902870000000  0.4087140000000  0.5162420000000 1.0
C      1  0.4045770000000  0.4597130000000  0.5249400000000 1.0
C      1  0.4287940000000  0.4366340000000  0.5833700000000 1.0
C      1  0.4354160000000  0.5821310000000  0.5059740000000 1.0
C      1  0.5190260000000  0.4713700000000  0.4424620000000 1.0
C      1  0.5150470000000  0.5642630000000  0.5783190000000 1.0
C      1  0.5965990000000  0.4900030000000  0.4344320000000 1.0
C      1  0.4401990000000  0.5582730000000  0.5294480000000 1.0
C      1  0.4573980000000  0.4741680000000  0.5207350000000 1.0
C      1  0.5166200000000  0.4143670000000  0.5553980000000 1.0
C      1  0.5474030000000  0.5463650000000  0.4601690000000 1.0
C      1  0.5797520000000  0.5532490000000  0.4658460000000 1.0
C      1  0.5691300000000  0.4343390000000  0.5259420000000 1.0
C      1  0.6177630000000  0.4588220000000  0.4668690000000 1.0
C      1  0.5545730000000  0.5737870000000  0.5088650000000 1.0
C      1  0.4533790000000  0.4052320000000  0.4711450000000 1.0
C      1  0.4566430000000  0.5302390000000  0.5193540000000 1.0
C      1  0.4309920000000  0.4800900000000  0.5030680000000 1.0
C      1  0.5361420000000  0.5279910000000  0.5403970000000 1.0
C      1  0.5078460000000  0.5035870000000  0.4437830000000 1.0
C      1  0.5372310000000  0.3972930000000  0.5109490000000 1.0
C      1  0.4350800000000  0.4510050000000  0.5318830000000 1.0
C      1  0.5625720000000  0.5088480000000  0.4256550000000 1.0
C      1  0.5748880000000  0.4734750000000  0.5650930000000 1.0
C      1  0.4774100000000  0.5186190000000  0.4477050000000 1.0
C      1  0.4810130000000  0.6017770000000  0.5154040000000 1.0
C      1  0.4607300000000  0.4114330000000  0.5009850000000 1.0
C      1  0.5248170000000  0.4161630000000  0.4144180000000 1.0
C      1  0.5340090000000  0.5038550000000  0.5730830000000 1.0
C      1  0.5147050000000  0.4533260000000  0.4709910000000 1.0
C      1  0.5940510000000  0.5202510000000  0.4315960000000 1.0
C      1  0.5046560000000  0.5112840000000  0.5575900000000 1.0
C      1  0.4959220000000  0.4819840000000  0.4971350000000 1.0
C      1  0.5304650000000  0.4493600000000  0.4191420000000 1.0
C      1  0.4585670000000  0.4738960000000  0.5547240000000 1.0
C      1  0.5164710000000  0.5328830000000  0.4587450000000 1.0
C      1  0.5436560000000  0.5320010000000  0.4094490000000 1.0
C      1  0.4381030000000  0.4994680000000  0.4809670000000 1.0
C      1  0.4628850000000  0.5024800000000  0.5959740000000 1.0
C      1  0.5357530000000  0.4355780000000  0.5630240000000 1.0
C      1  0.4675280000000  0.4435380000000  0.5099290000000 1.0
C      1  0.4509980000000  0.4578960000000  0.4329050000000 1.0
C      1  0.4873570000000  0.5774420000000  0.5654180000000 1.0
C      1  0.5018540000000  0.5153110000000  0.5250530000000 1.0
C      1  0.4120480000000  0.4928780000000  0.5275150000000 1.0
C      1  0.4747700000000  0.5109030000000  0.5676790000000 1.0
C      1  0.4657300000000  0.4527510000000  0.5992550000000 1.0
C      1  0.4446740000000  0.5199220000000  0.4568090000000 1.0
C      1  0.5105630000000  0.4693560000000  0.5187590000000 1.0
C      1  0.5422600000000  0.4848230000000  0.5006020000000 1.0
C      1  0.4462710000000  0.5392620000000  0.5640270000000 1.0
C      1  0.4278730000000  0.4562420000000  0.4559300000000 1.0
C      1  0.4691170000000  0.4484590000000  0.5693090000000 1.0
C      1  0.4709470000000  0.4407400000000  0.4762150000000 1.0
C      1  0.4793800000000  0.5642740000000  0.5285830000000 1.0
C      1  0.4850820000000  0.4696970000000  0.4673320000000 1.0
C      1  0.4300900000000  0.4907000000000  0.5531260000000 1.0
C      1  0.5465120000000  0.4560140000000  0.4839190000000 1.0
C      1  0.5383300000000  0.4148190000000  0.4456040000000 1.0
C      1  0.5019340000000  0.4060460000000  0.4784840000000 1.0
C      1  0.4380070000000  0.4194800000000  0.5219580000000 1.0
C      1  0.5771480000000  0.4674790000000  0.4933180000000 1.0
C      1  0.4579330000000  0.5767510000000  0.5518400000000 1.0
C      1  0.6021770000000  0.5099040000000  0.4751720000000 1.0
C      1  0.5330300000000  0.6012460000000  0.4737610000000 1.0
C      1  0.4483130000000  0.5580400000000  0.4319590000000 1.0
C      1  0.4805770000000  0.4166520000000  0.4542310000000 1.0
C      1  0.5376100000000  0.5632390000000  0.5978490000000 1.0
C      1  0.5333630000000  0.5128610000000  0.5124990000000 1.0
C      1  0.5603240000000  0.4526640000000  0.4248690000000 1.0
C      1  0.5822520000000  0.5304420000000  0.5320150000000 1.0
C      1  0.5267110000000  0.3927780000000  0.4826580000000 1.0
C      1  0.3878160000000  0.5161110000000  0.5329600000000 1.0
C      1  0.5947420000000  0.4772500000000  0.4659030000000 1.0
C      1  0.5821480000000  0.4992900000000  0.4968300000000 1.0
C      1  0.5175660000000  0.5524430000000  0.4173050000000 1.0
C      1  0.4740540000000  0.5024780000000  0.5102110000000 1.0
C      1  0.5157990000000  0.5722410000000  0.4654340000000 1.0
C      1  0.4509150000000  0.5125330000000  0.5472670000000 1.0
C      1  0.4163340000000  0.5324960000000  0.5489740000000 1.0
C      1  0.4353300000000  0.4880720000000  0.4332830000000 1.0
C      1  0.5110910000000  0.5497530000000  0.5478130000000 1.0
C      1  0.5865360000000  0.4553740000000  0.5190880000000 1.0
C      1  0.4484950000000  0.5355100000000  0.4111250000000 1.0
C      1  0.4852870000000  0.5167430000000  0.4807310000000 1.0
C      1  0.5112150000000  0.4302000000000  0.4483970000000 1.0
C      1  0.4462850000000  0.4313880000000  0.5573270000000 1.0
C      1  0.5033390000000  0.5870890000000  0.5364280000000 1.0
C      1  0.4852840000000  0.5528930000000  0.5896200000000 1.0
C      1  0.5028480000000  0.4589690000000  0.4021180000000 1.0
C      1  0.5118670000000  0.5464300000000  0.5139640000000 1.0
C      1  0.4641880000000  0.4311860000000  0.4280240000000 1.0
C      1  0.5571820000000  0.5212630000000  0.4897260000000 1.0
C      1  0.4170160000000  0.5640290000000  0.5536480000000 1.0
C      1  0.4375830000000  0.4345510000000  0.4783700000000 1.0
C      1  0.4728030000000  0.5900910000000  0.4565030000000 1.0
C      1  0.4385980000000  0.4839870000000  0.5839700000000 1.0
C      1  0.5468020000000  0.6022220000000  0.4965150000000 1.0
C      1  0.4768910000000  0.4760810000000  0.6069010000000 1.0
C      1  0.4756760000000  0.4803510000000  0.4363960000000 1.0
C      1  0.3990530000000  0.4664880000000  0.4699920000000 1.0
C      1  0.4900690000000  0.4833710000000  0.4078860000000 1.0
C      1  0.4946140000000  0.5480030000000  0.4764450000000 1.0
C      1  0.4805300000000  0.5481620000000  0.4311010000000 1.0
C      1  0.5562770000000  0.5154790000000  0.4562240000000 1.0
C      1  0.4933050000000  0.5420180000000  0.4014350000000 1.0
C      1  0.5457730000000  0.4730390000000  0.5814270000000 1.0
C      1  0.5660000000000  0.4314420000000  0.4508360000000 1.0
C      1  0.4514830000000  0.4746720000000  0.4691820000000 1.0
C      1  0.4445520000000  0.5459140000000  0.4916990000000 1.0
C      1  0.4074620000000  0.5512360000000  0.5080540000000 1.0
C      1  0.4816570000000  0.5900430000000  0.4853890000000 1.0
END
