TITL C-2848504-8560-230 -0.00098884391076506 125000 -273.839979755216 0 0 47 (C1) n - 1
REM
REM in /home/bkarasulu/work/CARBON/AIRSS/Generating-Clusters/AIREBO/with-SteepDescent/Only-C1/SD-CG-opt/Try1-1.4A-POS3A/HFTN-CG
REM
REM
REM
REM
REM
REM ./C.cell (11c1c37f851c82e70ff6c80c92926a4b)
REM
REM compiler GCC version 9.2.1 20190827 (Red Hat 9.2.1-1)
REM options -cpp -mtune=generic -march=x86-64 -g -O0 -fpre-include=/usr/include/finclude/math-vector-fortran.h
REM seed -1263723482 1555075057 610325742 248434605 1424535613 486957513 1042693044 -346928198 1661828006 -1674247422 -1602728096 -1347015584 -1069421550 1135686602 -1977796690 -1434187518 -719643727 -1111858000 -546951296 -135587657 -1224522783 -560053582 1620048274 1750205210 -1667324813 -781732441 -458541885 -1291892048 -528857507 -1765988275 -1385904891 1473218699 1545454874
REM
CELL 1.54180   50.00000   50.00000   50.00000   90.00000   90.00000   90.00000
LATT -1
SFAC C  
C      1  0.5334070000000  0.5009500000000  0.5673210000000 1.0
C      1  0.5662010000000  0.4497290000000  0.3753520000000 1.0
C      1  0.5116820000000  0.4635140000000  0.5459930000000 1.0
C      1  0.5225380000000  0.5274100000000  0.4571110000000 1.0
C      1  0.4905560000000  0.4360690000000  0.5130640000000 1.0
C      1  0.5501830000000  0.4807690000000  0.4074180000000 1.0
C      1  0.4373580000000  0.4682960000000  0.5194790000000 1.0
C      1  0.5548890000000  0.4403430000000  0.4918280000000 1.0
C      1  0.4651060000000  0.4586050000000  0.5099890000000 1.0
C      1  0.4837970000000  0.4624250000000  0.5554010000000 1.0
C      1  0.5216850000000  0.5487150000000  0.5049470000000 1.0
C      1  0.5485360000000  0.4794310000000  0.5219910000000 1.0
C      1  0.5127470000000  0.5163810000000  0.5761850000000 1.0
C      1  0.5476660000000  0.5479180000000  0.5157680000000 1.0
C      1  0.5687330000000  0.4585100000000  0.4024020000000 1.0
C      1  0.4627970000000  0.4819090000000  0.5597070000000 1.0
C      1  0.5469140000000  0.4951090000000  0.4305470000000 1.0
C      1  0.5175800000000  0.5515670000000  0.4774220000000 1.0
C      1  0.4894490000000  0.5476680000000  0.5440220000000 1.0
C      1  0.5016080000000  0.5352350000000  0.5190930000000 1.0
C      1  0.4705230000000  0.5294260000000  0.4671850000000 1.0
C      1  0.4461120000000  0.5256730000000  0.5482920000000 1.0
C      1  0.5333810000000  0.4824120000000  0.5465570000000 1.0
C      1  0.4887870000000  0.5246890000000  0.5651170000000 1.0
C      1  0.4589900000000  0.5524350000000  0.5377650000000 1.0
C      1  0.4649680000000  0.5098810000000  0.5622100000000 1.0
C      1  0.5416920000000  0.5077370000000  0.4545770000000 1.0
C      1  0.4380610000000  0.4727620000000  0.5477520000000 1.0
C      1  0.5365490000000  0.4846010000000  0.3816480000000 1.0
C      1  0.4389300000000  0.5351700000000  0.5164170000000 1.0
C      1  0.4917650000000  0.5112030000000  0.5103470000000 1.0
C      1  0.4943670000000  0.5436450000000  0.4563770000000 1.0
C      1  0.5464200000000  0.4657660000000  0.3625970000000 1.0
C      1  0.4796130000000  0.4827860000000  0.5008500000000 1.0
C      1  0.5581850000000  0.5004680000000  0.5059850000000 1.0
C      1  0.4158620000000  0.5162430000000  0.5080820000000 1.0
C      1  0.5406750000000  0.4542980000000  0.5097190000000 1.0
C      1  0.4230370000000  0.4854000000000  0.5036260000000 1.0
C      1  0.5157810000000  0.4466650000000  0.5217330000000 1.0
C      1  0.4483620000000  0.5444280000000  0.4877780000000 1.0
C      1  0.5557250000000  0.5007100000000  0.4779580000000 1.0
C      1  0.5635590000000  0.5255800000000  0.5177660000000 1.0
C      1  0.4722670000000  0.4412170000000  0.5380460000000 1.0
C      1  0.5026520000000  0.5708500000000  0.5530840000000 1.0
C      1  0.4821500000000  0.5056660000000  0.4804740000000 1.0
C      1  0.4375780000000  0.5241370000000  0.4651250000000 1.0
C      1  0.4205750000000  0.5056010000000  0.4778930000000 1.0
END
