TITL C-2848495-5024-198 0.000561473575546911 125000 -900.118115001432 0 0 163 (C1) n - 1
REM
REM in /home/bkarasulu/work/CARBON/AIRSS/Generating-Clusters/AIREBO/with-SteepDescent/Only-C1/SD-CG-opt/Try1-1.4A-POS3A/HFTN-CG
REM
REM
REM
REM
REM
REM ./C.cell (11c1c37f851c82e70ff6c80c92926a4b)
REM
REM compiler GCC version 9.2.1 20190827 (Red Hat 9.2.1-1)
REM options -cpp -mtune=generic -march=x86-64 -g -O0 -fpre-include=/usr/include/finclude/math-vector-fortran.h
REM seed -737752564 -1314499865 1768663220 -4588245 -1938522142 -1298067324 340701907 633178115 -1981672172 2136269126 -1856662954 -1568308775 1363044852 2100915505 402457056 -1281493935 -1336291407 -2070776037 -536669374 1625186395 1063613597 -379422272 1521127408 -749179719 -705405566 -1287246011 -923675550 1285497797 -861545614 -470902917 -1491749889 69988827 -794221861
REM
CELL 1.54180   50.00000   50.00000   50.00000   90.00000   90.00000   90.00000
LATT -1
SFAC C  
C      1  0.4781210000000  0.4447790000000  0.4978220000000 1.0
C      1  0.6140670000000  0.5287620000000  0.5193190000000 1.0
C      1  0.5106940000000  0.5559170000000  0.4214520000000 1.0
C      1  0.5377390000000  0.4368100000000  0.4282590000000 1.0
C      1  0.4979460000000  0.5511330000000  0.5155660000000 1.0
C      1  0.5723190000000  0.4689040000000  0.4466070000000 1.0
C      1  0.4224990000000  0.4296140000000  0.5379290000000 1.0
C      1  0.3971320000000  0.5179170000000  0.5137610000000 1.0
C      1  0.4741050000000  0.4757480000000  0.4249360000000 1.0
C      1  0.5671350000000  0.5067350000000  0.5797940000000 1.0
C      1  0.5532470000000  0.4604190000000  0.4247470000000 1.0
C      1  0.4520750000000  0.4894360000000  0.5507210000000 1.0
C      1  0.5567140000000  0.5260290000000  0.4578130000000 1.0
C      1  0.5607970000000  0.5281040000000  0.4915100000000 1.0
C      1  0.4465360000000  0.4356410000000  0.5064790000000 1.0
C      1  0.5148400000000  0.4397520000000  0.4529010000000 1.0
C      1  0.5439490000000  0.4884190000000  0.5874660000000 1.0
C      1  0.4295800000000  0.5566630000000  0.4821090000000 1.0
C      1  0.4765820000000  0.4322830000000  0.5777160000000 1.0
C      1  0.5283950000000  0.5357120000000  0.5813590000000 1.0
C      1  0.4473750000000  0.4297150000000  0.5647180000000 1.0
C      1  0.5951280000000  0.4629100000000  0.4696680000000 1.0
C      1  0.4867960000000  0.4336070000000  0.4706260000000 1.0
C      1  0.4531710000000  0.5338000000000  0.5179630000000 1.0
C      1  0.4176770000000  0.4342050000000  0.4885290000000 1.0
C      1  0.4249160000000  0.5693950000000  0.5341090000000 1.0
C      1  0.5901080000000  0.5409270000000  0.5357860000000 1.0
C      1  0.4616360000000  0.5079740000000  0.5090600000000 1.0
C      1  0.5179940000000  0.5829530000000  0.5647280000000 1.0
C      1  0.5220520000000  0.5084780000000  0.4414780000000 1.0
C      1  0.5781510000000  0.5005150000000  0.4356920000000 1.0
C      1  0.4713750000000  0.5689810000000  0.5276600000000 1.0
C      1  0.4292040000000  0.4570080000000  0.5557150000000 1.0
C      1  0.4998250000000  0.4996790000000  0.3871970000000 1.0
C      1  0.5375660000000  0.4047330000000  0.5382840000000 1.0
C      1  0.5843830000000  0.5521320000000  0.4701700000000 1.0
C      1  0.5837240000000  0.5498380000000  0.5040980000000 1.0
C      1  0.4987040000000  0.4232350000000  0.5642400000000 1.0
C      1  0.5391880000000  0.5657590000000  0.4363680000000 1.0
C      1  0.5045380000000  0.5303460000000  0.4607550000000 1.0
C      1  0.4335750000000  0.5763390000000  0.4592170000000 1.0
C      1  0.5336570000000  0.4852800000000  0.4191510000000 1.0
C      1  0.5561660000000  0.5043220000000  0.5257240000000 1.0
C      1  0.4764710000000  0.4950330000000  0.5320450000000 1.0
C      1  0.4539860000000  0.5590850000000  0.5001610000000 1.0
C      1  0.4727280000000  0.4702840000000  0.5659440000000 1.0
C      1  0.5564840000000  0.5371170000000  0.5748690000000 1.0
C      1  0.4166950000000  0.4561760000000  0.4669870000000 1.0
C      1  0.5713830000000  0.5792690000000  0.5074220000000 1.0
C      1  0.5763590000000  0.5145330000000  0.5478710000000 1.0
C      1  0.5630840000000  0.5671400000000  0.4607250000000 1.0
C      1  0.4970830000000  0.4047390000000  0.4453060000000 1.0
C      1  0.5811990000000  0.4568480000000  0.4974150000000 1.0
C      1  0.5133510000000  0.4277880000000  0.5334870000000 1.0
C      1  0.3962520000000  0.4870220000000  0.5151480000000 1.0
C      1  0.4459230000000  0.4193590000000  0.4766340000000 1.0
C      1  0.5421180000000  0.5334890000000  0.4300400000000 1.0
C      1  0.4719170000000  0.4909460000000  0.3980040000000 1.0
C      1  0.4491600000000  0.4108570000000  0.5292660000000 1.0
C      1  0.4600650000000  0.5906530000000  0.4654050000000 1.0
C      1  0.5848300000000  0.5042570000000  0.4881580000000 1.0
C      1  0.4859000000000  0.4836000000000  0.4733630000000 1.0
C      1  0.4860420000000  0.4706780000000  0.5169710000000 1.0
C      1  0.4736490000000  0.5747040000000  0.5826380000000 1.0
C      1  0.4991650000000  0.4715700000000  0.6080460000000 1.0
C      1  0.5464850000000  0.5844270000000  0.4848450000000 1.0
C      1  0.4803850000000  0.5105510000000  0.4857230000000 1.0
C      1  0.5146050000000  0.5601770000000  0.4734430000000 1.0
C      1  0.5901510000000  0.4888940000000  0.5654360000000 1.0
C      1  0.5355370000000  0.4533580000000  0.5341250000000 1.0
C      1  0.4497480000000  0.5493160000000  0.5457800000000 1.0
C      1  0.4017740000000  0.5417260000000  0.4947570000000 1.0
C      1  0.4707980000000  0.5625780000000  0.4598500000000 1.0
C      1  0.5904500000000  0.5258000000000  0.4549960000000 1.0
C      1  0.5110890000000  0.3993100000000  0.4758460000000 1.0
C      1  0.4268590000000  0.4637500000000  0.4198580000000 1.0
C      1  0.4071770000000  0.5253120000000  0.5417120000000 1.0
C      1  0.5649470000000  0.5524570000000  0.5520830000000 1.0
C      1  0.4162960000000  0.5371180000000  0.4408350000000 1.0
C      1  0.5304850000000  0.4392260000000  0.5824940000000 1.0
C      1  0.4273990000000  0.4465570000000  0.4409820000000 1.0
C      1  0.6001650000000  0.4940340000000  0.4601850000000 1.0
C      1  0.4800040000000  0.4570160000000  0.5936520000000 1.0
C      1  0.5771570000000  0.4813160000000  0.5200460000000 1.0
C      1  0.4787380000000  0.5411630000000  0.5616890000000 1.0
C      1  0.4795380000000  0.5237920000000  0.6105010000000 1.0
C      1  0.4430860000000  0.4896690000000  0.4253460000000 1.0
C      1  0.5423250000000  0.3987160000000  0.4859280000000 1.0
C      1  0.4934240000000  0.4240400000000  0.4229950000000 1.0
C      1  0.4907400000000  0.3988350000000  0.5032310000000 1.0
C      1  0.4871530000000  0.5780180000000  0.4216230000000 1.0
C      1  0.4806290000000  0.4239990000000  0.5237480000000 1.0
C      1  0.5201690000000  0.5446670000000  0.5362520000000 1.0
C      1  0.5190480000000  0.4687930000000  0.4430280000000 1.0
C      1  0.4600270000000  0.5610050000000  0.4215470000000 1.0
C      1  0.4742180000000  0.4445020000000  0.4273700000000 1.0
C      1  0.5625090000000  0.5149670000000  0.4164360000000 1.0
C      1  0.4374950000000  0.4884930000000  0.5054210000000 1.0
C      1  0.4342490000000  0.5261400000000  0.4745040000000 1.0
C      1  0.5343060000000  0.5941760000000  0.4546290000000 1.0
C      1  0.5061310000000  0.5831040000000  0.5119990000000 1.0
C      1  0.4948740000000  0.4882720000000  0.4446310000000 1.0
C      1  0.5173680000000  0.4529770000000  0.3874660000000 1.0
C      1  0.4833880000000  0.5413170000000  0.4364950000000 1.0
C      1  0.5164930000000  0.4331240000000  0.4085160000000 1.0
C      1  0.3881130000000  0.4602290000000  0.5171300000000 1.0
C      1  0.5745740000000  0.4281540000000  0.5116590000000 1.0
C      1  0.5270910000000  0.5145960000000  0.5385680000000 1.0
C      1  0.3978800000000  0.5427080000000  0.4615140000000 1.0
C      1  0.5224720000000  0.4464800000000  0.4831620000000 1.0
C      1  0.4227750000000  0.4795550000000  0.5758970000000 1.0
C      1  0.4304090000000  0.4843060000000  0.4741970000000 1.0
C      1  0.5141430000000  0.4232590000000  0.4997920000000 1.0
C      1  0.4696800000000  0.5987490000000  0.5113020000000 1.0
C      1  0.4634040000000  0.5144060000000  0.4307940000000 1.0
C      1  0.4627290000000  0.5185830000000  0.4621920000000 1.0
C      1  0.4847330000000  0.5582160000000  0.4861520000000 1.0
C      1  0.5662810000000  0.4463310000000  0.5357150000000 1.0
C      1  0.4041940000000  0.4379200000000  0.5157200000000 1.0
C      1  0.5190260000000  0.4854410000000  0.5502620000000 1.0
C      1  0.5038120000000  0.5825290000000  0.4501750000000 1.0
C      1  0.5623830000000  0.4813190000000  0.4831430000000 1.0
C      1  0.4224620000000  0.4956740000000  0.5350670000000 1.0
C      1  0.4710060000000  0.4044070000000  0.4631080000000 1.0
C      1  0.5079300000000  0.4707000000000  0.4920580000000 1.0
C      1  0.5288860000000  0.4132230000000  0.5672590000000 1.0
C      1  0.4945880000000  0.4915990000000  0.5690300000000 1.0
C      1  0.5298810000000  0.6059560000000  0.5052620000000 1.0
C      1  0.4769940000000  0.6032350000000  0.4849060000000 1.0
C      1  0.4353940000000  0.5058560000000  0.5722510000000 1.0
C      1  0.5381270000000  0.5531750000000  0.4953230000000 1.0
C      1  0.4656970000000  0.4479920000000  0.5426650000000 1.0
C      1  0.5065800000000  0.5259180000000  0.4944160000000 1.0
C      1  0.4283250000000  0.5303110000000  0.5617650000000 1.0
C      1  0.4942870000000  0.5165650000000  0.5479370000000 1.0
C      1  0.4276070000000  0.5060380000000  0.4481670000000 1.0
C      1  0.5343190000000  0.5082610000000  0.4999510000000 1.0
C      1  0.5568530000000  0.4254830000000  0.4843100000000 1.0
C      1  0.4791720000000  0.5221240000000  0.4016540000000 1.0
C      1  0.5104710000000  0.5531130000000  0.5643860000000 1.0
C      1  0.5530200000000  0.4525410000000  0.4695220000000 1.0
C      1  0.5263530000000  0.4632920000000  0.6026180000000 1.0
C      1  0.5345500000000  0.5937010000000  0.5368760000000 1.0
C      1  0.5012350000000  0.5993460000000  0.5406870000000 1.0
C      1  0.4410090000000  0.4621300000000  0.5240280000000 1.0
C      1  0.5862860000000  0.4661310000000  0.5476300000000 1.0
C      1  0.5189240000000  0.5073510000000  0.5868110000000 1.0
C      1  0.4590430000000  0.4695790000000  0.4709980000000 1.0
C      1  0.4578750000000  0.4413980000000  0.4545340000000 1.0
C      1  0.5385140000000  0.4645880000000  0.5649180000000 1.0
C      1  0.5460690000000  0.5643880000000  0.5264370000000 1.0
C      1  0.4091010000000  0.5662950000000  0.5150420000000 1.0
C      1  0.5538710000000  0.4019200000000  0.5159980000000 1.0
C      1  0.6072110000000  0.5049130000000  0.5083940000000 1.0
C      1  0.5406380000000  0.4983250000000  0.4680810000000 1.0
C      1  0.4769650000000  0.5464500000000  0.5941520000000 1.0
C      1  0.6110420000000  0.4795700000000  0.5222950000000 1.0
C      1  0.5098260000000  0.6006860000000  0.4782860000000 1.0
C      1  0.4787530000000  0.5831420000000  0.5576820000000 1.0
C      1  0.4342980000000  0.5599350000000  0.4349030000000 1.0
C      1  0.4961920000000  0.5010560000000  0.6078320000000 1.0
C      1  0.5244140000000  0.4808360000000  0.5174410000000 1.0
C      1  0.5198860000000  0.4812730000000  0.3928380000000 1.0
END
