TITL C-2847953-8112-365 -0.000932913279969711 125000 -998.242568872187 0 0 184 (C1) n - 1
REM
REM in /home/bkarasulu/work/CARBON/AIRSS/Generating-Clusters/AIREBO/with-SteepDescent/Only-C1/SD-CG-opt/Try1-1.4A-POS3A/HFTN-CG
REM
REM
REM
REM
REM
REM ./C.cell (11c1c37f851c82e70ff6c80c92926a4b)
REM
REM compiler GCC version 9.2.1 20190827 (Red Hat 9.2.1-1)
REM options -cpp -mtune=generic -march=x86-64 -g -O0 -fpre-include=/usr/include/finclude/math-vector-fortran.h
REM seed 125680889 882877535 -1488647167 20550541 1955078569 1702028831 43043729 366827724 -248841813 1809582764 1233033591 1431421204 -679280880 385542337 -1323743916 528651909 -1914435986 967270087 127745198 323436876 949813133 1067534814 -1289455164 1422939169 1256752923 1660216923 -758260679 1585164008 982433956 -1525959160 1667215201 1943552286 -1141464460
REM
CELL 1.54180   50.00000   50.00000   50.00000   90.00000   90.00000   90.00000
LATT -1
SFAC C  
C      1  0.4208510000000  0.5554140000000  0.4458930000000 1.0
C      1  0.5184940000000  0.4626400000000  0.4510290000000 1.0
C      1  0.5272470000000  0.4186780000000  0.4281060000000 1.0
C      1  0.5275720000000  0.4095840000000  0.4812660000000 1.0
C      1  0.4460550000000  0.5341000000000  0.4897950000000 1.0
C      1  0.5155440000000  0.4924230000000  0.3970590000000 1.0
C      1  0.5449760000000  0.5117150000000  0.5076030000000 1.0
C      1  0.5857590000000  0.4774190000000  0.4745230000000 1.0
C      1  0.4817960000000  0.4303850000000  0.5817540000000 1.0
C      1  0.5301570000000  0.5394150000000  0.5636870000000 1.0
C      1  0.5773730000000  0.4653060000000  0.5572350000000 1.0
C      1  0.5571750000000  0.5881110000000  0.5257500000000 1.0
C      1  0.4842880000000  0.4154630000000  0.5564210000000 1.0
C      1  0.4434430000000  0.5000040000000  0.5903520000000 1.0
C      1  0.4865270000000  0.5995910000000  0.4967960000000 1.0
C      1  0.4656960000000  0.4825310000000  0.4576670000000 1.0
C      1  0.4711310000000  0.5015650000000  0.5479980000000 1.0
C      1  0.4582290000000  0.5807930000000  0.5027000000000 1.0
C      1  0.4373220000000  0.4116810000000  0.4904980000000 1.0
C      1  0.5109990000000  0.5745850000000  0.6002810000000 1.0
C      1  0.5655400000000  0.4192550000000  0.4738150000000 1.0
C      1  0.4319390000000  0.5711320000000  0.5109250000000 1.0
C      1  0.4422980000000  0.4926560000000  0.5323230000000 1.0
C      1  0.4113630000000  0.5244080000000  0.4379390000000 1.0
C      1  0.4314940000000  0.5009760000000  0.4485270000000 1.0
C      1  0.5576750000000  0.4692640000000  0.4906450000000 1.0
C      1  0.4654110000000  0.6001120000000  0.4531380000000 1.0
C      1  0.5432690000000  0.4095100000000  0.4556960000000 1.0
C      1  0.5692350000000  0.5501270000000  0.4888670000000 1.0
C      1  0.4435350000000  0.5057720000000  0.4047400000000 1.0
C      1  0.3745270000000  0.4674990000000  0.4988370000000 1.0
C      1  0.5942630000000  0.5678140000000  0.5634250000000 1.0
C      1  0.5443410000000  0.4744040000000  0.4362440000000 1.0
C      1  0.5248070000000  0.4762630000000  0.5408990000000 1.0
C      1  0.6170700000000  0.5722720000000  0.4739760000000 1.0
C      1  0.4962430000000  0.5416160000000  0.5647200000000 1.0
C      1  0.5030940000000  0.5740090000000  0.4345860000000 1.0
C      1  0.5810350000000  0.5190910000000  0.5528990000000 1.0
C      1  0.5171170000000  0.5999080000000  0.4519530000000 1.0
C      1  0.4957860000000  0.4901340000000  0.5298500000000 1.0
C      1  0.5348810000000  0.5351810000000  0.5232090000000 1.0
C      1  0.5092730000000  0.4299290000000  0.4521860000000 1.0
C      1  0.4671550000000  0.4893670000000  0.5101900000000 1.0
C      1  0.5462810000000  0.4682190000000  0.5660250000000 1.0
C      1  0.4931660000000  0.4776960000000  0.4392270000000 1.0
C      1  0.5796970000000  0.5140600000000  0.4354870000000 1.0
C      1  0.4814300000000  0.4734000000000  0.6112070000000 1.0
C      1  0.5031270000000  0.4409080000000  0.4805590000000 1.0
C      1  0.5231870000000  0.5069850000000  0.4883170000000 1.0
C      1  0.5194040000000  0.4670830000000  0.5962480000000 1.0
C      1  0.5106810000000  0.5274860000000  0.6033810000000 1.0
C      1  0.4070030000000  0.4370770000000  0.5347820000000 1.0
C      1  0.5331400000000  0.4811500000000  0.3794400000000 1.0
C      1  0.4889790000000  0.4234530000000  0.5157070000000 1.0
C      1  0.5025170000000  0.5801290000000  0.5196410000000 1.0
C      1  0.5871570000000  0.4878710000000  0.4237410000000 1.0
C      1  0.4247870000000  0.4401170000000  0.4483240000000 1.0
C      1  0.4533640000000  0.4401360000000  0.5797470000000 1.0
C      1  0.4968830000000  0.5661760000000  0.4774700000000 1.0
C      1  0.5206690000000  0.5681370000000  0.4101720000000 1.0
C      1  0.4276900000000  0.4611060000000  0.4882580000000 1.0
C      1  0.5698370000000  0.5191210000000  0.4906540000000 1.0
C      1  0.4056750000000  0.4787900000000  0.4692890000000 1.0
C      1  0.5551890000000  0.4219860000000  0.5527200000000 1.0
C      1  0.4371620000000  0.4753180000000  0.6340430000000 1.0
C      1  0.4704760000000  0.5272840000000  0.5702960000000 1.0
C      1  0.4689030000000  0.4607590000000  0.3935210000000 1.0
C      1  0.5529760000000  0.5946580000000  0.4925550000000 1.0
C      1  0.4011890000000  0.5101330000000  0.5034420000000 1.0
C      1  0.5226500000000  0.4445340000000  0.5288220000000 1.0
C      1  0.5381140000000  0.5943860000000  0.5532720000000 1.0
C      1  0.5988210000000  0.5406310000000  0.5692300000000 1.0
C      1  0.5828620000000  0.4389540000000  0.4645120000000 1.0
C      1  0.4457740000000  0.4599060000000  0.5358550000000 1.0
C      1  0.4888770000000  0.5205680000000  0.4227010000000 1.0
C      1  0.4969730000000  0.4720550000000  0.4094490000000 1.0
C      1  0.5692660000000  0.5395110000000  0.4289620000000 1.0
C      1  0.4585050000000  0.5653150000000  0.4049260000000 1.0
C      1  0.5449100000000  0.5810840000000  0.5802400000000 1.0
C      1  0.5060860000000  0.4392960000000  0.4104520000000 1.0
C      1  0.4402580000000  0.5486480000000  0.5844040000000 1.0
C      1  0.4702260000000  0.4603720000000  0.5581550000000 1.0
C      1  0.4382650000000  0.4158780000000  0.4627070000000 1.0
C      1  0.4813060000000  0.5099200000000  0.4709160000000 1.0
C      1  0.4727900000000  0.5383700000000  0.5325450000000 1.0
C      1  0.4462770000000  0.5250220000000  0.5226660000000 1.0
C      1  0.5127720000000  0.5362580000000  0.4740290000000 1.0
C      1  0.4938250000000  0.4605100000000  0.5035960000000 1.0
C      1  0.4007240000000  0.5375650000000  0.4670750000000 1.0
C      1  0.5421910000000  0.5525690000000  0.4736540000000 1.0
C      1  0.5593620000000  0.4457160000000  0.5130190000000 1.0
C      1  0.5600260000000  0.4144530000000  0.5037370000000 1.0
C      1  0.4020960000000  0.4546280000000  0.5096900000000 1.0
C      1  0.4651310000000  0.4088410000000  0.4512560000000 1.0
C      1  0.4911390000000  0.3991140000000  0.4939170000000 1.0
C      1  0.4644000000000  0.5466350000000  0.3867810000000 1.0
C      1  0.4615360000000  0.5026730000000  0.4325530000000 1.0
C      1  0.4697430000000  0.4880870000000  0.5762310000000 1.0
C      1  0.4742080000000  0.4399430000000  0.4146000000000 1.0
C      1  0.4793800000000  0.5847520000000  0.5557620000000 1.0
C      1  0.4510180000000  0.4546960000000  0.4643450000000 1.0
C      1  0.4968420000000  0.4929430000000  0.4959650000000 1.0
C      1  0.6169080000000  0.4771850000000  0.4994090000000 1.0
C      1  0.3983880000000  0.4826690000000  0.5481520000000 1.0
C      1  0.4707570000000  0.4456070000000  0.4879420000000 1.0
C      1  0.5414840000000  0.5049040000000  0.4428110000000 1.0
C      1  0.4601700000000  0.3976820000000  0.5067820000000 1.0
C      1  0.5800440000000  0.4956250000000  0.5209240000000 1.0
C      1  0.5216260000000  0.5799600000000  0.3871890000000 1.0
C      1  0.4670300000000  0.5718600000000  0.4720050000000 1.0
C      1  0.4236280000000  0.5240170000000  0.5480830000000 1.0
C      1  0.5089080000000  0.4064650000000  0.5475840000000 1.0
C      1  0.5430800000000  0.5910240000000  0.4638730000000 1.0
C      1  0.5201740000000  0.3913160000000  0.5052280000000 1.0
C      1  0.3941070000000  0.5143720000000  0.5364360000000 1.0
C      1  0.5994200000000  0.4824260000000  0.5532500000000 1.0
C      1  0.5437380000000  0.4902010000000  0.5899070000000 1.0
C      1  0.5947760000000  0.5554720000000  0.5188800000000 1.0
C      1  0.4178340000000  0.5131100000000  0.4090700000000 1.0
C      1  0.4159640000000  0.5472060000000  0.4927810000000 1.0
C      1  0.6063330000000  0.4830480000000  0.5239010000000 1.0
C      1  0.5578450000000  0.5061520000000  0.5633870000000 1.0
C      1  0.5822400000000  0.5279970000000  0.5210860000000 1.0
C      1  0.6087890000000  0.5084880000000  0.5678960000000 1.0
C      1  0.5504710000000  0.4615060000000  0.3905610000000 1.0
C      1  0.5277990000000  0.5084060000000  0.5515890000000 1.0
C      1  0.4870000000000  0.5323340000000  0.4958630000000 1.0
C      1  0.5349080000000  0.5550850000000  0.5998810000000 1.0
C      1  0.5896100000000  0.4636790000000  0.4436610000000 1.0
C      1  0.4315110000000  0.5222740000000  0.5777080000000 1.0
C      1  0.4897250000000  0.4070060000000  0.4644020000000 1.0
C      1  0.4954160000000  0.4989450000000  0.5956630000000 1.0
C      1  0.5631440000000  0.4720930000000  0.4151540000000 1.0
C      1  0.4722820000000  0.5794050000000  0.4307240000000 1.0
C      1  0.5350800000000  0.4129320000000  0.5268410000000 1.0
C      1  0.3901410000000  0.5052720000000  0.4657430000000 1.0
C      1  0.5063280000000  0.6028520000000  0.5446550000000 1.0
C      1  0.5298070000000  0.4394250000000  0.4974070000000 1.0
C      1  0.4952310000000  0.5427310000000  0.4456120000000 1.0
C      1  0.5509380000000  0.4839720000000  0.5205570000000 1.0
C      1  0.5849660000000  0.5744120000000  0.5371370000000 1.0
C      1  0.4435250000000  0.4880140000000  0.4926270000000 1.0
C      1  0.6055740000000  0.4515020000000  0.4842580000000 1.0
C      1  0.4319370000000  0.4502360000000  0.5629960000000 1.0
C      1  0.6137300000000  0.4974660000000  0.4779060000000 1.0
C      1  0.4659990000000  0.5391730000000  0.4626340000000 1.0
C      1  0.5222650000000  0.5168730000000  0.4174260000000 1.0
C      1  0.4632640000000  0.4358970000000  0.4387870000000 1.0
C      1  0.5432610000000  0.4368570000000  0.5734150000000 1.0
C      1  0.4267410000000  0.5105530000000  0.4809770000000 1.0
C      1  0.4919240000000  0.6050430000000  0.4696890000000 1.0
C      1  0.4680260000000  0.5212470000000  0.3979570000000 1.0
C      1  0.5088340000000  0.5030610000000  0.4521600000000 1.0
C      1  0.6218660000000  0.4308390000000  0.4947440000000 1.0
C      1  0.3756940000000  0.4937140000000  0.4909920000000 1.0
C      1  0.4454830000000  0.4390690000000  0.5089190000000 1.0
C      1  0.4195730000000  0.4693450000000  0.4445880000000 1.0
C      1  0.5126790000000  0.5643150000000  0.5479740000000 1.0
C      1  0.5224680000000  0.5691250000000  0.4958570000000 1.0
C      1  0.5084230000000  0.4802010000000  0.5704410000000 1.0
C      1  0.5377370000000  0.5450950000000  0.4208160000000 1.0
C      1  0.4075150000000  0.5433490000000  0.5247500000000 1.0
C      1  0.4026840000000  0.4565930000000  0.5580400000000 1.0
C      1  0.5014640000000  0.5795270000000  0.5762490000000 1.0
C      1  0.4358740000000  0.5797650000000  0.4608890000000 1.0
C      1  0.4596810000000  0.5570230000000  0.5577730000000 1.0
C      1  0.5392640000000  0.4410230000000  0.4077700000000 1.0
C      1  0.4907790000000  0.4509460000000  0.5356420000000 1.0
C      1  0.4599220000000  0.4194260000000  0.5329250000000 1.0
C      1  0.4262550000000  0.4175880000000  0.5374030000000 1.0
C      1  0.5724350000000  0.4419660000000  0.5402580000000 1.0
C      1  0.4964240000000  0.4469320000000  0.6016600000000 1.0
C      1  0.4535050000000  0.4825110000000  0.6138890000000 1.0
C      1  0.5397470000000  0.5235630000000  0.5922020000000 1.0
C      1  0.5480960000000  0.5604200000000  0.5122110000000 1.0
C      1  0.4308760000000  0.5625050000000  0.5404560000000 1.0
C      1  0.4791760000000  0.5589550000000  0.5121320000000 1.0
C      1  0.5515350000000  0.5632240000000  0.4460830000000 1.0
C      1  0.5685310000000  0.5046240000000  0.4635680000000 1.0
C      1  0.4511980000000  0.5534640000000  0.4355580000000 1.0
C      1  0.5050750000000  0.5277560000000  0.5352330000000 1.0
C      1  0.5327550000000  0.4789140000000  0.4747760000000 1.0
C      1  0.4135900000000  0.4848200000000  0.5187420000000 1.0
C      1  0.5981090000000  0.5631940000000  0.4906120000000 1.0
END
