TITL C-2847947-6848-613 0.00127766512882509 125000 -590.299916114038 0 0 113 (C1) n - 1
REM
REM in /home/bkarasulu/work/CARBON/AIRSS/Generating-Clusters/AIREBO/with-SteepDescent/Only-C1/SD-CG-opt/Try1-1.4A-POS3A/HFTN-CG
REM
REM
REM
REM
REM
REM ./C.cell (11c1c37f851c82e70ff6c80c92926a4b)
REM
REM compiler GCC version 9.2.1 20190827 (Red Hat 9.2.1-1)
REM options -cpp -mtune=generic -march=x86-64 -g -O0 -fpre-include=/usr/include/finclude/math-vector-fortran.h
REM seed -1065743278 898690757 -1151400570 1358598761 -1041183564 -407012380 1254548786 809252605 1292329240 1992293694 -1551495241 1989494175 -57608914 -597072751 -1520437923 1642698669 -170176349 556106080 249381933 1767001635 1321821457 -1146741186 1308345169 267434799 1680349501 533319469 -1546222568 1382520580 125645303 -1723953983 700282267 -1398910233 -91806190
REM
CELL 1.54180   50.00000   50.00000   50.00000   90.00000   90.00000   90.00000
LATT -1
SFAC C  
C      1  0.4361260000000  0.5452040000000  0.5412070000000 1.0
C      1  0.4983500000000  0.5895640000000  0.5231520000000 1.0
C      1  0.5627270000000  0.5224590000000  0.4893710000000 1.0
C      1  0.5885570000000  0.4419180000000  0.4827680000000 1.0
C      1  0.5797680000000  0.5285360000000  0.4642010000000 1.0
C      1  0.4431680000000  0.4680040000000  0.5490760000000 1.0
C      1  0.4596710000000  0.4388230000000  0.4651630000000 1.0
C      1  0.5446760000000  0.5706790000000  0.5532240000000 1.0
C      1  0.4861610000000  0.4359690000000  0.5686150000000 1.0
C      1  0.4740910000000  0.5003100000000  0.3666060000000 1.0
C      1  0.5490780000000  0.4525990000000  0.4545430000000 1.0
C      1  0.4761450000000  0.4925140000000  0.5020890000000 1.0
C      1  0.4697260000000  0.5795620000000  0.5301160000000 1.0
C      1  0.4599430000000  0.4451040000000  0.5325990000000 1.0
C      1  0.5966310000000  0.4334170000000  0.5358510000000 1.0
C      1  0.5862360000000  0.4757590000000  0.4828190000000 1.0
C      1  0.5275510000000  0.4599780000000  0.5525790000000 1.0
C      1  0.5675300000000  0.5398880000000  0.5422220000000 1.0
C      1  0.4442380000000  0.5735200000000  0.4519250000000 1.0
C      1  0.4453140000000  0.4665580000000  0.4715350000000 1.0
C      1  0.4527950000000  0.5722380000000  0.5030730000000 1.0
C      1  0.4653070000000  0.5423650000000  0.4956160000000 1.0
C      1  0.5645490000000  0.4823920000000  0.4574840000000 1.0
C      1  0.5448970000000  0.4440910000000  0.5347550000000 1.0
C      1  0.4398120000000  0.4930220000000  0.6179610000000 1.0
C      1  0.5431120000000  0.4124010000000  0.5322590000000 1.0
C      1  0.5249210000000  0.4754600000000  0.5812270000000 1.0
C      1  0.5530520000000  0.5662650000000  0.4969030000000 1.0
C      1  0.5501580000000  0.4811360000000  0.4266350000000 1.0
C      1  0.5414830000000  0.4851960000000  0.5143550000000 1.0
C      1  0.4769470000000  0.4845060000000  0.4533170000000 1.0
C      1  0.4842340000000  0.5341250000000  0.4353540000000 1.0
C      1  0.5963250000000  0.5023970000000  0.4974900000000 1.0
C      1  0.5622850000000  0.5686060000000  0.5252540000000 1.0
C      1  0.5382180000000  0.4241770000000  0.4670050000000 1.0
C      1  0.4343710000000  0.5267410000000  0.4494010000000 1.0
C      1  0.5074620000000  0.4922010000000  0.5153860000000 1.0
C      1  0.4347390000000  0.4922780000000  0.5674180000000 1.0
C      1  0.5560540000000  0.4513900000000  0.4212880000000 1.0
C      1  0.5144710000000  0.5185150000000  0.4384760000000 1.0
C      1  0.5050410000000  0.5717140000000  0.4880420000000 1.0
C      1  0.5290880000000  0.4383040000000  0.5051970000000 1.0
C      1  0.5313000000000  0.5831200000000  0.5258140000000 1.0
C      1  0.4881720000000  0.4396550000000  0.4482680000000 1.0
C      1  0.4359330000000  0.4933380000000  0.5275090000000 1.0
C      1  0.5021690000000  0.5720580000000  0.5698930000000 1.0
C      1  0.4704370000000  0.4636280000000  0.5806060000000 1.0
C      1  0.5493470000000  0.4949100000000  0.4833030000000 1.0
C      1  0.4456740000000  0.5244980000000  0.4856610000000 1.0
C      1  0.4744520000000  0.5780420000000  0.4775100000000 1.0
C      1  0.4648270000000  0.4893750000000  0.4136510000000 1.0
C      1  0.4781030000000  0.4586890000000  0.4996570000000 1.0
C      1  0.5132500000000  0.4445860000000  0.5776490000000 1.0
C      1  0.5229970000000  0.5595320000000  0.4635520000000 1.0
C      1  0.5692500000000  0.5131100000000  0.4436800000000 1.0
C      1  0.4905340000000  0.5423070000000  0.4789000000000 1.0
C      1  0.4987690000000  0.4453540000000  0.5188860000000 1.0
C      1  0.5037290000000  0.4700600000000  0.5366170000000 1.0
C      1  0.5244560000000  0.5610230000000  0.5861290000000 1.0
C      1  0.4966200000000  0.4711250000000  0.4752220000000 1.0
C      1  0.5597800000000  0.4326840000000  0.4907310000000 1.0
C      1  0.4134000000000  0.4872610000000  0.4413270000000 1.0
C      1  0.4178040000000  0.5393200000000  0.4763020000000 1.0
C      1  0.4437540000000  0.4882820000000  0.4469660000000 1.0
C      1  0.5354670000000  0.5407540000000  0.4890150000000 1.0
C      1  0.3990100000000  0.4935650000000  0.4614540000000 1.0
C      1  0.4138530000000  0.5062870000000  0.4833290000000 1.0
C      1  0.4060200000000  0.5445580000000  0.5518190000000 1.0
C      1  0.5214890000000  0.4897740000000  0.4248650000000 1.0
C      1  0.5054600000000  0.4790590000000  0.3979060000000 1.0
C      1  0.5144690000000  0.5209240000000  0.4710310000000 1.0
C      1  0.5262250000000  0.5335160000000  0.5205500000000 1.0
C      1  0.5642200000000  0.4632370000000  0.5055420000000 1.0
C      1  0.4235020000000  0.5155080000000  0.5499820000000 1.0
C      1  0.4829630000000  0.5086790000000  0.4747890000000 1.0
C      1  0.5087150000000  0.4144410000000  0.4920750000000 1.0
C      1  0.4981620000000  0.5205800000000  0.5291260000000 1.0
C      1  0.5221420000000  0.4529670000000  0.4753110000000 1.0
C      1  0.5174820000000  0.5509160000000  0.5480950000000 1.0
C      1  0.4808640000000  0.4903120000000  0.3904710000000 1.0
C      1  0.4430480000000  0.4917660000000  0.4942870000000 1.0
C      1  0.5800860000000  0.5207460000000  0.5162460000000 1.0
C      1  0.4840670000000  0.4216870000000  0.5377150000000 1.0
C      1  0.5160750000000  0.5253160000000  0.5704510000000 1.0
C      1  0.4675440000000  0.4606370000000  0.4310000000000 1.0
C      1  0.4665940000000  0.5455100000000  0.5293870000000 1.0
C      1  0.4839750000000  0.4110380000000  0.5051060000000 1.0
C      1  0.4870620000000  0.5375480000000  0.5553440000000 1.0
C      1  0.5006850000000  0.4630880000000  0.4270380000000 1.0
C      1  0.5742990000000  0.5068320000000  0.5464300000000 1.0
C      1  0.5752500000000  0.4548880000000  0.5346200000000 1.0
C      1  0.4332150000000  0.5670970000000  0.4761990000000 1.0
C      1  0.4765140000000  0.4687590000000  0.5482930000000 1.0
C      1  0.4603330000000  0.5144320000000  0.4328750000000 1.0
C      1  0.4109310000000  0.4756870000000  0.5126990000000 1.0
C      1  0.4837120000000  0.4940710000000  0.5878870000000 1.0
C      1  0.4724200000000  0.5633000000000  0.4483310000000 1.0
C      1  0.5064130000000  0.4189850000000  0.4613590000000 1.0
C      1  0.5819430000000  0.4802590000000  0.5516040000000 1.0
C      1  0.5459040000000  0.5112840000000  0.5301750000000 1.0
C      1  0.5182760000000  0.4919310000000  0.4831520000000 1.0
C      1  0.4491810000000  0.4436080000000  0.5038360000000 1.0
C      1  0.5099220000000  0.4989250000000  0.5828020000000 1.0
C      1  0.5471310000000  0.5240720000000  0.4308250000000 1.0
C      1  0.5080190000000  0.5575650000000  0.4340720000000 1.0
C      1  0.4805190000000  0.5844720000000  0.5603520000000 1.0
C      1  0.4511830000000  0.4886160000000  0.5933830000000 1.0
C      1  0.5484680000000  0.5422050000000  0.5714180000000 1.0
C      1  0.4617700000000  0.4189350000000  0.4893820000000 1.0
C      1  0.4225960000000  0.4574370000000  0.4951600000000 1.0
C      1  0.4648340000000  0.5115840000000  0.5278690000000 1.0
C      1  0.5188560000000  0.5988780000000  0.4983320000000 1.0
C      1  0.5393690000000  0.5519170000000  0.4356200000000 1.0
END
