TITL C-2848507-1641-139 0.000501986994117476 125000 -171.55361063252 0 0 32 (C1) n - 1
REM
REM in /home/bkarasulu/work/CARBON/AIRSS/Generating-Clusters/AIREBO/with-SteepDescent/Only-C1/SD-CG-opt/Try1-1.4A-POS3A/HFTN-CG
REM
REM
REM
REM
REM
REM ./C.cell (11c1c37f851c82e70ff6c80c92926a4b)
REM
REM compiler GCC version 9.2.1 20190827 (Red Hat 9.2.1-1)
REM options -cpp -mtune=generic -march=x86-64 -g -O0 -fpre-include=/usr/include/finclude/math-vector-fortran.h
REM seed -26230103 896355291 941947980 439169256 1660616708 -667321990 1784452754 234253111 1981342920 -363724717 -318185056 -1532525280 -671287195 1165768346 -1644639202 -1275723312 2133614420 1866549020 141921427 -1052289703 131050945 -1307869285 -1833191308 1661868653 2068578851 -341537992 698324320 1722768778 -1392673124 -711047577 -774855242 1248569620 -54828835
REM
CELL 1.54180   50.00000   50.00000   50.00000   90.00000   90.00000   90.00000
LATT -1
SFAC C  
C      1  0.5163530000000  0.5182400000000  0.5454340000000 1.0
C      1  0.5320600000000  0.5491760000000  0.5326140000000 1.0
C      1  0.5234820000000  0.5450350000000  0.4819350000000 1.0
C      1  0.4735070000000  0.4724970000000  0.5367520000000 1.0
C      1  0.5401190000000  0.4472130000000  0.5347900000000 1.0
C      1  0.4246110000000  0.5370610000000  0.5235570000000 1.0
C      1  0.4503640000000  0.4738930000000  0.4578880000000 1.0
C      1  0.4921790000000  0.5455430000000  0.4439790000000 1.0
C      1  0.4778950000000  0.5265030000000  0.5104910000000 1.0
C      1  0.5302450000000  0.4830340000000  0.4536610000000 1.0
C      1  0.5379000000000  0.4978100000000  0.4744100000000 1.0
C      1  0.5180410000000  0.4368760000000  0.4768800000000 1.0
C      1  0.4574890000000  0.4747300000000  0.4909860000000 1.0
C      1  0.5124210000000  0.4282060000000  0.4472100000000 1.0
C      1  0.4609810000000  0.4956190000000  0.5165510000000 1.0
C      1  0.5404770000000  0.5237160000000  0.4888180000000 1.0
C      1  0.5120890000000  0.5892770000000  0.5034670000000 1.0
C      1  0.5395740000000  0.5182700000000  0.5205980000000 1.0
C      1  0.4993890000000  0.5398910000000  0.5257020000000 1.0
C      1  0.4995440000000  0.4738000000000  0.5446760000000 1.0
C      1  0.5088500000000  0.4611580000000  0.4555410000000 1.0
C      1  0.4557910000000  0.4563670000000  0.5185270000000 1.0
C      1  0.4463270000000  0.5246330000000  0.5193800000000 1.0
C      1  0.5004480000000  0.4894960000000  0.4857040000000 1.0
C      1  0.5164360000000  0.5623170000000  0.5066380000000 1.0
C      1  0.5079250000000  0.4951990000000  0.5594800000000 1.0
C      1  0.5277680000000  0.4901250000000  0.5059460000000 1.0
C      1  0.5204810000000  0.4642180000000  0.5249330000000 1.0
C      1  0.5079790000000  0.4576140000000  0.4953540000000 1.0
C      1  0.4810490000000  0.4694200000000  0.4669190000000 1.0
C      1  0.5004850000000  0.5363750000000  0.4677390000000 1.0
C      1  0.4877430000000  0.5166890000000  0.4834410000000 1.0
END
