TITL C-2848502-4955-657 -0.000172323259197266 125000 -653.499943619126 0 0 118 (C1) n - 1
REM
REM in /home/bkarasulu/work/CARBON/AIRSS/Generating-Clusters/AIREBO/with-SteepDescent/Only-C1/SD-CG-opt/Try1-1.4A-POS3A/HFTN-CG
REM
REM
REM
REM
REM
REM ./C.cell (11c1c37f851c82e70ff6c80c92926a4b)
REM
REM compiler GCC version 9.2.1 20190827 (Red Hat 9.2.1-1)
REM options -cpp -mtune=generic -march=x86-64 -g -O0 -fpre-include=/usr/include/finclude/math-vector-fortran.h
REM seed 882861598 -1692025282 -1216310711 -283062911 777494125 -2124467598 -1285839220 1895444682 463892881 1153566194 294018778 -957359997 2020512486 -350627391 459434405 -1009209882 737517421 801542535 -562742213 -1040472828 -1901813419 1210652578 644437031 -1740395886 756799198 -1878179656 -1602786965 -1001579189 119152319 -1451923760 713076148 -980897327 1610576166
REM
CELL 1.54180   50.00000   50.00000   50.00000   90.00000   90.00000   90.00000
LATT -1
SFAC C  
C      1  0.5454960000000  0.5724790000000  0.4817370000000 1.0
C      1  0.4480380000000  0.4987030000000  0.4520120000000 1.0
C      1  0.5411320000000  0.5417220000000  0.4723010000000 1.0
C      1  0.4880290000000  0.5900630000000  0.4426050000000 1.0
C      1  0.5106620000000  0.5087850000000  0.4325550000000 1.0
C      1  0.4613440000000  0.5261470000000  0.4778340000000 1.0
C      1  0.4734970000000  0.4210740000000  0.4813960000000 1.0
C      1  0.5658050000000  0.4783700000000  0.5445920000000 1.0
C      1  0.5770200000000  0.4828230000000  0.4241660000000 1.0
C      1  0.4990210000000  0.4340290000000  0.4535140000000 1.0
C      1  0.4849570000000  0.4447830000000  0.4286530000000 1.0
C      1  0.4320680000000  0.4985440000000  0.5211490000000 1.0
C      1  0.5280490000000  0.4135990000000  0.4868170000000 1.0
C      1  0.5286010000000  0.4808350000000  0.5113050000000 1.0
C      1  0.5513690000000  0.4904140000000  0.4132320000000 1.0
C      1  0.5731550000000  0.5107540000000  0.5519070000000 1.0
C      1  0.5415950000000  0.5331710000000  0.5140830000000 1.0
C      1  0.5073790000000  0.4585380000000  0.5822330000000 1.0
C      1  0.4945770000000  0.5694490000000  0.5586680000000 1.0
C      1  0.5511500000000  0.4539450000000  0.5553410000000 1.0
C      1  0.5115280000000  0.5250170000000  0.4033090000000 1.0
C      1  0.4392500000000  0.5404210000000  0.5670320000000 1.0
C      1  0.4834550000000  0.5868950000000  0.4674210000000 1.0
C      1  0.4990090000000  0.5624080000000  0.4818230000000 1.0
C      1  0.5047430000000  0.4612360000000  0.4125580000000 1.0
C      1  0.4638510000000  0.5476940000000  0.5040520000000 1.0
C      1  0.4218820000000  0.4619290000000  0.5065740000000 1.0
C      1  0.5598000000000  0.4410460000000  0.5182700000000 1.0
C      1  0.5161670000000  0.5636460000000  0.5767060000000 1.0
C      1  0.4199370000000  0.4806040000000  0.4578760000000 1.0
C      1  0.5301490000000  0.5158790000000  0.4900610000000 1.0
C      1  0.5798810000000  0.4474680000000  0.4601590000000 1.0
C      1  0.4920310000000  0.4497110000000  0.4828690000000 1.0
C      1  0.4322490000000  0.5134540000000  0.4901840000000 1.0
C      1  0.5105010000000  0.6027560000000  0.5082690000000 1.0
C      1  0.4384360000000  0.4638110000000  0.5617640000000 1.0
C      1  0.4592070000000  0.4438330000000  0.5632110000000 1.0
C      1  0.4259460000000  0.4694250000000  0.5376120000000 1.0
C      1  0.4194010000000  0.5640470000000  0.5239440000000 1.0
C      1  0.4262050000000  0.5361500000000  0.5962910000000 1.0
C      1  0.5316810000000  0.5706890000000  0.5405730000000 1.0
C      1  0.4796420000000  0.4869760000000  0.5825790000000 1.0
C      1  0.4903350000000  0.4704250000000  0.5066040000000 1.0
C      1  0.4626740000000  0.4843580000000  0.4287290000000 1.0
C      1  0.4903720000000  0.4033530000000  0.4636290000000 1.0
C      1  0.5116070000000  0.4846500000000  0.5961290000000 1.0
C      1  0.5219380000000  0.5137890000000  0.5481690000000 1.0
C      1  0.4609850000000  0.5290890000000  0.4439260000000 1.0
C      1  0.5285520000000  0.4420570000000  0.4690040000000 1.0
C      1  0.4487110000000  0.4300730000000  0.4898740000000 1.0
C      1  0.5423670000000  0.4972150000000  0.5309350000000 1.0
C      1  0.5445700000000  0.4638660000000  0.4896250000000 1.0
C      1  0.5836180000000  0.5224880000000  0.4915800000000 1.0
C      1  0.4884630000000  0.5097600000000  0.4654500000000 1.0
C      1  0.5760360000000  0.5233110000000  0.4584450000000 1.0
C      1  0.4447190000000  0.5194180000000  0.5408300000000 1.0
C      1  0.4001470000000  0.5053930000000  0.5291630000000 1.0
C      1  0.5065840000000  0.5359300000000  0.4652250000000 1.0
C      1  0.4456780000000  0.5494120000000  0.5285960000000 1.0
C      1  0.5205020000000  0.4150810000000  0.5420900000000 1.0
C      1  0.4119820000000  0.4792500000000  0.4859620000000 1.0
C      1  0.4783250000000  0.4530100000000  0.5815000000000 1.0
C      1  0.4254300000000  0.5100740000000  0.5744860000000 1.0
C      1  0.4458110000000  0.4867700000000  0.5777440000000 1.0
C      1  0.4006690000000  0.5055510000000  0.4977030000000 1.0
C      1  0.4482430000000  0.5595960000000  0.4777580000000 1.0
C      1  0.5204220000000  0.4985040000000  0.4624950000000 1.0
C      1  0.5221660000000  0.5400340000000  0.4377830000000 1.0
C      1  0.5889220000000  0.5533950000000  0.4955740000000 1.0
C      1  0.5037800000000  0.5657660000000  0.4297070000000 1.0
C      1  0.4845490000000  0.4760380000000  0.4626760000000 1.0
C      1  0.4810170000000  0.4850140000000  0.5351490000000 1.0
C      1  0.4924000000000  0.5571820000000  0.5095900000000 1.0
C      1  0.3985100000000  0.5073640000000  0.5563190000000 1.0
C      1  0.5435880000000  0.5182690000000  0.4125480000000 1.0
C      1  0.5692160000000  0.5137760000000  0.5182460000000 1.0
C      1  0.5359670000000  0.4984260000000  0.5943930000000 1.0
C      1  0.4505350000000  0.4463530000000  0.5162570000000 1.0
C      1  0.4927440000000  0.4240350000000  0.5321230000000 1.0
C      1  0.4932750000000  0.4846760000000  0.4319960000000 1.0
C      1  0.4855910000000  0.5394520000000  0.5486670000000 1.0
C      1  0.5564400000000  0.4506360000000  0.4418560000000 1.0
C      1  0.5318260000000  0.4714400000000  0.4527210000000 1.0
C      1  0.5906080000000  0.4967840000000  0.4702970000000 1.0
C      1  0.4751440000000  0.5071910000000  0.5024750000000 1.0
C      1  0.5531830000000  0.5340790000000  0.4414240000000 1.0
C      1  0.4547140000000  0.4763000000000  0.4768390000000 1.0
C      1  0.4572730000000  0.4560130000000  0.4284310000000 1.0
C      1  0.5275570000000  0.4511600000000  0.5232510000000 1.0
C      1  0.5689080000000  0.4733380000000  0.5127250000000 1.0
C      1  0.5305730000000  0.4723670000000  0.4210450000000 1.0
C      1  0.5028780000000  0.5809660000000  0.5292780000000 1.0
C      1  0.5498750000000  0.5137950000000  0.5766310000000 1.0
C      1  0.4616730000000  0.5612700000000  0.5555360000000 1.0
C      1  0.5027930000000  0.4896700000000  0.5575980000000 1.0
C      1  0.5917570000000  0.4843840000000  0.5001000000000 1.0
C      1  0.5196560000000  0.4606080000000  0.5539230000000 1.0
C      1  0.4577060000000  0.4791110000000  0.5105930000000 1.0
C      1  0.5054830000000  0.4978910000000  0.4994080000000 1.0
C      1  0.5107090000000  0.4324360000000  0.5054240000000 1.0
C      1  0.4371000000000  0.5486570000000  0.4358090000000 1.0
C      1  0.4674040000000  0.4338400000000  0.5380720000000 1.0
C      1  0.5709740000000  0.4440740000000  0.4862850000000 1.0
C      1  0.5544400000000  0.5383930000000  0.5454340000000 1.0
C      1  0.5321440000000  0.5394410000000  0.5680350000000 1.0
C      1  0.4858890000000  0.5378090000000  0.4222170000000 1.0
C      1  0.4392860000000  0.4491710000000  0.4723410000000 1.0
C      1  0.4740100000000  0.5135610000000  0.5437880000000 1.0
C      1  0.5592580000000  0.5674840000000  0.5291810000000 1.0
C      1  0.5143510000000  0.3928740000000  0.4751350000000 1.0
C      1  0.4322180000000  0.4524060000000  0.4433700000000 1.0
C      1  0.5201110000000  0.5729640000000  0.4590980000000 1.0
C      1  0.5143550000000  0.5427670000000  0.5320450000000 1.0
C      1  0.4326430000000  0.5657490000000  0.4570510000000 1.0
C      1  0.5675110000000  0.5687060000000  0.5028030000000 1.0
C      1  0.5475900000000  0.4245760000000  0.5450020000000 1.0
C      1  0.5259170000000  0.5975750000000  0.4890790000000 1.0
C      1  0.5871510000000  0.4749850000000  0.4497890000000 1.0
END
