TITL C-2847947-6848-544 -0.00199216457973949 125000 -856.307079162227 0 0 159 (C1) n - 1
REM
REM in /home/bkarasulu/work/CARBON/AIRSS/Generating-Clusters/AIREBO/with-SteepDescent/Only-C1/SD-CG-opt/Try1-1.4A-POS3A/HFTN-CG
REM
REM
REM
REM
REM
REM ./C.cell (11c1c37f851c82e70ff6c80c92926a4b)
REM
REM compiler GCC version 9.2.1 20190827 (Red Hat 9.2.1-1)
REM options -cpp -mtune=generic -march=x86-64 -g -O0 -fpre-include=/usr/include/finclude/math-vector-fortran.h
REM seed 1516936730 319219868 1306700045 -1556308969 169687070 -2058524509 -871016748 1217077707 1239596560 -1508595381 -587804675 829735574 -914145118 -640604199 1599117627 -1741385934 -1864529283 -377450696 -525042720 916265680 -1864505052 -1466166907 -932090677 -1346856346 998078376 -2134757415 589126122 1175103774 -1993488628 1699956995 -1501489963 -1672162184 1817842542
REM
CELL 1.54180   50.00000   50.00000   50.00000   90.00000   90.00000   90.00000
LATT -1
SFAC C  
C      1  0.4536950000000  0.4621950000000  0.5008050000000 1.0
C      1  0.4657120000000  0.5569410000000  0.4710720000000 1.0
C      1  0.5959810000000  0.4912270000000  0.4844540000000 1.0
C      1  0.4913330000000  0.5322740000000  0.4171500000000 1.0
C      1  0.5173450000000  0.4745500000000  0.5007130000000 1.0
C      1  0.5900300000000  0.5568300000000  0.4703500000000 1.0
C      1  0.4293590000000  0.4941980000000  0.4836610000000 1.0
C      1  0.4440610000000  0.6078610000000  0.4826130000000 1.0
C      1  0.5493400000000  0.4457490000000  0.5674490000000 1.0
C      1  0.4516710000000  0.3966060000000  0.5030580000000 1.0
C      1  0.5831820000000  0.4953970000000  0.5324900000000 1.0
C      1  0.5075000000000  0.5687770000000  0.4794750000000 1.0
C      1  0.5832370000000  0.4487610000000  0.4688530000000 1.0
C      1  0.5282570000000  0.4717920000000  0.4413720000000 1.0
C      1  0.4383930000000  0.4081720000000  0.4749250000000 1.0
C      1  0.5305590000000  0.4651330000000  0.4135870000000 1.0
C      1  0.5459720000000  0.5985620000000  0.5178840000000 1.0
C      1  0.5044370000000  0.4494080000000  0.4817800000000 1.0
C      1  0.3967060000000  0.5281880000000  0.4976280000000 1.0
C      1  0.4930760000000  0.5545500000000  0.5812770000000 1.0
C      1  0.5638610000000  0.5505530000000  0.4911390000000 1.0
C      1  0.5599420000000  0.4058680000000  0.4893240000000 1.0
C      1  0.5566830000000  0.4628480000000  0.4566190000000 1.0
C      1  0.4873380000000  0.5407660000000  0.5509540000000 1.0
C      1  0.4007170000000  0.5209470000000  0.5644730000000 1.0
C      1  0.4515110000000  0.4502510000000  0.6049520000000 1.0
C      1  0.5850540000000  0.4871240000000  0.5583220000000 1.0
C      1  0.4694880000000  0.5972260000000  0.5115010000000 1.0
C      1  0.4525140000000  0.4665240000000  0.5496280000000 1.0
C      1  0.6003880000000  0.4536760000000  0.5174420000000 1.0
C      1  0.5659480000000  0.5129050000000  0.6039860000000 1.0
C      1  0.5180360000000  0.5028400000000  0.4157100000000 1.0
C      1  0.4895060000000  0.5026140000000  0.4342200000000 1.0
C      1  0.5569540000000  0.5185080000000  0.4872600000000 1.0
C      1  0.5800630000000  0.4392090000000  0.4983060000000 1.0
C      1  0.4687640000000  0.5158970000000  0.3996540000000 1.0
C      1  0.4926980000000  0.4998630000000  0.3941080000000 1.0
C      1  0.4107500000000  0.4188410000000  0.4655100000000 1.0
C      1  0.5621630000000  0.4135550000000  0.4635340000000 1.0
C      1  0.5269700000000  0.4764370000000  0.3627960000000 1.0
C      1  0.5109750000000  0.4594000000000  0.5431360000000 1.0
C      1  0.4439880000000  0.5131250000000  0.5878040000000 1.0
C      1  0.4063250000000  0.4813930000000  0.5897270000000 1.0
C      1  0.5279180000000  0.4360790000000  0.5268220000000 1.0
C      1  0.5377740000000  0.5199630000000  0.4282610000000 1.0
C      1  0.5267350000000  0.5591500000000  0.5831350000000 1.0
C      1  0.4155080000000  0.5721900000000  0.5250140000000 1.0
C      1  0.5797920000000  0.5508920000000  0.5211890000000 1.0
C      1  0.5647790000000  0.4730930000000  0.5785340000000 1.0
C      1  0.5893950000000  0.5259720000000  0.4304400000000 1.0
C      1  0.5376750000000  0.4066820000000  0.5398260000000 1.0
C      1  0.4614720000000  0.5104270000000  0.5515860000000 1.0
C      1  0.4698500000000  0.5893730000000  0.4784180000000 1.0
C      1  0.5429360000000  0.4924310000000  0.5609250000000 1.0
C      1  0.4034530000000  0.5564070000000  0.4701470000000 1.0
C      1  0.5118300000000  0.6061390000000  0.4533830000000 1.0
C      1  0.4833310000000  0.4156190000000  0.4783100000000 1.0
C      1  0.5503310000000  0.5818990000000  0.4921370000000 1.0
C      1  0.5457510000000  0.4331680000000  0.4538770000000 1.0
C      1  0.4262780000000  0.5798010000000  0.4344140000000 1.0
C      1  0.4412880000000  0.5352210000000  0.5631780000000 1.0
C      1  0.4427260000000  0.4405730000000  0.6268710000000 1.0
C      1  0.4695640000000  0.5526220000000  0.5273310000000 1.0
C      1  0.4472210000000  0.5432330000000  0.4955420000000 1.0
C      1  0.5676390000000  0.5653810000000  0.5494720000000 1.0
C      1  0.4155690000000  0.5539310000000  0.5018590000000 1.0
C      1  0.4225940000000  0.4776700000000  0.4365150000000 1.0
C      1  0.5323620000000  0.4382000000000  0.4940530000000 1.0
C      1  0.5298290000000  0.5123980000000  0.5036730000000 1.0
C      1  0.4799610000000  0.4882090000000  0.5688470000000 1.0
C      1  0.4709720000000  0.4873860000000  0.5135170000000 1.0
C      1  0.5188020000000  0.5106990000000  0.5960940000000 1.0
C      1  0.4830060000000  0.4020960000000  0.5158760000000 1.0
C      1  0.4010610000000  0.5072130000000  0.4813650000000 1.0
C      1  0.5261900000000  0.5569250000000  0.5432460000000 1.0
C      1  0.5117710000000  0.3962620000000  0.5227770000000 1.0
C      1  0.6031260000000  0.5200090000000  0.4807810000000 1.0
C      1  0.5631530000000  0.5258970000000  0.4231060000000 1.0
C      1  0.6307430000000  0.4924200000000  0.5186630000000 1.0
C      1  0.5291700000000  0.4046830000000  0.4988040000000 1.0
C      1  0.6045590000000  0.4671560000000  0.4659300000000 1.0
C      1  0.4291360000000  0.5408200000000  0.4668510000000 1.0
C      1  0.4999140000000  0.5863200000000  0.5043960000000 1.0
C      1  0.4995410000000  0.5723310000000  0.5530110000000 1.0
C      1  0.4523500000000  0.5736790000000  0.5386590000000 1.0
C      1  0.4980100000000  0.5551740000000  0.5152350000000 1.0
C      1  0.5546990000000  0.4608180000000  0.5037930000000 1.0
C      1  0.4999110000000  0.4266280000000  0.4307010000000 1.0
C      1  0.6015890000000  0.5362150000000  0.5025900000000 1.0
C      1  0.4617720000000  0.3780070000000  0.5270570000000 1.0
C      1  0.5492150000000  0.5531570000000  0.4605600000000 1.0
C      1  0.5495330000000  0.5384770000000  0.5264660000000 1.0
C      1  0.4272710000000  0.4163790000000  0.5084470000000 1.0
C      1  0.4677840000000  0.5336460000000  0.5847640000000 1.0
C      1  0.4782700000000  0.5759980000000  0.4354820000000 1.0
C      1  0.4187940000000  0.4999730000000  0.5715730000000 1.0
C      1  0.5250350000000  0.5293200000000  0.5565970000000 1.0
C      1  0.5270160000000  0.5625850000000  0.4362840000000 1.0
C      1  0.4976040000000  0.4691600000000  0.4549490000000 1.0
C      1  0.5588930000000  0.4222780000000  0.5188470000000 1.0
C      1  0.4501810000000  0.5626940000000  0.4410560000000 1.0
C      1  0.4753060000000  0.4773100000000  0.4793050000000 1.0
C      1  0.5625360000000  0.4854840000000  0.4813220000000 1.0
C      1  0.5270380000000  0.4678660000000  0.5766840000000 1.0
C      1  0.4385340000000  0.4957550000000  0.5163630000000 1.0
C      1  0.4385920000000  0.5954750000000  0.5210480000000 1.0
C      1  0.5464760000000  0.5209130000000  0.5791800000000 1.0
C      1  0.4536700000000  0.5243990000000  0.5215630000000 1.0
C      1  0.5331590000000  0.4816730000000  0.5301680000000 1.0
C      1  0.4059870000000  0.4608770000000  0.5418650000000 1.0
C      1  0.5152130000000  0.4293520000000  0.4564950000000 1.0
C      1  0.4472000000000  0.5114350000000  0.4158310000000 1.0
C      1  0.5106100000000  0.4035420000000  0.4742590000000 1.0
C      1  0.4443810000000  0.5301590000000  0.4386840000000 1.0
C      1  0.4500510000000  0.5144300000000  0.4679980000000 1.0
C      1  0.4603930000000  0.4239960000000  0.4601760000000 1.0
C      1  0.4864440000000  0.5944350000000  0.5408640000000 1.0
C      1  0.5579950000000  0.4596710000000  0.5376430000000 1.0
C      1  0.5123690000000  0.4995710000000  0.4814440000000 1.0
C      1  0.4150590000000  0.4405970000000  0.5268120000000 1.0
C      1  0.4089900000000  0.4456260000000  0.4736030000000 1.0
C      1  0.4642400000000  0.4610970000000  0.5809200000000 1.0
C      1  0.6044100000000  0.4839050000000  0.5129280000000 1.0
C      1  0.4274140000000  0.4839130000000  0.5458830000000 1.0
C      1  0.5065910000000  0.4888050000000  0.5845650000000 1.0
C      1  0.5635480000000  0.5929860000000  0.5395850000000 1.0
C      1  0.4834070000000  0.4339760000000  0.5040390000000 1.0
C      1  0.5541060000000  0.5531500000000  0.5714750000000 1.0
C      1  0.5115070000000  0.5282920000000  0.5195770000000 1.0
C      1  0.5310370000000  0.5621050000000  0.5109740000000 1.0
C      1  0.5258940000000  0.5289540000000  0.4577950000000 1.0
C      1  0.4948800000000  0.5400670000000  0.4663350000000 1.0
C      1  0.4980920000000  0.5536370000000  0.4354160000000 1.0
C      1  0.5201050000000  0.6069690000000  0.5164820000000 1.0
C      1  0.4781940000000  0.4457200000000  0.4173940000000 1.0
C      1  0.4682330000000  0.4494400000000  0.5257620000000 1.0
C      1  0.5882500000000  0.4503490000000  0.5430080000000 1.0
C      1  0.4564920000000  0.4547470000000  0.4621670000000 1.0
C      1  0.4287730000000  0.4680900000000  0.4637960000000 1.0
C      1  0.5203090000000  0.4823770000000  0.3885550000000 1.0
C      1  0.4299210000000  0.5591260000000  0.5517440000000 1.0
C      1  0.4826360000000  0.4509040000000  0.5547260000000 1.0
C      1  0.4984200000000  0.5391010000000  0.3866480000000 1.0
C      1  0.4900680000000  0.4855670000000  0.5365670000000 1.0
C      1  0.3865230000000  0.4998740000000  0.4583910000000 1.0
C      1  0.5703040000000  0.4876830000000  0.6054790000000 1.0
C      1  0.4692040000000  0.4190890000000  0.4320530000000 1.0
C      1  0.4742060000000  0.4728440000000  0.4305110000000 1.0
C      1  0.5997350000000  0.5331590000000  0.4552730000000 1.0
C      1  0.5474350000000  0.4169260000000  0.5675370000000 1.0
C      1  0.5007680000000  0.5126800000000  0.5450520000000 1.0
C      1  0.3966530000000  0.4883930000000  0.4352750000000 1.0
C      1  0.5560960000000  0.5060860000000  0.5243320000000 1.0
C      1  0.4278980000000  0.4487340000000  0.4986610000000 1.0
C      1  0.5355380000000  0.4964370000000  0.4601930000000 1.0
C      1  0.5323170000000  0.5825390000000  0.4633060000000 1.0
C      1  0.4855630000000  0.5976230000000  0.4531980000000 1.0
C      1  0.4454540000000  0.4850960000000  0.4237790000000 1.0
C      1  0.4826660000000  0.5083230000000  0.4673780000000 1.0
END
