TITL C-2848496-4490-485 -0.000780503153973425 125000 -327.183072911185 0 0 59 (C1) n - 1
REM
REM in /home/bkarasulu/work/CARBON/AIRSS/Generating-Clusters/AIREBO/with-SteepDescent/Only-C1/SD-CG-opt/Try1-1.4A-POS3A/HFTN-CG
REM
REM
REM
REM
REM
REM ./C.cell (11c1c37f851c82e70ff6c80c92926a4b)
REM
REM compiler GCC version 9.2.1 20190827 (Red Hat 9.2.1-1)
REM options -cpp -mtune=generic -march=x86-64 -g -O0 -fpre-include=/usr/include/finclude/math-vector-fortran.h
REM seed 1555886095 75085388 1660348345 237021518 -2130270511 1179574692 -1535752556 1222457166 -1690469744 -737530060 1566056327 -1014769853 -898183112 74346002 222922045 -1753494180 -601004545 403867164 -1609590024 435206879 -714405439 293039551 547975585 -1387856554 1995026463 -1240182817 438235800 -217684309 492731272 -1922179946 535234298 490821692 1308456989
REM
CELL 1.54180   50.00000   50.00000   50.00000   90.00000   90.00000   90.00000
LATT -1
SFAC C  
C      1  0.4613430000000  0.4993300000000  0.5470980000000 1.0
C      1  0.5156600000000  0.4272370000000  0.5166310000000 1.0
C      1  0.5009290000000  0.5071920000000  0.5120030000000 1.0
C      1  0.4639270000000  0.5373060000000  0.4655670000000 1.0
C      1  0.5419550000000  0.5378400000000  0.5188100000000 1.0
C      1  0.5642540000000  0.5548690000000  0.5073850000000 1.0
C      1  0.5179980000000  0.4895130000000  0.4904160000000 1.0
C      1  0.5140390000000  0.4668820000000  0.5122320000000 1.0
C      1  0.5430830000000  0.5467730000000  0.5515960000000 1.0
C      1  0.5037640000000  0.4926940000000  0.4641750000000 1.0
C      1  0.5488040000000  0.4974130000000  0.4864250000000 1.0
C      1  0.4970630000000  0.4836970000000  0.4258810000000 1.0
C      1  0.4544880000000  0.4688150000000  0.4878560000000 1.0
C      1  0.4681190000000  0.4313270000000  0.4615460000000 1.0
C      1  0.4350140000000  0.4848040000000  0.5066310000000 1.0
C      1  0.4721520000000  0.5500990000000  0.5380800000000 1.0
C      1  0.5646340000000  0.4867400000000  0.5101090000000 1.0
C      1  0.4716950000000  0.5042030000000  0.4655340000000 1.0
C      1  0.4438390000000  0.4792960000000  0.5342750000000 1.0
C      1  0.5114040000000  0.5321690000000  0.4914310000000 1.0
C      1  0.4983140000000  0.4114920000000  0.5005840000000 1.0
C      1  0.5246990000000  0.4890050000000  0.4389870000000 1.0
C      1  0.4967560000000  0.5354020000000  0.5527120000000 1.0
C      1  0.4862100000000  0.5603320000000  0.4675270000000 1.0
C      1  0.4599060000000  0.4549830000000  0.5348800000000 1.0
C      1  0.5238360000000  0.5706260000000  0.4756030000000 1.0
C      1  0.4851720000000  0.4603260000000  0.5454510000000 1.0
C      1  0.5366970000000  0.4453180000000  0.5007740000000 1.0
C      1  0.5242520000000  0.4675520000000  0.5444720000000 1.0
C      1  0.4612730000000  0.4582170000000  0.4593060000000 1.0
C      1  0.5641460000000  0.5026050000000  0.5335330000000 1.0
C      1  0.4670140000000  0.4819140000000  0.4402810000000 1.0
C      1  0.4720160000000  0.5031010000000  0.4986080000000 1.0
C      1  0.4983120000000  0.5659790000000  0.5270940000000 1.0
C      1  0.4264460000000  0.5069430000000  0.4902890000000 1.0
C      1  0.5221430000000  0.5373340000000  0.4420880000000 1.0
C      1  0.5352710000000  0.5485520000000  0.4639320000000 1.0
C      1  0.4753960000000  0.4226910000000  0.4883650000000 1.0
C      1  0.4910340000000  0.5354820000000  0.4448180000000 1.0
C      1  0.5452890000000  0.5147060000000  0.5511600000000 1.0
C      1  0.5003110000000  0.5165600000000  0.5721700000000 1.0
C      1  0.5632970000000  0.4592370000000  0.5120490000000 1.0
C      1  0.4447550000000  0.5309610000000  0.4899260000000 1.0
C      1  0.4610710000000  0.5310750000000  0.5148580000000 1.0
C      1  0.4378390000000  0.5024710000000  0.4627960000000 1.0
C      1  0.5439830000000  0.5279090000000  0.4863520000000 1.0
C      1  0.4836650000000  0.4717930000000  0.5050570000000 1.0
C      1  0.5426490000000  0.4767270000000  0.4617300000000 1.0
C      1  0.4931790000000  0.4919950000000  0.5414440000000 1.0
C      1  0.5207250000000  0.5667600000000  0.5434200000000 1.0
C      1  0.5005710000000  0.5619630000000  0.4973700000000 1.0
C      1  0.5402520000000  0.4502270000000  0.4699050000000 1.0
C      1  0.5340960000000  0.5165530000000  0.4291470000000 1.0
C      1  0.4799420000000  0.5111940000000  0.4271650000000 1.0
C      1  0.5216670000000  0.4952430000000  0.5598300000000 1.0
C      1  0.5141010000000  0.5294250000000  0.5309000000000 1.0
C      1  0.4571530000000  0.5250730000000  0.5541190000000 1.0
C      1  0.4642010000000  0.4438560000000  0.5063280000000 1.0
C      1  0.5081970000000  0.4402200000000  0.5412860000000 1.0
END
