TITL C-2847952-8118-578 0.000255604876012505 125000 -181.577168996543 0 0 35 (C1) n - 1
REM
REM in /home/bkarasulu/work/CARBON/AIRSS/Generating-Clusters/AIREBO/with-SteepDescent/Only-C1/SD-CG-opt/Try1-1.4A-POS3A/HFTN-CG
REM
REM
REM
REM
REM
REM ./C.cell (11c1c37f851c82e70ff6c80c92926a4b)
REM
REM compiler GCC version 9.2.1 20190827 (Red Hat 9.2.1-1)
REM options -cpp -mtune=generic -march=x86-64 -g -O0 -fpre-include=/usr/include/finclude/math-vector-fortran.h
REM seed -15142741 -1715469388 -1289095637 -1077284506 1515850705 -523785611 1005093203 612462140 787258614 -1831623628 1429045630 496926262 1915397856 42937511 -972521850 217872624 1660013719 106448517 -629069941 1262170365 900763548 756940870 1574337118 771550682 -363042175 1911517213 -640429482 118744622 54431076 -1522494254 -1716948058 1535126498 -1860611449
REM
CELL 1.54180   50.00000   50.00000   50.00000   90.00000   90.00000   90.00000
LATT -1
SFAC C  
C      1  0.5040960000000  0.4728870000000  0.4869960000000 1.0
C      1  0.5156630000000  0.5020350000000  0.4816680000000 1.0
C      1  0.4369500000000  0.4452330000000  0.4889480000000 1.0
C      1  0.4406780000000  0.4379040000000  0.4563840000000 1.0
C      1  0.4884780000000  0.4973260000000  0.5335070000000 1.0
C      1  0.4690590000000  0.4852760000000  0.5135450000000 1.0
C      1  0.5447680000000  0.5583850000000  0.5549860000000 1.0
C      1  0.4584310000000  0.4625020000000  0.4700780000000 1.0
C      1  0.5087190000000  0.5112770000000  0.5351470000000 1.0
C      1  0.5224810000000  0.5266610000000  0.4891750000000 1.0
C      1  0.5743300000000  0.5283840000000  0.5227750000000 1.0
C      1  0.5075990000000  0.4835640000000  0.4321260000000 1.0
C      1  0.4371850000000  0.4859810000000  0.5189080000000 1.0
C      1  0.5887400000000  0.5062460000000  0.5263020000000 1.0
C      1  0.4284080000000  0.4595740000000  0.5173910000000 1.0
C      1  0.4911130000000  0.5516860000000  0.4628290000000 1.0
C      1  0.5696830000000  0.5556700000000  0.5078950000000 1.0
C      1  0.4977110000000  0.4878300000000  0.4574070000000 1.0
C      1  0.5170030000000  0.5473430000000  0.4709340000000 1.0
C      1  0.4774980000000  0.5567810000000  0.5000320000000 1.0
C      1  0.4668200000000  0.4899260000000  0.4613230000000 1.0
C      1  0.4660840000000  0.5364270000000  0.4779800000000 1.0
C      1  0.4921480000000  0.4291940000000  0.4938630000000 1.0
C      1  0.6044240000000  0.4854140000000  0.5317380000000 1.0
C      1  0.4983540000000  0.5561850000000  0.5135750000000 1.0
C      1  0.4771060000000  0.4562260000000  0.4977930000000 1.0
C      1  0.4046400000000  0.5243230000000  0.5026360000000 1.0
C      1  0.6333130000000  0.4421040000000  0.5404710000000 1.0
C      1  0.6179980000000  0.4630540000000  0.5367780000000 1.0
C      1  0.5211350000000  0.5346490000000  0.5191950000000 1.0
C      1  0.5464620000000  0.5452990000000  0.5305070000000 1.0
C      1  0.4560940000000  0.5078820000000  0.4916330000000 1.0
C      1  0.4540600000000  0.4399720000000  0.5173510000000 1.0
C      1  0.4266310000000  0.5100260000000  0.5050820000000 1.0
C      1  0.4561390000000  0.5167750000000  0.4530440000000 1.0
END
