TITL C-2848509-3138-592 -0.00117657786695295 125000 -1102.57707494369 0 0 198 (C1) n - 1
REM
REM in /home/bkarasulu/work/CARBON/AIRSS/Generating-Clusters/AIREBO/with-SteepDescent/Only-C1/SD-CG-opt/Try1-1.4A-POS3A/HFTN-CG
REM
REM
REM
REM
REM
REM ./C.cell (11c1c37f851c82e70ff6c80c92926a4b)
REM
REM compiler GCC version 9.2.1 20190827 (Red Hat 9.2.1-1)
REM options -cpp -mtune=generic -march=x86-64 -g -O0 -fpre-include=/usr/include/finclude/math-vector-fortran.h
REM seed 864672811 324618062 -1940578993 -95791135 -273153860 -1905583826 1878482444 1832413377 -1821873501 384135934 1264870532 237791702 -594454028 -36431830 1029573864 761250576 1770407562 990808916 1078858856 -2043437142 -2110381211 -341286896 -93499398 1143420215 -651494590 1735833351 -1428011134 -1965327330 -873826231 1306139021 -33488515 75934545 965226740
REM
CELL 1.54180   50.00000   50.00000   50.00000   90.00000   90.00000   90.00000
LATT -1
SFAC C  
C      1  0.5308410000000  0.5777280000000  0.4051900000000 1.0
C      1  0.5105390000000  0.4311700000000  0.6008370000000 1.0
C      1  0.5200800000000  0.4592050000000  0.4190790000000 1.0
C      1  0.5647500000000  0.4438550000000  0.5769620000000 1.0
C      1  0.4848570000000  0.4461450000000  0.6058450000000 1.0
C      1  0.5467970000000  0.4200750000000  0.4043530000000 1.0
C      1  0.5093500000000  0.5434780000000  0.6066550000000 1.0
C      1  0.4219980000000  0.4470080000000  0.4136670000000 1.0
C      1  0.4074940000000  0.4781760000000  0.5150260000000 1.0
C      1  0.5815900000000  0.5117050000000  0.5506590000000 1.0
C      1  0.5834710000000  0.5020250000000  0.5181080000000 1.0
C      1  0.5536730000000  0.4934850000000  0.5040610000000 1.0
C      1  0.4414770000000  0.4060270000000  0.4803890000000 1.0
C      1  0.5184210000000  0.5425860000000  0.5678190000000 1.0
C      1  0.4144820000000  0.5717120000000  0.4847980000000 1.0
C      1  0.4526900000000  0.4953560000000  0.4370550000000 1.0
C      1  0.5478440000000  0.5362840000000  0.4393020000000 1.0
C      1  0.3922890000000  0.5317400000000  0.4677520000000 1.0
C      1  0.4743140000000  0.5282320000000  0.4966730000000 1.0
C      1  0.4901740000000  0.6157720000000  0.4758540000000 1.0
C      1  0.4975950000000  0.4232930000000  0.4775190000000 1.0
C      1  0.5291500000000  0.5040080000000  0.4256050000000 1.0
C      1  0.4314390000000  0.5211830000000  0.4707030000000 1.0
C      1  0.4667340000000  0.4584330000000  0.3996710000000 1.0
C      1  0.5136440000000  0.4066070000000  0.5597980000000 1.0
C      1  0.5011530000000  0.4925770000000  0.4301860000000 1.0
C      1  0.5710690000000  0.5480040000000  0.5629250000000 1.0
C      1  0.4381950000000  0.5161930000000  0.5932310000000 1.0
C      1  0.5307250000000  0.3752840000000  0.5027670000000 1.0
C      1  0.4762670000000  0.4470100000000  0.5668110000000 1.0
C      1  0.4689350000000  0.5665690000000  0.5881010000000 1.0
C      1  0.5986840000000  0.5653550000000  0.5124010000000 1.0
C      1  0.4848230000000  0.5643580000000  0.6113510000000 1.0
C      1  0.5663010000000  0.4220850000000  0.4638670000000 1.0
C      1  0.5170470000000  0.4408220000000  0.5293570000000 1.0
C      1  0.5416920000000  0.5871540000000  0.5481400000000 1.0
C      1  0.5780960000000  0.5227960000000  0.5826390000000 1.0
C      1  0.4946130000000  0.5345250000000  0.5573760000000 1.0
C      1  0.5274590000000  0.4675190000000  0.5683420000000 1.0
C      1  0.4444480000000  0.5252680000000  0.4428270000000 1.0
C      1  0.5570470000000  0.5230060000000  0.6015530000000 1.0
C      1  0.3842650000000  0.4676700000000  0.4925290000000 1.0
C      1  0.4411660000000  0.5710420000000  0.4278630000000 1.0
C      1  0.4623900000000  0.5880620000000  0.5447110000000 1.0
C      1  0.4832650000000  0.5421350000000  0.3973760000000 1.0
C      1  0.4385460000000  0.4677160000000  0.4426220000000 1.0
C      1  0.4787080000000  0.4903390000000  0.4498360000000 1.0
C      1  0.5957070000000  0.5840880000000  0.4949070000000 1.0
C      1  0.5314460000000  0.6077000000000  0.5230490000000 1.0
C      1  0.3967270000000  0.4506200000000  0.4723790000000 1.0
C      1  0.4962570000000  0.4739070000000  0.4055150000000 1.0
C      1  0.5970650000000  0.4709850000000  0.5631440000000 1.0
C      1  0.5153550000000  0.4067150000000  0.5871920000000 1.0
C      1  0.4978940000000  0.4666960000000  0.5831950000000 1.0
C      1  0.4066690000000  0.5561020000000  0.4631890000000 1.0
C      1  0.4894140000000  0.4964360000000  0.3821360000000 1.0
C      1  0.4781080000000  0.4358650000000  0.5239960000000 1.0
C      1  0.5663460000000  0.4838150000000  0.5561920000000 1.0
C      1  0.5154820000000  0.4695370000000  0.5212760000000 1.0
C      1  0.3931760000000  0.5347110000000  0.5232520000000 1.0
C      1  0.5420880000000  0.5470560000000  0.5995120000000 1.0
C      1  0.4376300000000  0.4868920000000  0.5413640000000 1.0
C      1  0.5371530000000  0.4669200000000  0.6183610000000 1.0
C      1  0.4560520000000  0.5883160000000  0.5752660000000 1.0
C      1  0.5712410000000  0.4761360000000  0.4806670000000 1.0
C      1  0.5354950000000  0.4981200000000  0.5558270000000 1.0
C      1  0.4555480000000  0.4457620000000  0.4529770000000 1.0
C      1  0.4325690000000  0.4215230000000  0.5371250000000 1.0
C      1  0.4523960000000  0.4800130000000  0.5904900000000 1.0
C      1  0.4570310000000  0.4522540000000  0.6012730000000 1.0
C      1  0.4942190000000  0.5914100000000  0.4573050000000 1.0
C      1  0.4291500000000  0.5432090000000  0.5437200000000 1.0
C      1  0.5948720000000  0.5107240000000  0.4708060000000 1.0
C      1  0.4203420000000  0.4487710000000  0.5262780000000 1.0
C      1  0.5761090000000  0.5549430000000  0.4602810000000 1.0
C      1  0.5822840000000  0.5360140000000  0.5175710000000 1.0
C      1  0.5004700000000  0.5209830000000  0.3851970000000 1.0
C      1  0.4588030000000  0.5549140000000  0.5013270000000 1.0
C      1  0.5929010000000  0.4316640000000  0.5052160000000 1.0
C      1  0.5755850000000  0.5308510000000  0.4747590000000 1.0
C      1  0.5916960000000  0.4403870000000  0.5662100000000 1.0
C      1  0.5291040000000  0.5067000000000  0.5235410000000 1.0
C      1  0.4415320000000  0.5074100000000  0.4072740000000 1.0
C      1  0.5041590000000  0.4217310000000  0.5073210000000 1.0
C      1  0.4187970000000  0.4648710000000  0.5561990000000 1.0
C      1  0.3998330000000  0.5028440000000  0.5588800000000 1.0
C      1  0.5507870000000  0.5244820000000  0.4910440000000 1.0
C      1  0.5499480000000  0.4726950000000  0.5285520000000 1.0
C      1  0.5141240000000  0.5877110000000  0.5638020000000 1.0
C      1  0.4570500000000  0.4990620000000  0.5626260000000 1.0
C      1  0.5617770000000  0.4861370000000  0.4532330000000 1.0
C      1  0.4665850000000  0.5763050000000  0.4444740000000 1.0
C      1  0.4980340000000  0.5244870000000  0.4400320000000 1.0
C      1  0.4184800000000  0.5288770000000  0.4213720000000 1.0
C      1  0.5251080000000  0.5234690000000  0.3988630000000 1.0
C      1  0.5434960000000  0.5310220000000  0.5525380000000 1.0
C      1  0.5499500000000  0.4605730000000  0.4352870000000 1.0
C      1  0.4767320000000  0.4933010000000  0.5372880000000 1.0
C      1  0.5118470000000  0.4023620000000  0.4565230000000 1.0
C      1  0.5403030000000  0.4101790000000  0.5389950000000 1.0
C      1  0.4621200000000  0.4869000000000  0.3895210000000 1.0
C      1  0.4219860000000  0.4809460000000  0.4159230000000 1.0
C      1  0.5450760000000  0.4959500000000  0.6059190000000 1.0
C      1  0.4274950000000  0.5056150000000  0.5211200000000 1.0
C      1  0.5291520000000  0.4124520000000  0.4317660000000 1.0
C      1  0.5310700000000  0.4501700000000  0.5974820000000 1.0
C      1  0.5408300000000  0.5085940000000  0.4557680000000 1.0
C      1  0.3885540000000  0.4859450000000  0.5406680000000 1.0
C      1  0.5124330000000  0.5676020000000  0.5828780000000 1.0
C      1  0.4484020000000  0.6033080000000  0.5200840000000 1.0
C      1  0.5617540000000  0.4736560000000  0.5878810000000 1.0
C      1  0.4521830000000  0.5368230000000  0.3934790000000 1.0
C      1  0.4710220000000  0.4027690000000  0.5207320000000 1.0
C      1  0.4940610000000  0.5877740000000  0.5442840000000 1.0
C      1  0.5612610000000  0.4452910000000  0.4887460000000 1.0
C      1  0.5027450000000  0.5341920000000  0.4899490000000 1.0
C      1  0.5127550000000  0.4923020000000  0.5992210000000 1.0
C      1  0.5525100000000  0.5744010000000  0.5185210000000 1.0
C      1  0.6001810000000  0.4767460000000  0.5325320000000 1.0
C      1  0.4680590000000  0.5251560000000  0.5290670000000 1.0
C      1  0.4645960000000  0.3883020000000  0.4677410000000 1.0
C      1  0.5013000000000  0.5257210000000  0.5288090000000 1.0
C      1  0.4155870000000  0.5272460000000  0.4996710000000 1.0
C      1  0.5722330000000  0.5814250000000  0.4762550000000 1.0
C      1  0.5144350000000  0.6027540000000  0.4961210000000 1.0
C      1  0.4952310000000  0.5131860000000  0.6068840000000 1.0
C      1  0.5162070000000  0.5491070000000  0.5143790000000 1.0
C      1  0.4705910000000  0.5374030000000  0.4287270000000 1.0
C      1  0.4869970000000  0.4454600000000  0.4590660000000 1.0
C      1  0.5365700000000  0.4172260000000  0.4745700000000 1.0
C      1  0.5425550000000  0.4472510000000  0.3983400000000 1.0
C      1  0.5632650000000  0.4147960000000  0.4318050000000 1.0
C      1  0.6043390000000  0.4938570000000  0.4925370000000 1.0
C      1  0.4801740000000  0.4016520000000  0.4488640000000 1.0
C      1  0.5055190000000  0.4889610000000  0.5426300000000 1.0
C      1  0.5593080000000  0.4721700000000  0.4043500000000 1.0
C      1  0.4429800000000  0.5629230000000  0.4003110000000 1.0
C      1  0.4866720000000  0.4183130000000  0.5518300000000 1.0
C      1  0.5212370000000  0.5430970000000  0.4252580000000 1.0
C      1  0.6122440000000  0.5252420000000  0.5564640000000 1.0
C      1  0.5210030000000  0.5105980000000  0.4822800000000 1.0
C      1  0.5412130000000  0.5872420000000  0.4890100000000 1.0
C      1  0.5908810000000  0.4453130000000  0.5337050000000 1.0
C      1  0.5750710000000  0.5518570000000  0.4279370000000 1.0
C      1  0.4065310000000  0.4562730000000  0.4430700000000 1.0
C      1  0.4672220000000  0.6094230000000  0.5001320000000 1.0
C      1  0.4497470000000  0.4311230000000  0.5813380000000 1.0
C      1  0.5955420000000  0.5485490000000  0.5452090000000 1.0
C      1  0.5488740000000  0.5417550000000  0.5202790000000 1.0
C      1  0.4199770000000  0.5565180000000  0.4389220000000 1.0
C      1  0.4017430000000  0.5293760000000  0.5504090000000 1.0
C      1  0.4500100000000  0.5077520000000  0.4957180000000 1.0
C      1  0.4514370000000  0.4571810000000  0.5498860000000 1.0
C      1  0.3931870000000  0.5108340000000  0.4217930000000 1.0
C      1  0.4723770000000  0.5443720000000  0.5703970000000 1.0
C      1  0.4813700000000  0.4729930000000  0.4745980000000 1.0
C      1  0.4527760000000  0.4174800000000  0.5544210000000 1.0
C      1  0.4660600000000  0.4204220000000  0.4328640000000 1.0
C      1  0.5784130000000  0.4435020000000  0.4415680000000 1.0
C      1  0.5347440000000  0.4069570000000  0.5056010000000 1.0
C      1  0.4259200000000  0.4852580000000  0.4873340000000 1.0
C      1  0.4481250000000  0.5294570000000  0.5652600000000 1.0
C      1  0.5329120000000  0.4732120000000  0.4862800000000 1.0
C      1  0.5630260000000  0.6069780000000  0.5210300000000 1.0
C      1  0.4647430000000  0.4661600000000  0.5205640000000 1.0
C      1  0.4265870000000  0.5551910000000  0.5119440000000 1.0
C      1  0.5161730000000  0.5734990000000  0.4604680000000 1.0
C      1  0.5917550000000  0.4962420000000  0.4432170000000 1.0
C      1  0.4643070000000  0.5734940000000  0.4764660000000 1.0
C      1  0.4436110000000  0.4356760000000  0.4804470000000 1.0
C      1  0.4508200000000  0.4402620000000  0.4137210000000 1.0
C      1  0.5460990000000  0.5817740000000  0.4558010000000 1.0
C      1  0.4215760000000  0.4903810000000  0.5785970000000 1.0
C      1  0.5551230000000  0.5000520000000  0.4055170000000 1.0
C      1  0.5726390000000  0.5178050000000  0.4251530000000 1.0
C      1  0.4588250000000  0.5574770000000  0.5352330000000 1.0
C      1  0.5974380000000  0.4641820000000  0.4531260000000 1.0
C      1  0.4862560000000  0.5837950000000  0.4979400000000 1.0
C      1  0.5042790000000  0.4824320000000  0.4918610000000 1.0
C      1  0.5492880000000  0.5738620000000  0.4252660000000 1.0
C      1  0.4540990000000  0.4664670000000  0.4905820000000 1.0
C      1  0.5090410000000  0.5453860000000  0.4628580000000 1.0
C      1  0.5022080000000  0.5742080000000  0.5210710000000 1.0
C      1  0.5669570000000  0.4110060000000  0.5158260000000 1.0
C      1  0.3995920000000  0.4881780000000  0.4404660000000 1.0
C      1  0.5096010000000  0.4378860000000  0.4384730000000 1.0
C      1  0.5044980000000  0.5686120000000  0.3998520000000 1.0
C      1  0.5992710000000  0.4598960000000  0.4869490000000 1.0
C      1  0.5588300000000  0.4429760000000  0.5225950000000 1.0
C      1  0.4249840000000  0.5904080000000  0.5111910000000 1.0
C      1  0.5422020000000  0.4414450000000  0.5522310000000 1.0
C      1  0.4935310000000  0.5624820000000  0.4297110000000 1.0
C      1  0.5377750000000  0.4498950000000  0.4651870000000 1.0
C      1  0.4597680000000  0.3892020000000  0.4996410000000 1.0
C      1  0.4053200000000  0.5011090000000  0.4667420000000 1.0
C      1  0.5514380000000  0.5691750000000  0.5754030000000 1.0
C      1  0.4679560000000  0.5068170000000  0.6045070000000 1.0
C      1  0.4180400000000  0.4464280000000  0.4932100000000 1.0
END
