TITL C-2847957-7266-314 0.00167752852852035 125000 -505.148662757143 0 0 98 (C1) n - 1
REM
REM in /home/bkarasulu/work/CARBON/AIRSS/Generating-Clusters/AIREBO/with-SteepDescent/Only-C1/SD-CG-opt/Try1-1.4A-POS3A/HFTN-CG
REM
REM
REM
REM
REM
REM ./C.cell (11c1c37f851c82e70ff6c80c92926a4b)
REM
REM compiler GCC version 9.2.1 20190827 (Red Hat 9.2.1-1)
REM options -cpp -mtune=generic -march=x86-64 -g -O0 -fpre-include=/usr/include/finclude/math-vector-fortran.h
REM seed 1128013275 384931421 -760360097 1032289234 1911066268 -1455328906 1782145141 1243456806 1239318545 1212037608 -1373057102 -174981616 -694994440 -2004215976 -1899036864 143914762 -816244460 -98051787 -317719850 -475086916 1091771828 -479494213 -637986387 -352246268 375981906 -1253625844 411170458 312305193 -846126136 -1437054871 -1224281968 -1687935576 1322270288
REM
CELL 1.54180   50.00000   50.00000   50.00000   90.00000   90.00000   90.00000
LATT -1
SFAC C  
C      1  0.5422130000000  0.4873310000000  0.5324210000000 1.0
C      1  0.5371370000000  0.4758890000000  0.4167630000000 1.0
C      1  0.4860870000000  0.5160410000000  0.4355810000000 1.0
C      1  0.5325120000000  0.4308500000000  0.4959190000000 1.0
C      1  0.4592980000000  0.4843660000000  0.5163500000000 1.0
C      1  0.4377880000000  0.5150560000000  0.4399710000000 1.0
C      1  0.4509690000000  0.4743220000000  0.5567170000000 1.0
C      1  0.4925960000000  0.4333510000000  0.5253840000000 1.0
C      1  0.5809430000000  0.4937040000000  0.4607090000000 1.0
C      1  0.5278770000000  0.5139220000000  0.5239270000000 1.0
C      1  0.4732180000000  0.4222730000000  0.4839120000000 1.0
C      1  0.4802930000000  0.4475980000000  0.5522100000000 1.0
C      1  0.4094910000000  0.4715570000000  0.5037800000000 1.0
C      1  0.5860570000000  0.5219240000000  0.5082860000000 1.0
C      1  0.5097950000000  0.5765880000000  0.4956560000000 1.0
C      1  0.4975660000000  0.5398930000000  0.5665910000000 1.0
C      1  0.4846960000000  0.4539860000000  0.4249160000000 1.0
C      1  0.5496800000000  0.4403950000000  0.5190610000000 1.0
C      1  0.5488870000000  0.5246880000000  0.4437100000000 1.0
C      1  0.5378430000000  0.4420340000000  0.5493730000000 1.0
C      1  0.4371230000000  0.5026850000000  0.5445350000000 1.0
C      1  0.5335840000000  0.5850740000000  0.4827000000000 1.0
C      1  0.5659270000000  0.5424000000000  0.4900440000000 1.0
C      1  0.4825610000000  0.5740100000000  0.4893800000000 1.0
C      1  0.4980380000000  0.4723330000000  0.5846070000000 1.0
C      1  0.4904680000000  0.5082440000000  0.5693900000000 1.0
C      1  0.4791990000000  0.5542710000000  0.4453440000000 1.0
C      1  0.5186620000000  0.4539830000000  0.4224960000000 1.0
C      1  0.4826250000000  0.4393740000000  0.4558070000000 1.0
C      1  0.4947990000000  0.4848150000000  0.4300340000000 1.0
C      1  0.4681150000000  0.5393310000000  0.5098760000000 1.0
C      1  0.4835210000000  0.5029900000000  0.5295560000000 1.0
C      1  0.5053320000000  0.5513120000000  0.4322110000000 1.0
C      1  0.4715620000000  0.4556180000000  0.5122040000000 1.0
C      1  0.5634740000000  0.4821050000000  0.4336170000000 1.0
C      1  0.4689310000000  0.5062910000000  0.4633160000000 1.0
C      1  0.5091590000000  0.4912410000000  0.4586840000000 1.0
C      1  0.5176970000000  0.5541480000000  0.5132640000000 1.0
C      1  0.5539220000000  0.4657590000000  0.4686610000000 1.0
C      1  0.5361880000000  0.4449410000000  0.4678070000000 1.0
C      1  0.4198190000000  0.4961100000000  0.4496770000000 1.0
C      1  0.4250490000000  0.5263210000000  0.5220970000000 1.0
C      1  0.4124220000000  0.5404720000000  0.4939000000000 1.0
C      1  0.5354040000000  0.5529420000000  0.4480340000000 1.0
C      1  0.5115080000000  0.4572640000000  0.4536910000000 1.0
C      1  0.4998550000000  0.5272180000000  0.5113210000000 1.0
C      1  0.4821040000000  0.5499660000000  0.5389860000000 1.0
C      1  0.5593690000000  0.4579230000000  0.5654810000000 1.0
C      1  0.5192020000000  0.5195210000000  0.5836450000000 1.0
C      1  0.5667840000000  0.5582070000000  0.5201460000000 1.0
C      1  0.4612170000000  0.5102810000000  0.4962230000000 1.0
C      1  0.5413670000000  0.4947760000000  0.4561510000000 1.0
C      1  0.5561300000000  0.5304680000000  0.5330970000000 1.0
C      1  0.4570290000000  0.4722840000000  0.4324510000000 1.0
C      1  0.4474620000000  0.4354850000000  0.5018590000000 1.0
C      1  0.4648020000000  0.5212680000000  0.5512840000000 1.0
C      1  0.3817540000000  0.4842280000000  0.5188210000000 1.0
C      1  0.4959310000000  0.4889970000000  0.5011630000000 1.0
C      1  0.5606280000000  0.5770720000000  0.5389820000000 1.0
C      1  0.5766500000000  0.4750210000000  0.5471300000000 1.0
C      1  0.4495810000000  0.5404990000000  0.4572100000000 1.0
C      1  0.4769900000000  0.5428640000000  0.4772360000000 1.0
C      1  0.5654280000000  0.4690210000000  0.5156000000000 1.0
C      1  0.4935720000000  0.4790960000000  0.5515750000000 1.0
C      1  0.5024310000000  0.4166410000000  0.5004050000000 1.0
C      1  0.5057520000000  0.4505780000000  0.4923360000000 1.0
C      1  0.4500040000000  0.4468540000000  0.5366860000000 1.0
C      1  0.4781790000000  0.4612840000000  0.4793740000000 1.0
C      1  0.4246050000000  0.5493560000000  0.4739360000000 1.0
C      1  0.5147480000000  0.5577980000000  0.5447250000000 1.0
C      1  0.4102420000000  0.4966980000000  0.5268830000000 1.0
C      1  0.4971530000000  0.5152580000000  0.4795970000000 1.0
C      1  0.4580100000000  0.5006850000000  0.4256070000000 1.0
C      1  0.5193970000000  0.5005480000000  0.4138440000000 1.0
C      1  0.5753000000000  0.4730890000000  0.4871560000000 1.0
C      1  0.5012220000000  0.5284230000000  0.4077520000000 1.0
C      1  0.5490910000000  0.5654030000000  0.4710650000000 1.0
C      1  0.4272620000000  0.4519210000000  0.4855210000000 1.0
C      1  0.4568020000000  0.5771770000000  0.5036420000000 1.0
C      1  0.5782300000000  0.5046410000000  0.5322010000000 1.0
C      1  0.4558700000000  0.4793970000000  0.4717920000000 1.0
C      1  0.5245440000000  0.4754610000000  0.5059030000000 1.0
C      1  0.5334160000000  0.5344350000000  0.4163140000000 1.0
C      1  0.4341030000000  0.4898060000000  0.4957490000000 1.0
C      1  0.4663910000000  0.4726890000000  0.5800130000000 1.0
C      1  0.5732230000000  0.5219140000000  0.4638060000000 1.0
C      1  0.5138240000000  0.4586590000000  0.5334500000000 1.0
C      1  0.5393420000000  0.5000750000000  0.4883140000000 1.0
C      1  0.5442300000000  0.5024940000000  0.5584680000000 1.0
C      1  0.5078490000000  0.4320450000000  0.5622590000000 1.0
C      1  0.5222860000000  0.4866190000000  0.5908130000000 1.0
C      1  0.5467880000000  0.4718760000000  0.5877600000000 1.0
C      1  0.4321550000000  0.4647350000000  0.4543930000000 1.0
C      1  0.4502330000000  0.5393040000000  0.5749070000000 1.0
C      1  0.5414600000000  0.5682900000000  0.5565340000000 1.0
C      1  0.4409280000000  0.5559370000000  0.5168320000000 1.0
C      1  0.5417720000000  0.5352330000000  0.5635980000000 1.0
C      1  0.5372720000000  0.5306770000000  0.4978360000000 1.0
END
