TITL C-2847947-6848-339 0.0011864909248007 125000 -554.039994038457 0 0 104 (C1) n - 1
REM
REM in /home/bkarasulu/work/CARBON/AIRSS/Generating-Clusters/AIREBO/with-SteepDescent/Only-C1/SD-CG-opt/Try1-1.4A-POS3A/HFTN-CG
REM
REM
REM
REM
REM
REM ./C.cell (11c1c37f851c82e70ff6c80c92926a4b)
REM
REM compiler GCC version 9.2.1 20190827 (Red Hat 9.2.1-1)
REM options -cpp -mtune=generic -march=x86-64 -g -O0 -fpre-include=/usr/include/finclude/math-vector-fortran.h
REM seed -512787894 2067459373 196187220 269564857 -578021397 756066737 2102151829 978128843 1352993527 -548075916 1333105976 1248195618 -867393139 -325215322 1815237610 -879713287 1769731551 1552091651 1288080020 -67161153 713844434 1833560360 938111538 1971125310 -43456366 -364334497 -1335603207 2124772651 -753700645 -2130586350 -2125565499 558889370 -1923198359
REM
CELL 1.54180   50.00000   50.00000   50.00000   90.00000   90.00000   90.00000
LATT -1
SFAC C  
C      1  0.4721960000000  0.5276700000000  0.4402260000000 1.0
C      1  0.5657200000000  0.5653310000000  0.5148720000000 1.0
C      1  0.4166160000000  0.4478890000000  0.5232490000000 1.0
C      1  0.4548930000000  0.5200950000000  0.4677310000000 1.0
C      1  0.5481000000000  0.5562360000000  0.4588840000000 1.0
C      1  0.5685950000000  0.5276500000000  0.5025870000000 1.0
C      1  0.4742450000000  0.4914230000000  0.5506460000000 1.0
C      1  0.5139000000000  0.4712640000000  0.4037700000000 1.0
C      1  0.5648300000000  0.4973430000000  0.4572940000000 1.0
C      1  0.5403220000000  0.4467640000000  0.4674260000000 1.0
C      1  0.5510310000000  0.4914190000000  0.4286860000000 1.0
C      1  0.4479600000000  0.4500530000000  0.5282350000000 1.0
C      1  0.4358300000000  0.5417820000000  0.5464400000000 1.0
C      1  0.5343800000000  0.4672630000000  0.5551820000000 1.0
C      1  0.4881970000000  0.5617840000000  0.5532030000000 1.0
C      1  0.4572080000000  0.5612990000000  0.4558390000000 1.0
C      1  0.5617400000000  0.4952140000000  0.5633670000000 1.0
C      1  0.4131470000000  0.4910260000000  0.5038350000000 1.0
C      1  0.5152920000000  0.5645140000000  0.5683320000000 1.0
C      1  0.5037480000000  0.4318830000000  0.4610800000000 1.0
C      1  0.5206520000000  0.4624610000000  0.5026160000000 1.0
C      1  0.5232250000000  0.5346370000000  0.5752360000000 1.0
C      1  0.5000090000000  0.5485910000000  0.5098220000000 1.0
C      1  0.4818230000000  0.5581010000000  0.4322680000000 1.0
C      1  0.5071860000000  0.4144480000000  0.4900840000000 1.0
C      1  0.4514950000000  0.4663700000000  0.5540120000000 1.0
C      1  0.4890250000000  0.5538190000000  0.4652340000000 1.0
C      1  0.4711430000000  0.5161010000000  0.5722940000000 1.0
C      1  0.5209560000000  0.5252760000000  0.5229060000000 1.0
C      1  0.4991640000000  0.4954440000000  0.4693770000000 1.0
C      1  0.5390390000000  0.5156710000000  0.4192550000000 1.0
C      1  0.4930270000000  0.5830280000000  0.4824120000000 1.0
C      1  0.4558090000000  0.5618590000000  0.5431750000000 1.0
C      1  0.4579330000000  0.4490560000000  0.4421300000000 1.0
C      1  0.4760590000000  0.4936260000000  0.5183580000000 1.0
C      1  0.5374390000000  0.4232650000000  0.4807280000000 1.0
C      1  0.5476610000000  0.5010110000000  0.5057810000000 1.0
C      1  0.5092410000000  0.4930260000000  0.5922880000000 1.0
C      1  0.4621530000000  0.4683290000000  0.5037510000000 1.0
C      1  0.4829430000000  0.4629360000000  0.5648230000000 1.0
C      1  0.5384540000000  0.5307900000000  0.4792730000000 1.0
C      1  0.5487390000000  0.4815370000000  0.5290590000000 1.0
C      1  0.4718950000000  0.5661750000000  0.5173810000000 1.0
C      1  0.5927310000000  0.4876160000000  0.5048950000000 1.0
C      1  0.5121370000000  0.4281110000000  0.5208230000000 1.0
C      1  0.4927550000000  0.5148160000000  0.5938840000000 1.0
C      1  0.4564960000000  0.4960820000000  0.4194980000000 1.0
C      1  0.5294320000000  0.4956380000000  0.5693110000000 1.0
C      1  0.5818960000000  0.5054200000000  0.4856590000000 1.0
C      1  0.4101970000000  0.5201790000000  0.4975570000000 1.0
C      1  0.4183870000000  0.5380390000000  0.5223090000000 1.0
C      1  0.5085470000000  0.5743830000000  0.5302880000000 1.0
C      1  0.5142960000000  0.5017910000000  0.4992020000000 1.0
C      1  0.4666610000000  0.4897910000000  0.4776970000000 1.0
C      1  0.4826980000000  0.4131470000000  0.5136480000000 1.0
C      1  0.4220150000000  0.5270280000000  0.4729970000000 1.0
C      1  0.5047490000000  0.4799310000000  0.5234430000000 1.0
C      1  0.4413410000000  0.5475250000000  0.5011130000000 1.0
C      1  0.5147880000000  0.5324650000000  0.4567800000000 1.0
C      1  0.5693260000000  0.4486690000000  0.5202140000000 1.0
C      1  0.5044470000000  0.5945610000000  0.5100500000000 1.0
C      1  0.4347000000000  0.5012370000000  0.5225700000000 1.0
C      1  0.4130540000000  0.4629150000000  0.4990040000000 1.0
C      1  0.4455260000000  0.4272850000000  0.4838800000000 1.0
C      1  0.5101980000000  0.4275350000000  0.5663350000000 1.0
C      1  0.4699830000000  0.4264970000000  0.4602560000000 1.0
C      1  0.5218870000000  0.5765970000000  0.4663290000000 1.0
C      1  0.4344800000000  0.4942590000000  0.5497270000000 1.0
C      1  0.5865600000000  0.4939360000000  0.5321100000000 1.0
C      1  0.5135270000000  0.5555160000000  0.4336930000000 1.0
C      1  0.4961980000000  0.4688240000000  0.5920890000000 1.0
C      1  0.5728780000000  0.4684500000000  0.4742380000000 1.0
C      1  0.4913190000000  0.5041350000000  0.4373140000000 1.0
C      1  0.4450940000000  0.4697740000000  0.4606510000000 1.0
C      1  0.4298670000000  0.5562780000000  0.4703020000000 1.0
C      1  0.5519370000000  0.5378560000000  0.5304270000000 1.0
C      1  0.4776180000000  0.5329510000000  0.4895390000000 1.0
C      1  0.5421890000000  0.5421860000000  0.4293330000000 1.0
C      1  0.5214930000000  0.5558410000000  0.4883740000000 1.0
C      1  0.5102440000000  0.5168270000000  0.5514850000000 1.0
C      1  0.4574810000000  0.4254700000000  0.5098120000000 1.0
C      1  0.4597720000000  0.5234250000000  0.5165180000000 1.0
C      1  0.5733350000000  0.5172930000000  0.5453530000000 1.0
C      1  0.5337650000000  0.4681170000000  0.4240780000000 1.0
C      1  0.5431040000000  0.5527010000000  0.5578240000000 1.0
C      1  0.5121160000000  0.5104220000000  0.4111550000000 1.0
C      1  0.5410550000000  0.4773540000000  0.4822680000000 1.0
C      1  0.4454390000000  0.4968550000000  0.4446750000000 1.0
C      1  0.4614250000000  0.5717480000000  0.4879030000000 1.0
C      1  0.5271380000000  0.4476090000000  0.4418240000000 1.0
C      1  0.4766650000000  0.4517190000000  0.4814590000000 1.0
C      1  0.5314920000000  0.5026000000000  0.4615820000000 1.0
C      1  0.4412390000000  0.5185070000000  0.5627640000000 1.0
C      1  0.5499980000000  0.4485060000000  0.5737500000000 1.0
C      1  0.4860840000000  0.4806620000000  0.4132710000000 1.0
C      1  0.5858790000000  0.4593270000000  0.4990180000000 1.0
C      1  0.4800530000000  0.5302650000000  0.5433290000000 1.0
C      1  0.5045890000000  0.4629270000000  0.4749220000000 1.0
C      1  0.4294110000000  0.4514350000000  0.4788760000000 1.0
C      1  0.5424100000000  0.4416060000000  0.5159110000000 1.0
C      1  0.5068510000000  0.4526990000000  0.5437120000000 1.0
C      1  0.4646680000000  0.4570730000000  0.4170790000000 1.0
C      1  0.5735200000000  0.4671840000000  0.5473990000000 1.0
C      1  0.5678430000000  0.5569510000000  0.4853510000000 1.0
END
