TITL C-2848498-1409-643 0.0015371502716797 125000 -843.531799328093 0 0 159 (C1) n - 1
REM
REM in /home/bkarasulu/work/CARBON/AIRSS/Generating-Clusters/AIREBO/with-SteepDescent/Only-C1/SD-CG-opt/Try1-1.4A-POS3A/HFTN-CG
REM
REM
REM
REM
REM
REM ./C.cell (11c1c37f851c82e70ff6c80c92926a4b)
REM
REM compiler GCC version 9.2.1 20190827 (Red Hat 9.2.1-1)
REM options -cpp -mtune=generic -march=x86-64 -g -O0 -fpre-include=/usr/include/finclude/math-vector-fortran.h
REM seed -1338919755 -2072491154 1676494215 -1577645413 -173927446 -1067163319 2028078821 1077337183 -576545091 644088385 1582147215 -1387159455 -334295304 1046677696 693333622 -905427494 -1148674501 1286993881 761583253 -765539425 501105516 -1528793084 -47482658 1945058343 -1782422425 -618206204 1074309672 -2136696416 -279293812 1949321358 1859264087 652983819 1807262264
REM
CELL 1.54180   50.00000   50.00000   50.00000   90.00000   90.00000   90.00000
LATT -1
SFAC C  
C      1  0.5041580000000  0.4698010000000  0.4633410000000 1.0
C      1  0.4841220000000  0.5163700000000  0.5620280000000 1.0
C      1  0.5329500000000  0.4801860000000  0.4707650000000 1.0
C      1  0.5694120000000  0.5229560000000  0.4197580000000 1.0
C      1  0.5512950000000  0.4610860000000  0.4558190000000 1.0
C      1  0.4015710000000  0.4645800000000  0.5233710000000 1.0
C      1  0.5017780000000  0.4324760000000  0.4990860000000 1.0
C      1  0.4613220000000  0.5257640000000  0.5847900000000 1.0
C      1  0.4343460000000  0.4773620000000  0.4794430000000 1.0
C      1  0.4210960000000  0.5169920000000  0.5669830000000 1.0
C      1  0.4684310000000  0.5389740000000  0.5477310000000 1.0
C      1  0.4359520000000  0.4279070000000  0.4596330000000 1.0
C      1  0.4528520000000  0.5026640000000  0.4752300000000 1.0
C      1  0.4379840000000  0.5454880000000  0.5752140000000 1.0
C      1  0.4818450000000  0.4625960000000  0.5488660000000 1.0
C      1  0.5370650000000  0.5302730000000  0.4121870000000 1.0
C      1  0.4149980000000  0.5426490000000  0.4713180000000 1.0
C      1  0.5685820000000  0.5296930000000  0.5187830000000 1.0
C      1  0.4251750000000  0.4072900000000  0.4773620000000 1.0
C      1  0.5329480000000  0.4595310000000  0.5631610000000 1.0
C      1  0.6082700000000  0.4854190000000  0.5242190000000 1.0
C      1  0.5540770000000  0.4602240000000  0.5298800000000 1.0
C      1  0.5327540000000  0.4256850000000  0.5575860000000 1.0
C      1  0.5192290000000  0.4817560000000  0.4982850000000 1.0
C      1  0.5059270000000  0.5942480000000  0.5537060000000 1.0
C      1  0.4658930000000  0.5669840000000  0.4248330000000 1.0
C      1  0.4645920000000  0.5911820000000  0.4958550000000 1.0
C      1  0.5300520000000  0.4975040000000  0.4349170000000 1.0
C      1  0.5584990000000  0.5590150000000  0.5048190000000 1.0
C      1  0.5356480000000  0.4099330000000  0.5272700000000 1.0
C      1  0.5974340000000  0.4718370000000  0.4735340000000 1.0
C      1  0.4523140000000  0.4780470000000  0.5903390000000 1.0
C      1  0.5702380000000  0.5425720000000  0.4475070000000 1.0
C      1  0.5189870000000  0.5652730000000  0.5415810000000 1.0
C      1  0.4572610000000  0.5903230000000  0.4403130000000 1.0
C      1  0.5526310000000  0.5910340000000  0.5147030000000 1.0
C      1  0.4212200000000  0.5511380000000  0.5461720000000 1.0
C      1  0.5180360000000  0.5157180000000  0.5594950000000 1.0
C      1  0.5184460000000  0.5164920000000  0.3807520000000 1.0
C      1  0.4838440000000  0.5081870000000  0.5145160000000 1.0
C      1  0.5028090000000  0.4487250000000  0.4293720000000 1.0
C      1  0.5036590000000  0.4404780000000  0.4683560000000 1.0
C      1  0.4757680000000  0.4629400000000  0.4283400000000 1.0
C      1  0.4548760000000  0.4235080000000  0.5461950000000 1.0
C      1  0.5682640000000  0.5273440000000  0.5732560000000 1.0
C      1  0.5400190000000  0.5280830000000  0.4459950000000 1.0
C      1  0.4086240000000  0.4868400000000  0.4608810000000 1.0
C      1  0.5997460000000  0.4733640000000  0.5472830000000 1.0
C      1  0.4753100000000  0.4897190000000  0.4450560000000 1.0
C      1  0.4333110000000  0.5767180000000  0.5325200000000 1.0
C      1  0.4895120000000  0.5295060000000  0.4721550000000 1.0
C      1  0.5068590000000  0.5887350000000  0.4489010000000 1.0
C      1  0.4513510000000  0.5023940000000  0.5175810000000 1.0
C      1  0.5659380000000  0.4186800000000  0.5600520000000 1.0
C      1  0.4430790000000  0.4363900000000  0.5689180000000 1.0
C      1  0.4605000000000  0.4701560000000  0.5234860000000 1.0
C      1  0.5325050000000  0.4036010000000  0.4932190000000 1.0
C      1  0.4843770000000  0.5633390000000  0.4518550000000 1.0
C      1  0.5017590000000  0.4155900000000  0.5478830000000 1.0
C      1  0.5288290000000  0.4638850000000  0.4299170000000 1.0
C      1  0.5119910000000  0.5204260000000  0.5152990000000 1.0
C      1  0.5187460000000  0.3834220000000  0.5166010000000 1.0
C      1  0.5684670000000  0.4935510000000  0.4903820000000 1.0
C      1  0.4482860000000  0.4489190000000  0.4372640000000 1.0
C      1  0.5138820000000  0.5475110000000  0.5708380000000 1.0
C      1  0.4328260000000  0.4150880000000  0.5071850000000 1.0
C      1  0.5738800000000  0.5635350000000  0.4743630000000 1.0
C      1  0.5388360000000  0.4518850000000  0.5955560000000 1.0
C      1  0.5000380000000  0.4875210000000  0.5345900000000 1.0
C      1  0.4714500000000  0.4437580000000  0.4959410000000 1.0
C      1  0.5339920000000  0.5085500000000  0.5320120000000 1.0
C      1  0.4713230000000  0.4994970000000  0.5959340000000 1.0
C      1  0.5079620000000  0.6069730000000  0.4722340000000 1.0
C      1  0.5111820000000  0.4831460000000  0.5664410000000 1.0
C      1  0.4671080000000  0.5618690000000  0.5685840000000 1.0
C      1  0.5430680000000  0.5094210000000  0.4742520000000 1.0
C      1  0.5050990000000  0.5520800000000  0.5135630000000 1.0
C      1  0.4920420000000  0.4031320000000  0.5111840000000 1.0
C      1  0.4086560000000  0.5336010000000  0.5214780000000 1.0
C      1  0.5895690000000  0.5077000000000  0.5645560000000 1.0
C      1  0.5265790000000  0.4466570000000  0.5151430000000 1.0
C      1  0.4784200000000  0.4061860000000  0.4801490000000 1.0
C      1  0.4718480000000  0.5428560000000  0.4074780000000 1.0
C      1  0.5801870000000  0.5858040000000  0.5249860000000 1.0
C      1  0.4421300000000  0.5247520000000  0.5414210000000 1.0
C      1  0.4112030000000  0.5197880000000  0.4556750000000 1.0
C      1  0.4333720000000  0.4856240000000  0.5631160000000 1.0
C      1  0.5129960000000  0.4328410000000  0.5843390000000 1.0
C      1  0.5995930000000  0.5367950000000  0.5123890000000 1.0
C      1  0.5956420000000  0.5032620000000  0.5084120000000 1.0
C      1  0.3951970000000  0.5197380000000  0.5494550000000 1.0
C      1  0.5668900000000  0.5066280000000  0.5392330000000 1.0
C      1  0.5684970000000  0.4616760000000  0.4264900000000 1.0
C      1  0.4393530000000  0.5083040000000  0.4471170000000 1.0
C      1  0.5572330000000  0.5875360000000  0.4621550000000 1.0
C      1  0.5057260000000  0.5397470000000  0.4022400000000 1.0
C      1  0.4055040000000  0.4822990000000  0.4947200000000 1.0
C      1  0.4659470000000  0.4918830000000  0.5556260000000 1.0
C      1  0.4777230000000  0.4836990000000  0.4784360000000 1.0
C      1  0.4986110000000  0.4200760000000  0.4415680000000 1.0
C      1  0.4898810000000  0.5622250000000  0.4853890000000 1.0
C      1  0.4798110000000  0.4844830000000  0.4056950000000 1.0
C      1  0.5194880000000  0.5931180000000  0.5220400000000 1.0
C      1  0.3990840000000  0.4500160000000  0.5461910000000 1.0
C      1  0.4315740000000  0.4925770000000  0.4115820000000 1.0
C      1  0.5687010000000  0.4757700000000  0.5527870000000 1.0
C      1  0.5464480000000  0.5030670000000  0.3940370000000 1.0
C      1  0.4597980000000  0.5452110000000  0.4668410000000 1.0
C      1  0.5452840000000  0.5111730000000  0.5793230000000 1.0
C      1  0.5638390000000  0.4938360000000  0.4366490000000 1.0
C      1  0.5518460000000  0.4801820000000  0.5811680000000 1.0
C      1  0.5238930000000  0.5534740000000  0.4568390000000 1.0
C      1  0.5485290000000  0.4216400000000  0.4692420000000 1.0
C      1  0.5041170000000  0.5031750000000  0.4561890000000 1.0
C      1  0.5348050000000  0.5799000000000  0.4423850000000 1.0
C      1  0.4535620000000  0.5874500000000  0.4710200000000 1.0
C      1  0.5009850000000  0.5000810000000  0.5941400000000 1.0
C      1  0.4295090000000  0.4749200000000  0.4366900000000 1.0
C      1  0.4888500000000  0.4472330000000  0.5784720000000 1.0
C      1  0.5204170000000  0.5263980000000  0.4860020000000 1.0
C      1  0.5848460000000  0.4995180000000  0.4611860000000 1.0
C      1  0.4756000000000  0.4054200000000  0.5408660000000 1.0
C      1  0.5122210000000  0.5262370000000  0.5974090000000 1.0
C      1  0.4548440000000  0.5285770000000  0.4961100000000 1.0
C      1  0.4155000000000  0.5758320000000  0.4386430000000 1.0
C      1  0.5038820000000  0.4434820000000  0.5369120000000 1.0
C      1  0.4237450000000  0.5377580000000  0.4972150000000 1.0
C      1  0.5615940000000  0.4291140000000  0.5301090000000 1.0
C      1  0.4610270000000  0.4505140000000  0.5868090000000 1.0
C      1  0.5542220000000  0.4368460000000  0.4978050000000 1.0
C      1  0.5697110000000  0.5500210000000  0.5564650000000 1.0
C      1  0.4928630000000  0.5723580000000  0.5708800000000 1.0
C      1  0.5094040000000  0.5005150000000  0.4080630000000 1.0
C      1  0.4238490000000  0.4879410000000  0.5305410000000 1.0
C      1  0.5491000000000  0.5587390000000  0.5375150000000 1.0
C      1  0.4328230000000  0.5641640000000  0.4580310000000 1.0
C      1  0.5290760000000  0.5589250000000  0.4900180000000 1.0
C      1  0.4683010000000  0.4253750000000  0.4539500000000 1.0
C      1  0.5919960000000  0.5287840000000  0.4638170000000 1.0
C      1  0.4901970000000  0.4699200000000  0.5069210000000 1.0
C      1  0.4493090000000  0.4381350000000  0.5199600000000 1.0
C      1  0.3956070000000  0.5033430000000  0.5196060000000 1.0
C      1  0.4970530000000  0.5928610000000  0.4982910000000 1.0
C      1  0.4552470000000  0.5752120000000  0.5166280000000 1.0
C      1  0.5474170000000  0.4769860000000  0.4046350000000 1.0
C      1  0.5026520000000  0.5396350000000  0.4361080000000 1.0
C      1  0.5328100000000  0.5913620000000  0.4805310000000 1.0
C      1  0.6016850000000  0.5477430000000  0.4847300000000 1.0
C      1  0.5112240000000  0.4073590000000  0.4698510000000 1.0
C      1  0.4509880000000  0.3939760000000  0.4907330000000 1.0
C      1  0.5609660000000  0.4314030000000  0.4423280000000 1.0
C      1  0.5704880000000  0.4595090000000  0.4824390000000 1.0
C      1  0.4209760000000  0.4538440000000  0.5639130000000 1.0
C      1  0.4483450000000  0.4516930000000  0.4771080000000 1.0
C      1  0.4715890000000  0.5485680000000  0.5182260000000 1.0
C      1  0.5454940000000  0.4849340000000  0.5136260000000 1.0
C      1  0.5889340000000  0.5599700000000  0.5348730000000 1.0
C      1  0.4497730000000  0.5175690000000  0.4160970000000 1.0
C      1  0.4828430000000  0.5149920000000  0.4235940000000 1.0
END
