TITL C-2847946-5639-37 -0.00129167225431631 125000 -167.123723711255 0 0 30 (C1) n - 1
REM
REM in /home/bkarasulu/work/CARBON/AIRSS/Generating-Clusters/AIREBO/with-SteepDescent/Only-C1/SD-CG-opt/Try1-1.4A-POS3A/HFTN-CG
REM
REM
REM
REM
REM
REM ./C.cell (11c1c37f851c82e70ff6c80c92926a4b)
REM
REM compiler GCC version 9.2.1 20190827 (Red Hat 9.2.1-1)
REM options -cpp -mtune=generic -march=x86-64 -g -O0 -fpre-include=/usr/include/finclude/math-vector-fortran.h
REM seed -794438184 1714636738 -1052765266 -1673149927 -2006150247 -1117407959 -1977479268 -1020775199 2012176617 1770015310 1656737155 231024573 -134483430 -1859054718 -611647505 185766896 -965617724 -77055063 197634653 931031365 627181607 -1897513564 -878194262 1710157856 1882315985 571800020 2136180954 -1201232903 1147222909 -1378541071 941668488 334347960 -1675615589
REM
CELL 1.54180   50.00000   50.00000   50.00000   90.00000   90.00000   90.00000
LATT -1
SFAC C  
C      1  0.5003900000000  0.4625410000000  0.4623070000000 1.0
C      1  0.5405140000000  0.5457670000000  0.5108250000000 1.0
C      1  0.4523780000000  0.5151860000000  0.4856510000000 1.0
C      1  0.5072890000000  0.5645730000000  0.4803130000000 1.0
C      1  0.4739380000000  0.4448160000000  0.5397450000000 1.0
C      1  0.4265640000000  0.4971500000000  0.4930660000000 1.0
C      1  0.5623090000000  0.4974220000000  0.4824080000000 1.0
C      1  0.4883200000000  0.4844010000000  0.4486960000000 1.0
C      1  0.4662420000000  0.4604600000000  0.5616080000000 1.0
C      1  0.5105620000000  0.5298210000000  0.4429420000000 1.0
C      1  0.5029360000000  0.4455660000000  0.5328340000000 1.0
C      1  0.4932580000000  0.5460730000000  0.4968190000000 1.0
C      1  0.4998520000000  0.5084630000000  0.5070620000000 1.0
C      1  0.5860580000000  0.5085100000000  0.4825610000000 1.0
C      1  0.5236030000000  0.5504470000000  0.4566670000000 1.0
C      1  0.5384550000000  0.5583500000000  0.4850270000000 1.0
C      1  0.4506790000000  0.5028410000000  0.5142790000000 1.0
C      1  0.5191020000000  0.4854220000000  0.5041920000000 1.0
C      1  0.5385100000000  0.4836820000000  0.4835470000000 1.0
C      1  0.5076030000000  0.4603030000000  0.5095150000000 1.0
C      1  0.4922180000000  0.5117310000000  0.4544390000000 1.0
C      1  0.5122870000000  0.5350710000000  0.5226770000000 1.0
C      1  0.5291220000000  0.4655260000000  0.4633960000000 1.0
C      1  0.4713810000000  0.4406150000000  0.5088140000000 1.0
C      1  0.4832610000000  0.5064800000000  0.5533750000000 1.0
C      1  0.5032300000000  0.5273800000000  0.5527290000000 1.0
C      1  0.4897070000000  0.4520420000000  0.4869640000000 1.0
C      1  0.4749770000000  0.5033560000000  0.5266250000000 1.0
C      1  0.4739930000000  0.4856980000000  0.5699420000000 1.0
C      1  0.4812620000000  0.5203070000000  0.4809790000000 1.0
END
