TITL C-2848495-5024-119 0.000894421402742098 125000 -847.400582021559 0 0 156 (C1) n - 1
REM
REM in /home/bkarasulu/work/CARBON/AIRSS/Generating-Clusters/AIREBO/with-SteepDescent/Only-C1/SD-CG-opt/Try1-1.4A-POS3A/HFTN-CG
REM
REM
REM
REM
REM
REM ./C.cell (11c1c37f851c82e70ff6c80c92926a4b)
REM
REM compiler GCC version 9.2.1 20190827 (Red Hat 9.2.1-1)
REM options -cpp -mtune=generic -march=x86-64 -g -O0 -fpre-include=/usr/include/finclude/math-vector-fortran.h
REM seed -2074247686 1074174789 1705446321 834427896 -2000204995 -463364831 -1133415515 2004345764 -1861998033 -47051982 468347443 913681954 -975629640 890129521 1253528053 879092159 -398271021 174495440 -1711411234 643162838 -697731608 -2015299653 -420895202 189053198 750327095 -1655952373 1494800876 781406674 2145562506 -657113907 -1663447156 -332712970 1031454922
REM
CELL 1.54180   50.00000   50.00000   50.00000   90.00000   90.00000   90.00000
LATT -1
SFAC C  
C      1  0.5243540000000  0.5768280000000  0.4269690000000 1.0
C      1  0.5618710000000  0.4297060000000  0.5302540000000 1.0
C      1  0.5077050000000  0.5259750000000  0.4926770000000 1.0
C      1  0.4701750000000  0.5770120000000  0.4576360000000 1.0
C      1  0.4746180000000  0.4599950000000  0.5849580000000 1.0
C      1  0.5768230000000  0.4677620000000  0.4494290000000 1.0
C      1  0.4270470000000  0.4942890000000  0.3967490000000 1.0
C      1  0.4528450000000  0.4515110000000  0.5610650000000 1.0
C      1  0.5440060000000  0.4925060000000  0.5598900000000 1.0
C      1  0.5272320000000  0.5739000000000  0.5553880000000 1.0
C      1  0.4412260000000  0.5186180000000  0.5889830000000 1.0
C      1  0.4630310000000  0.4191680000000  0.5217190000000 1.0
C      1  0.4101030000000  0.4493950000000  0.4856240000000 1.0
C      1  0.4494240000000  0.5471340000000  0.5993990000000 1.0
C      1  0.4309440000000  0.4297630000000  0.4793190000000 1.0
C      1  0.5047620000000  0.4155050000000  0.4661480000000 1.0
C      1  0.5017840000000  0.4610550000000  0.4397710000000 1.0
C      1  0.4647620000000  0.5515300000000  0.5099480000000 1.0
C      1  0.5194680000000  0.5979430000000  0.5383980000000 1.0
C      1  0.5732580000000  0.4231550000000  0.5048380000000 1.0
C      1  0.4335140000000  0.5424150000000  0.5114780000000 1.0
C      1  0.4483960000000  0.5426600000000  0.4307130000000 1.0
C      1  0.5393960000000  0.5322230000000  0.5939410000000 1.0
C      1  0.4181290000000  0.5496130000000  0.4908550000000 1.0
C      1  0.4677690000000  0.4077860000000  0.4955710000000 1.0
C      1  0.5133720000000  0.4521580000000  0.4107290000000 1.0
C      1  0.4955190000000  0.5041780000000  0.5158480000000 1.0
C      1  0.4721420000000  0.4951710000000  0.4565910000000 1.0
C      1  0.5027360000000  0.4533280000000  0.5119250000000 1.0
C      1  0.5993280000000  0.5006640000000  0.4540400000000 1.0
C      1  0.4319610000000  0.5510740000000  0.4533530000000 1.0
C      1  0.5167320000000  0.5637950000000  0.5016670000000 1.0
C      1  0.5203870000000  0.4115950000000  0.5563850000000 1.0
C      1  0.4091630000000  0.5339190000000  0.4679410000000 1.0
C      1  0.5082020000000  0.5534570000000  0.4726500000000 1.0
C      1  0.4226940000000  0.4761740000000  0.5023320000000 1.0
C      1  0.5456700000000  0.5252780000000  0.5675140000000 1.0
C      1  0.4892630000000  0.5260210000000  0.5887750000000 1.0
C      1  0.5382040000000  0.4392860000000  0.4952790000000 1.0
C      1  0.4868520000000  0.5492500000000  0.4472710000000 1.0
C      1  0.5247390000000  0.4758600000000  0.5120620000000 1.0
C      1  0.4624910000000  0.5117350000000  0.5129880000000 1.0
C      1  0.4278020000000  0.4721160000000  0.5713940000000 1.0
C      1  0.5296800000000  0.5148440000000  0.4010220000000 1.0
C      1  0.4572370000000  0.5115590000000  0.4333820000000 1.0
C      1  0.5226310000000  0.4959530000000  0.5934170000000 1.0
C      1  0.5314290000000  0.4868850000000  0.4802240000000 1.0
C      1  0.5747170000000  0.4783930000000  0.4242340000000 1.0
C      1  0.5269570000000  0.5462730000000  0.4137450000000 1.0
C      1  0.5470050000000  0.4375950000000  0.4263810000000 1.0
C      1  0.4197090000000  0.5384870000000  0.5400230000000 1.0
C      1  0.4402110000000  0.4578020000000  0.4525530000000 1.0
C      1  0.4758820000000  0.4696260000000  0.5195240000000 1.0
C      1  0.4138260000000  0.4664080000000  0.4496320000000 1.0
C      1  0.5696010000000  0.4799410000000  0.5321110000000 1.0
C      1  0.4726870000000  0.5582020000000  0.5854620000000 1.0
C      1  0.5510030000000  0.4104380000000  0.4877930000000 1.0
C      1  0.5286840000000  0.4374720000000  0.5271650000000 1.0
C      1  0.5425370000000  0.5088370000000  0.6119540000000 1.0
C      1  0.4979590000000  0.4878240000000  0.4861380000000 1.0
C      1  0.4557660000000  0.3991210000000  0.4729240000000 1.0
C      1  0.5522240000000  0.5801820000000  0.4751980000000 1.0
C      1  0.5119840000000  0.4691610000000  0.5955700000000 1.0
C      1  0.5642350000000  0.5614390000000  0.5333680000000 1.0
C      1  0.4236030000000  0.4999940000000  0.5724390000000 1.0
C      1  0.5085370000000  0.5099510000000  0.5658140000000 1.0
C      1  0.5801200000000  0.4439280000000  0.5455120000000 1.0
C      1  0.4508120000000  0.4254910000000  0.4520360000000 1.0
C      1  0.5493140000000  0.4566620000000  0.4612020000000 1.0
C      1  0.4910490000000  0.5834590000000  0.5416850000000 1.0
C      1  0.5645430000000  0.5831990000000  0.5071590000000 1.0
C      1  0.5718500000000  0.4514240000000  0.5698040000000 1.0
C      1  0.5725610000000  0.5288540000000  0.5383820000000 1.0
C      1  0.4042410000000  0.4814860000000  0.4751900000000 1.0
C      1  0.5757780000000  0.5027600000000  0.5534160000000 1.0
C      1  0.5214810000000  0.4033170000000  0.4931380000000 1.0
C      1  0.4681800000000  0.5039310000000  0.5984040000000 1.0
C      1  0.4642310000000  0.6025290000000  0.5088100000000 1.0
C      1  0.5796300000000  0.5399650000000  0.4933360000000 1.0
C      1  0.4674410000000  0.5271310000000  0.4620110000000 1.0
C      1  0.4501030000000  0.4972580000000  0.4081840000000 1.0
C      1  0.5126240000000  0.4074150000000  0.5235480000000 1.0
C      1  0.5043850000000  0.5283790000000  0.4282870000000 1.0
C      1  0.5924980000000  0.4498240000000  0.4960860000000 1.0
C      1  0.4783580000000  0.4866200000000  0.3976560000000 1.0
C      1  0.5358770000000  0.5442980000000  0.5410570000000 1.0
C      1  0.4681730000000  0.5545630000000  0.4123610000000 1.0
C      1  0.4377430000000  0.5767770000000  0.5307750000000 1.0
C      1  0.4657400000000  0.6034800000000  0.5383630000000 1.0
C      1  0.6058040000000  0.4957490000000  0.5311360000000 1.0
C      1  0.5970070000000  0.4632700000000  0.5261300000000 1.0
C      1  0.4512620000000  0.4486360000000  0.5212590000000 1.0
C      1  0.5199860000000  0.5097540000000  0.4450820000000 1.0
C      1  0.4893140000000  0.6045420000000  0.4951500000000 1.0
C      1  0.4932550000000  0.5592260000000  0.5224510000000 1.0
C      1  0.5096510000000  0.3857640000000  0.4553060000000 1.0
C      1  0.5022820000000  0.5368840000000  0.5460030000000 1.0
C      1  0.4653330000000  0.5766940000000  0.5597330000000 1.0
C      1  0.4882220000000  0.4549390000000  0.3892270000000 1.0
C      1  0.5491520000000  0.5545220000000  0.4973030000000 1.0
C      1  0.4580370000000  0.4457980000000  0.4880520000000 1.0
C      1  0.5818580000000  0.5005150000000  0.4896400000000 1.0
C      1  0.5148520000000  0.5450400000000  0.5971670000000 1.0
C      1  0.5025670000000  0.5593470000000  0.5714460000000 1.0
C      1  0.5459930000000  0.4929100000000  0.4151540000000 1.0
C      1  0.5263630000000  0.4364710000000  0.4516250000000 1.0
C      1  0.5184800000000  0.4435990000000  0.5590160000000 1.0
C      1  0.5432270000000  0.4633710000000  0.5713890000000 1.0
C      1  0.4887560000000  0.5986180000000  0.4669220000000 1.0
C      1  0.5374890000000  0.5260490000000  0.4880870000000 1.0
C      1  0.5100210000000  0.5805450000000  0.4563520000000 1.0
C      1  0.4849100000000  0.4386220000000  0.5614670000000 1.0
C      1  0.5010550000000  0.4866710000000  0.4542260000000 1.0
C      1  0.4885020000000  0.4335760000000  0.4899330000000 1.0
C      1  0.4104270000000  0.4878960000000  0.5283870000000 1.0
C      1  0.5605030000000  0.4601720000000  0.4908950000000 1.0
C      1  0.4848610000000  0.3969080000000  0.4168900000000 1.0
C      1  0.4962500000000  0.4763570000000  0.5677790000000 1.0
C      1  0.4696520000000  0.5281190000000  0.5419880000000 1.0
C      1  0.4630140000000  0.5075960000000  0.5649960000000 1.0
C      1  0.4493310000000  0.5516480000000  0.5467860000000 1.0
C      1  0.4285460000000  0.4611630000000  0.5393040000000 1.0
C      1  0.5208980000000  0.4964640000000  0.5371410000000 1.0
C      1  0.4843030000000  0.4156750000000  0.5398210000000 1.0
C      1  0.3955310000000  0.5110690000000  0.4768940000000 1.0
C      1  0.4573140000000  0.4753120000000  0.4710840000000 1.0
C      1  0.5117980000000  0.5938680000000  0.5092080000000 1.0
C      1  0.4822750000000  0.4191100000000  0.4408140000000 1.0
C      1  0.5990430000000  0.5166800000000  0.5111700000000 1.0
C      1  0.5942630000000  0.4744560000000  0.4751360000000 1.0
C      1  0.4819680000000  0.4899630000000  0.5436220000000 1.0
C      1  0.4448960000000  0.5720490000000  0.4683640000000 1.0
C      1  0.4764730000000  0.5300170000000  0.4903770000000 1.0
C      1  0.5791100000000  0.5224490000000  0.4646250000000 1.0
C      1  0.5458050000000  0.5213340000000  0.4595750000000 1.0
C      1  0.3896070000000  0.5023710000000  0.5056970000000 1.0
C      1  0.4520890000000  0.4830800000000  0.5010680000000 1.0
C      1  0.5425470000000  0.4608420000000  0.4082630000000 1.0
C      1  0.4923870000000  0.4267810000000  0.4090600000000 1.0
C      1  0.4535430000000  0.4413160000000  0.4220600000000 1.0
C      1  0.3979820000000  0.5550670000000  0.5461850000000 1.0
C      1  0.4163160000000  0.5099970000000  0.5478800000000 1.0
C      1  0.5943740000000  0.5483970000000  0.5225130000000 1.0
C      1  0.4672190000000  0.4765310000000  0.6066370000000 1.0
C      1  0.4471900000000  0.5774460000000  0.4982020000000 1.0
C      1  0.5592450000000  0.5476050000000  0.4438110000000 1.0
C      1  0.4908880000000  0.5722320000000  0.4225320000000 1.0
C      1  0.4778320000000  0.5374110000000  0.3914060000000 1.0
C      1  0.5402720000000  0.4838650000000  0.4474910000000 1.0
C      1  0.5484560000000  0.5725590000000  0.4488890000000 1.0
C      1  0.5932240000000  0.5024760000000  0.5769400000000 1.0
C      1  0.5545410000000  0.4905830000000  0.5048980000000 1.0
C      1  0.5473780000000  0.5208460000000  0.5186600000000 1.0
C      1  0.4956800000000  0.5117780000000  0.3998740000000 1.0
C      1  0.4755850000000  0.4612900000000  0.4195030000000 1.0
C      1  0.5292710000000  0.4464670000000  0.5973820000000 1.0
END
