TITL C-2848508-1660-738 674.771148426583 125000 -430.125838860451 0 0 78 (C1) n - 1
REM
REM in /home/bkarasulu/work/CARBON/AIRSS/Generating-Clusters/AIREBO/with-SteepDescent/Only-C1/SD-CG-opt/Try1-1.4A-POS3A/HFTN-CG
REM
REM
REM
REM
REM
REM ./C.cell (11c1c37f851c82e70ff6c80c92926a4b)
REM
REM compiler GCC version 9.2.1 20190827 (Red Hat 9.2.1-1)
REM options -cpp -mtune=generic -march=x86-64 -g -O0 -fpre-include=/usr/include/finclude/math-vector-fortran.h
REM seed 1497208990 224186507 -1670613257 -1369464929 -1417897565 1112470399 -1468710389 143819334 -611414796 -615909746 -1782277579 -2079216961 605816795 341107387 717473645 -718882875 1652644160 -1157872411 177115426 1056531256 808790007 2137703370 -747439456 111247315 1993516717 2059206996 -2077106535 309360144 392317639 -2069229714 -35089300 -1938596709 227172669
REM
CELL 1.54180   50.00000   50.00000   50.00000   90.00000   90.00000   90.00000
LATT -1
SFAC C  
C      1  0.5021560000000  0.5760710000000  0.5172570000000 1.0
C      1  0.5543040000000  0.5128590000000  0.5705040000000 1.0
C      1  0.4822630000000  0.4438670000000  0.5005410000000 1.0
C      1  0.5209120000000  0.5711110000000  0.5448730000000 1.0
C      1  0.4762780000000  0.5595760000000  0.5247460000000 1.0
C      1  0.4483080000000  0.4643760000000  0.5394680000000 1.0
C      1  0.5537630000000  0.4806320000000  0.5285850000000 1.0
C      1  0.4442030000000  0.5450510000000  0.4487640000000 1.0
C      1  0.5259780000000  0.5029260000000  0.4962980000000 1.0
C      1  0.5290920000000  0.5596110000000  0.5075570000000 1.0
C      1  0.5282470000000  0.5276450000000  0.5145200000000 1.0
C      1  0.4607980000000  0.4878080000000  0.4522320000000 1.0
C      1  0.4693700000000  0.5513690000000  0.4265170000000 1.0
C      1  0.5166100000000  0.5438680000000  0.5647560000000 1.0
C      1  0.4204220000000  0.4796630000000  0.4974710000000 1.0
C      1  0.5225150000000  0.4902860000000  0.4460040000000 1.0
C      1  0.4910860000000  0.4797340000000  0.4382420000000 1.0
C      1  0.5624660000000  0.5355260000000  0.5569290000000 1.0
C      1  0.4194290000000  0.5555220000000  0.4447470000000 1.0
C      1  0.4647210000000  0.5274070000000  0.5619230000000 1.0
C      1  0.5077840000000  0.4887730000000  0.5679610000000 1.0
C      1  0.4484370000000  0.4764020000000  0.5111050000000 1.0
C      1  0.5389470000000  0.5145710000000  0.5946890000000 1.0
C      1  0.5537820000000  0.4489280000000  0.4763500000000 1.0
C      1  0.4821290000000  0.4937150000000  0.5301990000000 1.0
C      1  0.6119480000000  0.4783460000000  0.4905680000000 1.0
C      1  0.5403190000000  0.4590400000000  0.4286750000000 1.0
C      1  0.4820430000000  0.5533840000000  0.4580030000000 1.0
C      1  0.5096570000000  0.4517640000000  0.4859950000000 1.0
C      1  0.5117970000000  0.5170630000000  0.4183700000000 1.0
C      1  0.4820090000000  0.4528610000000  0.4523290000000 1.0
C      1  0.4512280000000  0.4369420000000  0.5431080000000 1.0
C      1  0.5670600000000  0.5244220000000  0.4521160000000 1.0
C      1  0.4971060000000  0.5264080000000  0.4457890000000 1.0
C      1  0.5126880000000  0.4370480000000  0.5514450000000 1.0
C      1  0.4147640000000  0.5167040000000  0.5647110000000 1.0
C      1  0.5299430000000  0.4694400000000  0.5009910000000 1.0
C      1  0.5134430000000  0.5160040000000  0.5494670000000 1.0
C      1  0.4965380000000  0.5908780000000  0.4904860000000 1.0
C      1  0.5459750000000  0.5461460000000  0.4602960000000 1.0
C      1  0.5056120000000  0.4892300000000  0.4101890000000 1.0
C      1  0.4719660000000  0.5543440000000  0.5523320000000 1.0
C      1  0.4501950000000  0.4354020000000  0.4995760000000 1.0
C      1  0.4352360000000  0.4530670000000  0.4821560000000 1.0
C      1  0.5379390000000  0.4463530000000  0.4534600000000 1.0
C      1  0.5105920000000  0.4180140000000  0.4900100000000 1.0
C      1  0.4971190000000  0.5189980000000  0.5211620000000 1.0
C      1  0.4596360000000  0.4910940000000  0.5462920000000 1.0
C      1  0.4916500000000  0.5802870000000  0.4684930000000 1.0
C      1  0.4369050000000  0.5139320000000  0.5476880000000 1.0
C      1  0.4646650000000  0.4911800000000  0.4851320000000 1.0
C      1  0.5869240000000  0.4882380000000  0.4855130000000 1.0
C      1  0.5125020000000  0.5234150000000  0.5886940000000 1.0
C      1  0.5818830000000  0.5106940000000  0.4703720000000 1.0
C      1  0.4744580000000  0.5356080000000  0.5077450000000 1.0
C      1  0.4655640000000  0.5194850000000  0.4444290000000 1.0
C      1  0.4597330000000  0.5408450000000  0.4777350000000 1.0
C      1  0.5443480000000  0.5486030000000  0.5359120000000 1.0
C      1  0.4851440000000  0.5128440000000  0.5773990000000 1.0
C      1  0.5362680000000  0.5208820000000  0.4404020000000 1.0
C      1  0.5103170000000  0.5096280000000  0.4685980000000 1.0
C      1  0.4940940000000  0.5667480000000  0.5656280000000 1.0
C      1  0.5314480000000  0.4389490000000  0.5167810000000 1.0
C      1  0.5045410000000  0.4203130000000  0.5234070000000 1.0
C      1  0.5277060000000  0.4707720000000  0.4068480000000 1.0
C      1  0.4502510000000  0.5164130000000  0.4966750000000 1.0
C      1  0.4948340000000  0.4927680000000  0.4910730000000 1.0
C      1  0.4270440000000  0.5082820000000  0.5155640000000 1.0
C      1  0.5406350000000  0.5634730000000  0.4793010000000 1.0
C      1  0.4712980000000  0.4222730000000  0.5232560000000 1.0
C      1  0.5632350000000  0.4746670000000  0.4964570000000 1.0
C      1  0.5504130000000  0.4294830000000  0.4977710000000 1.0
C      1  0.5114810000000  0.4577540000000  0.5648600000000 1.0
C      1  0.4359040000000  0.4877640000000  0.4327070000000 1.0
C      1  0.4519810000000  0.4555820000000  0.4585510000000 1.0
C      1  0.4878780000000  0.4717950000000  0.5125700000000 1.0
C      1  0.5393060000000  0.4940250000000  0.5514800000000 1.0
C      1  0.5087770000000  0.4330470000000  0.4591940000000 1.0
END
