TITL C-2847945-6269-338 -0.00237527121501174 125000 -688.453406217345 0 0 135 (C1) n - 1
REM
REM in /home/bkarasulu/work/CARBON/AIRSS/Generating-Clusters/AIREBO/with-SteepDescent/Only-C1/SD-CG-opt/Try1-1.4A-POS3A/HFTN-CG
REM
REM
REM
REM
REM
REM ./C.cell (11c1c37f851c82e70ff6c80c92926a4b)
REM
REM compiler GCC version 9.2.1 20190827 (Red Hat 9.2.1-1)
REM options -cpp -mtune=generic -march=x86-64 -g -O0 -fpre-include=/usr/include/finclude/math-vector-fortran.h
REM seed -422875478 326195849 -1080860281 -224873185 -1621775400 -874057835 1333950715 -454518782 -1723162114 527609450 -1765044883 -802188398 463485786 385067129 -241258444 -1904385918 504884953 -1444206012 -164568270 1015901166 -1985504315 753301323 -675577989 -1689507800 2032079917 433333598 1478240045 1370088352 -1291141599 1918585060 1487995023 -1761141318 1208603607
REM
CELL 1.54180   50.00000   50.00000   50.00000   90.00000   90.00000   90.00000
LATT -1
SFAC C  
C      1  0.4867510000000  0.4826500000000  0.5921070000000 1.0
C      1  0.5243330000000  0.5401350000000  0.4595070000000 1.0
C      1  0.5643470000000  0.4555270000000  0.4394470000000 1.0
C      1  0.5401240000000  0.4139610000000  0.4974710000000 1.0
C      1  0.4964060000000  0.5161060000000  0.5080790000000 1.0
C      1  0.5202220000000  0.5856440000000  0.5341580000000 1.0
C      1  0.5050060000000  0.4277830000000  0.4248850000000 1.0
C      1  0.5696690000000  0.5549990000000  0.5319640000000 1.0
C      1  0.5084100000000  0.5474560000000  0.5602080000000 1.0
C      1  0.4400050000000  0.4756170000000  0.5656240000000 1.0
C      1  0.5086070000000  0.4067770000000  0.5057320000000 1.0
C      1  0.5266850000000  0.4894400000000  0.5806490000000 1.0
C      1  0.4862860000000  0.5715030000000  0.4387480000000 1.0
C      1  0.5558730000000  0.5426150000000  0.5034550000000 1.0
C      1  0.4724060000000  0.4534140000000  0.5414100000000 1.0
C      1  0.4079480000000  0.4875520000000  0.4447990000000 1.0
C      1  0.5019130000000  0.5052750000000  0.5634910000000 1.0
C      1  0.5177730000000  0.4582960000000  0.5882890000000 1.0
C      1  0.4926950000000  0.4321560000000  0.4626280000000 1.0
C      1  0.4818500000000  0.5384630000000  0.5808130000000 1.0
C      1  0.4003320000000  0.5184020000000  0.5150960000000 1.0
C      1  0.5063800000000  0.5657590000000  0.4728450000000 1.0
C      1  0.5008980000000  0.4964910000000  0.4806520000000 1.0
C      1  0.4359230000000  0.4800390000000  0.5343420000000 1.0
C      1  0.4683500000000  0.5094610000000  0.5856790000000 1.0
C      1  0.4465410000000  0.5353690000000  0.5301430000000 1.0
C      1  0.4732210000000  0.5177590000000  0.3994400000000 1.0
C      1  0.4761180000000  0.4013050000000  0.5142940000000 1.0
C      1  0.4236800000000  0.4433590000000  0.4721690000000 1.0
C      1  0.4581380000000  0.5070730000000  0.5152510000000 1.0
C      1  0.4009350000000  0.5009890000000  0.4682420000000 1.0
C      1  0.5677490000000  0.4317240000000  0.5081820000000 1.0
C      1  0.4617930000000  0.4867530000000  0.4536550000000 1.0
C      1  0.4738640000000  0.5236610000000  0.4694760000000 1.0
C      1  0.5973610000000  0.4985550000000  0.4666470000000 1.0
C      1  0.5390150000000  0.5069860000000  0.6027330000000 1.0
C      1  0.5683470000000  0.4955700000000  0.4827310000000 1.0
C      1  0.4587800000000  0.4668280000000  0.4053210000000 1.0
C      1  0.4845540000000  0.4649200000000  0.4585340000000 1.0
C      1  0.5469720000000  0.4841420000000  0.5468110000000 1.0
C      1  0.5030430000000  0.5291780000000  0.4126830000000 1.0
C      1  0.5004680000000  0.5152350000000  0.5959780000000 1.0
C      1  0.5189010000000  0.5024250000000  0.4256590000000 1.0
C      1  0.5982860000000  0.5272930000000  0.4746000000000 1.0
C      1  0.5815560000000  0.5451270000000  0.4600550000000 1.0
C      1  0.4974760000000  0.4154080000000  0.5366800000000 1.0
C      1  0.4264320000000  0.5270130000000  0.4420330000000 1.0
C      1  0.5197330000000  0.4525030000000  0.4164800000000 1.0
C      1  0.5388370000000  0.5320060000000  0.5997550000000 1.0
C      1  0.4136880000000  0.4469580000000  0.5372850000000 1.0
C      1  0.4789610000000  0.4817710000000  0.5590090000000 1.0
C      1  0.5058720000000  0.4545290000000  0.5474850000000 1.0
C      1  0.5858200000000  0.4574180000000  0.4951100000000 1.0
C      1  0.5516820000000  0.5557780000000  0.4723620000000 1.0
C      1  0.4432260000000  0.4360020000000  0.5429990000000 1.0
C      1  0.5498190000000  0.4457210000000  0.4753980000000 1.0
C      1  0.4704890000000  0.5533980000000  0.5140480000000 1.0
C      1  0.5323800000000  0.5395360000000  0.4264670000000 1.0
C      1  0.4725280000000  0.5772450000000  0.5461480000000 1.0
C      1  0.4250750000000  0.5561020000000  0.5464540000000 1.0
C      1  0.4610050000000  0.4976860000000  0.4826970000000 1.0
C      1  0.5184200000000  0.4800200000000  0.5287810000000 1.0
C      1  0.4366910000000  0.4979170000000  0.4338470000000 1.0
C      1  0.4480000000000  0.4968610000000  0.4051180000000 1.0
C      1  0.4905320000000  0.5269220000000  0.5398350000000 1.0
C      1  0.5655620000000  0.5107620000000  0.5459520000000 1.0
C      1  0.5677440000000  0.5794220000000  0.5136260000000 1.0
C      1  0.4830710000000  0.4811820000000  0.4146020000000 1.0
C      1  0.4867370000000  0.4501740000000  0.5821780000000 1.0
C      1  0.4853870000000  0.4900410000000  0.5269320000000 1.0
C      1  0.4769410000000  0.5429880000000  0.4297760000000 1.0
C      1  0.4807840000000  0.4741550000000  0.4972260000000 1.0
C      1  0.5606560000000  0.5304220000000  0.4429730000000 1.0
C      1  0.5192900000000  0.4152980000000  0.4493060000000 1.0
C      1  0.5675410000000  0.5118160000000  0.5120250000000 1.0
C      1  0.5521110000000  0.4710070000000  0.4954370000000 1.0
C      1  0.4080010000000  0.4713770000000  0.5213670000000 1.0
C      1  0.5158760000000  0.5869830000000  0.4945280000000 1.0
C      1  0.5322920000000  0.4473350000000  0.4465670000000 1.0
C      1  0.5867220000000  0.4667270000000  0.4624700000000 1.0
C      1  0.4566260000000  0.4488650000000  0.5714800000000 1.0
C      1  0.4442870000000  0.5385600000000  0.4771710000000 1.0
C      1  0.5103400000000  0.4586080000000  0.5036300000000 1.0
C      1  0.5303480000000  0.5065590000000  0.4874030000000 1.0
C      1  0.5489400000000  0.5821150000000  0.4933220000000 1.0
C      1  0.4833230000000  0.5872880000000  0.4977660000000 1.0
C      1  0.5010700000000  0.5768330000000  0.5517760000000 1.0
C      1  0.4679730000000  0.5477770000000  0.5534520000000 1.0
C      1  0.5152920000000  0.5757150000000  0.4439170000000 1.0
C      1  0.5227380000000  0.6100350000000  0.5180520000000 1.0
C      1  0.4612650000000  0.5659460000000  0.4838200000000 1.0
C      1  0.5400800000000  0.5433770000000  0.5719100000000 1.0
C      1  0.4026760000000  0.5172000000000  0.5403640000000 1.0
C      1  0.4885570000000  0.4392610000000  0.5150370000000 1.0
C      1  0.4299510000000  0.5162740000000  0.4985080000000 1.0
C      1  0.5856400000000  0.4833780000000  0.5166260000000 1.0
C      1  0.4124610000000  0.4875280000000  0.4935520000000 1.0
C      1  0.5160070000000  0.4714510000000  0.4633000000000 1.0
C      1  0.5559940000000  0.4578260000000  0.5265390000000 1.0
C      1  0.5195480000000  0.4368770000000  0.4829760000000 1.0
C      1  0.5656320000000  0.5381390000000  0.5543820000000 1.0
C      1  0.4142490000000  0.5523780000000  0.4851280000000 1.0
C      1  0.5750670000000  0.4569740000000  0.5546820000000 1.0
C      1  0.4687950000000  0.5825300000000  0.4569570000000 1.0
C      1  0.5016970000000  0.5551000000000  0.5139170000000 1.0
C      1  0.4761820000000  0.4293740000000  0.4330240000000 1.0
C      1  0.5099730000000  0.4773300000000  0.4126860000000 1.0
C      1  0.4565290000000  0.5840410000000  0.5187740000000 1.0
C      1  0.4750630000000  0.5091030000000  0.4322940000000 1.0
C      1  0.4569800000000  0.4406030000000  0.4159290000000 1.0
C      1  0.5481570000000  0.5082800000000  0.4625320000000 1.0
C      1  0.5297050000000  0.5321010000000  0.5385810000000 1.0
C      1  0.4516140000000  0.4251010000000  0.5130870000000 1.0
C      1  0.5369500000000  0.4128880000000  0.5308100000000 1.0
C      1  0.4489250000000  0.5448280000000  0.4440650000000 1.0
C      1  0.4948530000000  0.5391250000000  0.4860770000000 1.0
C      1  0.4542700000000  0.4603830000000  0.5134810000000 1.0
C      1  0.5327660000000  0.4391300000000  0.5391970000000 1.0
C      1  0.5029290000000  0.4257810000000  0.5654060000000 1.0
C      1  0.5490800000000  0.5078970000000  0.4226350000000 1.0
C      1  0.5468750000000  0.4632670000000  0.5722270000000 1.0
C      1  0.5722030000000  0.4249990000000  0.4762830000000 1.0
C      1  0.4317210000000  0.5607940000000  0.5130640000000 1.0
C      1  0.4321040000000  0.5107050000000  0.5485930000000 1.0
C      1  0.5959380000000  0.5283420000000  0.5032470000000 1.0
C      1  0.4302070000000  0.4615020000000  0.4897870000000 1.0
C      1  0.5924500000000  0.4758330000000  0.5421450000000 1.0
C      1  0.5431310000000  0.5758820000000  0.4462910000000 1.0
C      1  0.4410860000000  0.5032990000000  0.5791440000000 1.0
C      1  0.5019500000000  0.5151920000000  0.4522460000000 1.0
C      1  0.5665950000000  0.4876600000000  0.4436050000000 1.0
C      1  0.5316750000000  0.5589890000000  0.5208460000000 1.0
C      1  0.4754940000000  0.4239710000000  0.4889040000000 1.0
C      1  0.4079270000000  0.5287080000000  0.4640280000000 1.0
C      1  0.5342180000000  0.5080420000000  0.5177100000000 1.0
END
