TITL C-2848502-4955-212 0.000871535396980453 125000 -146.825578126652 0 0 30 (C1) n - 1
REM
REM in /home/bkarasulu/work/CARBON/AIRSS/Generating-Clusters/AIREBO/with-SteepDescent/Only-C1/SD-CG-opt/Try1-1.4A-POS3A/HFTN-CG
REM
REM
REM
REM
REM
REM ./C.cell (11c1c37f851c82e70ff6c80c92926a4b)
REM
REM compiler GCC version 9.2.1 20190827 (Red Hat 9.2.1-1)
REM options -cpp -mtune=generic -march=x86-64 -g -O0 -fpre-include=/usr/include/finclude/math-vector-fortran.h
REM seed 2108376385 554551041 -49874333 1262027800 -1622982152 -1337955586 2033788688 -451420951 919220222 -785181664 2049727474 -1929919123 -666584320 -270602483 -1170332226 -1720889095 -41573943 1234870723 -75425986 -1856012148 -727342913 -1006870038 -182651987 -432431177 -1174124292 532192355 -1725275351 574100920 -1251374533 -442063445 -524901778 -1013567855 1824917981
REM
CELL 1.54180   50.00000   50.00000   50.00000   90.00000   90.00000   90.00000
LATT -1
SFAC C  
C      1  0.5322650000000  0.5208080000000  0.4639320000000 1.0
C      1  0.5194070000000  0.4642060000000  0.4858610000000 1.0
C      1  0.4931500000000  0.5154670000000  0.4692790000000 1.0
C      1  0.4715620000000  0.5270640000000  0.5212730000000 1.0
C      1  0.5315560000000  0.5236070000000  0.5429080000000 1.0
C      1  0.5103560000000  0.5374900000000  0.5558360000000 1.0
C      1  0.4773810000000  0.4837710000000  0.4984520000000 1.0
C      1  0.4959600000000  0.5119250000000  0.5029810000000 1.0
C      1  0.4455840000000  0.4642590000000  0.4540990000000 1.0
C      1  0.4890180000000  0.5487910000000  0.4639390000000 1.0
C      1  0.4797820000000  0.4564680000000  0.5182420000000 1.0
C      1  0.4996600000000  0.4826220000000  0.4656540000000 1.0
C      1  0.4915800000000  0.4488090000000  0.4870280000000 1.0
C      1  0.5114280000000  0.4492640000000  0.5245070000000 1.0
C      1  0.4986010000000  0.5660210000000  0.4843780000000 1.0
C      1  0.4699690000000  0.4794310000000  0.5374020000000 1.0
C      1  0.5199150000000  0.5562750000000  0.4994480000000 1.0
C      1  0.5291060000000  0.4749540000000  0.5156840000000 1.0
C      1  0.4862820000000  0.5231600000000  0.5503020000000 1.0
C      1  0.4535740000000  0.4992140000000  0.5266370000000 1.0
C      1  0.4590750000000  0.5508950000000  0.5151760000000 1.0
C      1  0.4923800000000  0.4194350000000  0.4797960000000 1.0
C      1  0.5149990000000  0.5001350000000  0.5285730000000 1.0
C      1  0.5263010000000  0.5254490000000  0.4956460000000 1.0
C      1  0.5469590000000  0.5018230000000  0.5047740000000 1.0
C      1  0.5119560000000  0.5351790000000  0.4473910000000 1.0
C      1  0.4912100000000  0.4929770000000  0.5497230000000 1.0
C      1  0.5491080000000  0.4794390000000  0.4816900000000 1.0
C      1  0.4706190000000  0.4684810000000  0.4688380000000 1.0
C      1  0.5312570000000  0.4925800000000  0.4605510000000 1.0
END
