TITL C-2847950-6905-675 0.00072697734897087 125000 -988.437048991329 0 0 182 (C1) n - 1
REM
REM in /home/bkarasulu/work/CARBON/AIRSS/Generating-Clusters/AIREBO/with-SteepDescent/Only-C1/SD-CG-opt/Try1-1.4A-POS3A/HFTN-CG
REM
REM
REM
REM
REM
REM ./C.cell (11c1c37f851c82e70ff6c80c92926a4b)
REM
REM compiler GCC version 9.2.1 20190827 (Red Hat 9.2.1-1)
REM options -cpp -mtune=generic -march=x86-64 -g -O0 -fpre-include=/usr/include/finclude/math-vector-fortran.h
REM seed 394239023 -1893583363 1811491832 -655156974 1896847623 -2143242880 1477622346 -473886981 -1491104589 591827027 2075721938 -2020679267 -1009922751 299455633 -1481198300 1693184590 -312625030 291713461 -1942158374 -325815696 141333467 673773941 844672597 -586216298 1285391944 -584395630 -1795985209 -1784514813 1684110767 -1812470986 -1022636635 -1474756606 2004913653
REM
CELL 1.54180   50.00000   50.00000   50.00000   90.00000   90.00000   90.00000
LATT -1
SFAC C  
C      1  0.5810330000000  0.4947690000000  0.4108500000000 1.0
C      1  0.5307790000000  0.5233950000000  0.5631130000000 1.0
C      1  0.4538810000000  0.4697070000000  0.5323870000000 1.0
C      1  0.4868240000000  0.4604170000000  0.5122820000000 1.0
C      1  0.3992410000000  0.4957690000000  0.4500040000000 1.0
C      1  0.5123800000000  0.3998210000000  0.5090690000000 1.0
C      1  0.5791950000000  0.5327520000000  0.4385190000000 1.0
C      1  0.4255590000000  0.5638410000000  0.5148680000000 1.0
C      1  0.5625990000000  0.5768590000000  0.5398500000000 1.0
C      1  0.4265060000000  0.5905590000000  0.5358730000000 1.0
C      1  0.4858870000000  0.5139510000000  0.5860820000000 1.0
C      1  0.4838430000000  0.5082190000000  0.4211440000000 1.0
C      1  0.4743380000000  0.3685040000000  0.4873890000000 1.0
C      1  0.5098770000000  0.5703320000000  0.4904550000000 1.0
C      1  0.5060030000000  0.5177330000000  0.4965960000000 1.0
C      1  0.5036050000000  0.5917170000000  0.4411220000000 1.0
C      1  0.5215160000000  0.4205770000000  0.5514640000000 1.0
C      1  0.4845200000000  0.4932950000000  0.4902040000000 1.0
C      1  0.4511020000000  0.5540560000000  0.4030370000000 1.0
C      1  0.6172750000000  0.5154980000000  0.5382250000000 1.0
C      1  0.5455950000000  0.3921240000000  0.5095800000000 1.0
C      1  0.4527170000000  0.5814160000000  0.5043640000000 1.0
C      1  0.5888130000000  0.4831260000000  0.4621830000000 1.0
C      1  0.4091480000000  0.5223970000000  0.4596130000000 1.0
C      1  0.5348790000000  0.5111360000000  0.5928300000000 1.0
C      1  0.4582120000000  0.4153590000000  0.4999660000000 1.0
C      1  0.5248730000000  0.5427720000000  0.6020700000000 1.0
C      1  0.5073610000000  0.5143950000000  0.6087340000000 1.0
C      1  0.4516470000000  0.6008500000000  0.5392660000000 1.0
C      1  0.5058470000000  0.4341120000000  0.4360860000000 1.0
C      1  0.5320350000000  0.5466440000000  0.4877510000000 1.0
C      1  0.5371890000000  0.6046230000000  0.4960910000000 1.0
C      1  0.5114410000000  0.3910670000000  0.4644380000000 1.0
C      1  0.4067850000000  0.4932870000000  0.4213480000000 1.0
C      1  0.4284720000000  0.5290500000000  0.5724140000000 1.0
C      1  0.4686360000000  0.4585410000000  0.4535400000000 1.0
C      1  0.4636820000000  0.4626420000000  0.5703620000000 1.0
C      1  0.6047050000000  0.5278020000000  0.4973910000000 1.0
C      1  0.4518980000000  0.4892750000000  0.5578050000000 1.0
C      1  0.5317220000000  0.4913400000000  0.4556440000000 1.0
C      1  0.5205020000000  0.4566020000000  0.4151560000000 1.0
C      1  0.4888890000000  0.4791740000000  0.4504180000000 1.0
C      1  0.4057660000000  0.4191520000000  0.4906070000000 1.0
C      1  0.4915310000000  0.5881560000000  0.4101560000000 1.0
C      1  0.5597200000000  0.5559840000000  0.4464250000000 1.0
C      1  0.4789230000000  0.4626380000000  0.6618460000000 1.0
C      1  0.4067720000000  0.4675690000000  0.5639330000000 1.0
C      1  0.5425540000000  0.4485670000000  0.6018130000000 1.0
C      1  0.5510990000000  0.4445380000000  0.5697450000000 1.0
C      1  0.4691100000000  0.5612480000000  0.5690580000000 1.0
C      1  0.3995310000000  0.4782760000000  0.5376190000000 1.0
C      1  0.4686510000000  0.6001470000000  0.4239870000000 1.0
C      1  0.4697490000000  0.4451630000000  0.4230520000000 1.0
C      1  0.4092670000000  0.5169300000000  0.5408880000000 1.0
C      1  0.5070640000000  0.4689540000000  0.4883030000000 1.0
C      1  0.5610560000000  0.4162310000000  0.5275820000000 1.0
C      1  0.4937260000000  0.5526290000000  0.5916720000000 1.0
C      1  0.5996310000000  0.4970900000000  0.4912480000000 1.0
C      1  0.4728530000000  0.5909800000000  0.4551070000000 1.0
C      1  0.4542820000000  0.5294100000000  0.4700180000000 1.0
C      1  0.4170300000000  0.5619730000000  0.4839110000000 1.0
C      1  0.5173730000000  0.5602440000000  0.5220470000000 1.0
C      1  0.4317990000000  0.5643010000000  0.4537850000000 1.0
C      1  0.5071750000000  0.4988420000000  0.5642820000000 1.0
C      1  0.5150370000000  0.5789430000000  0.5710070000000 1.0
C      1  0.5186890000000  0.4546960000000  0.5716130000000 1.0
C      1  0.5299400000000  0.5636770000000  0.4072030000000 1.0
C      1  0.4476760000000  0.5403990000000  0.5231730000000 1.0
C      1  0.5945110000000  0.5004580000000  0.5247200000000 1.0
C      1  0.5574440000000  0.4283000000000  0.4798120000000 1.0
C      1  0.4122930000000  0.4852970000000  0.4741480000000 1.0
C      1  0.5148700000000  0.4648040000000  0.4476690000000 1.0
C      1  0.4144320000000  0.4275840000000  0.5353960000000 1.0
C      1  0.5612640000000  0.5552580000000  0.5136120000000 1.0
C      1  0.5843390000000  0.4746630000000  0.4291320000000 1.0
C      1  0.5757610000000  0.5363930000000  0.4893050000000 1.0
C      1  0.4653900000000  0.4392290000000  0.5232370000000 1.0
C      1  0.4712590000000  0.6031310000000  0.5142590000000 1.0
C      1  0.4334710000000  0.4684030000000  0.4775810000000 1.0
C      1  0.4706830000000  0.5584210000000  0.4917780000000 1.0
C      1  0.4767930000000  0.5085940000000  0.4620390000000 1.0
C      1  0.4888810000000  0.4134520000000  0.4572640000000 1.0
C      1  0.4749250000000  0.5820580000000  0.5480250000000 1.0
C      1  0.5366490000000  0.5671360000000  0.5862040000000 1.0
C      1  0.5557170000000  0.3860970000000  0.4843320000000 1.0
C      1  0.3991980000000  0.5450930000000  0.5255720000000 1.0
C      1  0.4319100000000  0.4207740000000  0.4790130000000 1.0
C      1  0.5728330000000  0.4049440000000  0.4506460000000 1.0
C      1  0.4395350000000  0.5444810000000  0.4310410000000 1.0
C      1  0.6362490000000  0.5282340000000  0.5495690000000 1.0
C      1  0.4265290000000  0.5314930000000  0.4821470000000 1.0
C      1  0.5454890000000  0.4797020000000  0.5874360000000 1.0
C      1  0.4293140000000  0.5159290000000  0.4331590000000 1.0
C      1  0.4874960000000  0.5380020000000  0.5406270000000 1.0
C      1  0.4055940000000  0.5816800000000  0.4610530000000 1.0
C      1  0.5658920000000  0.5153860000000  0.5218320000000 1.0
C      1  0.5039630000000  0.4028620000000  0.5387240000000 1.0
C      1  0.5022180000000  0.5661830000000  0.3975810000000 1.0
C      1  0.5009720000000  0.4856250000000  0.6208230000000 1.0
C      1  0.4604670000000  0.4180970000000  0.5494190000000 1.0
C      1  0.3909550000000  0.4640430000000  0.5119630000000 1.0
C      1  0.5277650000000  0.6101550000000  0.4458880000000 1.0
C      1  0.5939390000000  0.4449950000000  0.4981190000000 1.0
C      1  0.5671730000000  0.5189670000000  0.4157360000000 1.0
C      1  0.4403100000000  0.4667510000000  0.4384190000000 1.0
C      1  0.4763000000000  0.4901430000000  0.3965200000000 1.0
C      1  0.5441560000000  0.4690030000000  0.4045130000000 1.0
C      1  0.5400110000000  0.5284320000000  0.4432420000000 1.0
C      1  0.4218360000000  0.4971430000000  0.5645910000000 1.0
C      1  0.5747640000000  0.4410880000000  0.5463040000000 1.0
C      1  0.5332980000000  0.5662500000000  0.4338620000000 1.0
C      1  0.5140510000000  0.6076200000000  0.5349640000000 1.0
C      1  0.4650510000000  0.4589320000000  0.4859340000000 1.0
C      1  0.4023220000000  0.4957410000000  0.5019950000000 1.0
C      1  0.5344160000000  0.4790580000000  0.5319270000000 1.0
C      1  0.5869030000000  0.5170520000000  0.4635540000000 1.0
C      1  0.4906890000000  0.4625500000000  0.5617330000000 1.0
C      1  0.5035050000000  0.6011690000000  0.5032870000000 1.0
C      1  0.4270340000000  0.4796720000000  0.5189490000000 1.0
C      1  0.5172250000000  0.5055260000000  0.5262850000000 1.0
C      1  0.5366050000000  0.5322020000000  0.5178480000000 1.0
C      1  0.4191470000000  0.4692170000000  0.4159510000000 1.0
C      1  0.5585580000000  0.5270190000000  0.5505770000000 1.0
C      1  0.4650820000000  0.5589220000000  0.4582120000000 1.0
C      1  0.5110460000000  0.5632840000000  0.4582340000000 1.0
C      1  0.4475300000000  0.4401360000000  0.5673290000000 1.0
C      1  0.5428190000000  0.4944150000000  0.3959570000000 1.0
C      1  0.5026260000000  0.5313000000000  0.4655960000000 1.0
C      1  0.4851990000000  0.5661080000000  0.5216170000000 1.0
C      1  0.4760430000000  0.5010120000000  0.3713990000000 1.0
C      1  0.5343620000000  0.5020750000000  0.4862340000000 1.0
C      1  0.5794120000000  0.4195990000000  0.5023830000000 1.0
C      1  0.5605900000000  0.4887100000000  0.5034160000000 1.0
C      1  0.5432340000000  0.4316070000000  0.4491000000000 1.0
C      1  0.5117300000000  0.4788350000000  0.5914150000000 1.0
C      1  0.5729230000000  0.5498590000000  0.5567350000000 1.0
C      1  0.5108650000000  0.5110790000000  0.4414870000000 1.0
C      1  0.5001230000000  0.5964490000000  0.5564990000000 1.0
C      1  0.4504950000000  0.5388980000000  0.5552010000000 1.0
C      1  0.4908560000000  0.6111330000000  0.4735970000000 1.0
C      1  0.5566060000000  0.4744080000000  0.4578170000000 1.0
C      1  0.4376090000000  0.4116100000000  0.5271690000000 1.0
C      1  0.5664160000000  0.5802590000000  0.4631570000000 1.0
C      1  0.4911840000000  0.4741020000000  0.6417200000000 1.0
C      1  0.5547670000000  0.4613170000000  0.4853260000000 1.0
C      1  0.4635680000000  0.5376170000000  0.5928730000000 1.0
C      1  0.5019170000000  0.5355390000000  0.4118310000000 1.0
C      1  0.5492460000000  0.5269430000000  0.4718190000000 1.0
C      1  0.4833490000000  0.4019490000000  0.5575810000000 1.0
C      1  0.5202920000000  0.4246350000000  0.5852020000000 1.0
C      1  0.5270930000000  0.4246910000000  0.4964020000000 1.0
C      1  0.5838860000000  0.4737660000000  0.5430190000000 1.0
C      1  0.5403110000000  0.3990570000000  0.4586300000000 1.0
C      1  0.3989920000000  0.4363350000000  0.5125860000000 1.0
C      1  0.4255870000000  0.5185560000000  0.5117830000000 1.0
C      1  0.5997200000000  0.4519210000000  0.4702000000000 1.0
C      1  0.4940060000000  0.4059070000000  0.5830180000000 1.0
C      1  0.4855820000000  0.3988060000000  0.4877910000000 1.0
C      1  0.5361850000000  0.5859360000000  0.5244790000000 1.0
C      1  0.4768740000000  0.5297310000000  0.5094000000000 1.0
C      1  0.5335420000000  0.5226380000000  0.4110190000000 1.0
C      1  0.5542820000000  0.4741950000000  0.5549550000000 1.0
C      1  0.4951370000000  0.4820590000000  0.5371970000000 1.0
C      1  0.4337100000000  0.4424450000000  0.4618770000000 1.0
C      1  0.5829050000000  0.4648790000000  0.5129340000000 1.0
C      1  0.5308660000000  0.4561910000000  0.5089660000000 1.0
C      1  0.5456910000000  0.6030610000000  0.4647650000000 1.0
C      1  0.5092570000000  0.5465890000000  0.5622430000000 1.0
C      1  0.5571610000000  0.4544220000000  0.4319110000000 1.0
C      1  0.4559610000000  0.4975750000000  0.4375090000000 1.0
C      1  0.4706410000000  0.5136140000000  0.5577120000000 1.0
C      1  0.4786600000000  0.4172370000000  0.4261360000000 1.0
C      1  0.5607770000000  0.5722120000000  0.5738980000000 1.0
C      1  0.4732470000000  0.5462810000000  0.4268300000000 1.0
C      1  0.5598430000000  0.5792750000000  0.4930530000000 1.0
C      1  0.4195030000000  0.4421330000000  0.5607390000000 1.0
C      1  0.4570330000000  0.4860700000000  0.5042250000000 1.0
C      1  0.5214440000000  0.4438520000000  0.4721550000000 1.0
C      1  0.3842700000000  0.5232600000000  0.5105560000000 1.0
C      1  0.5375730000000  0.4339790000000  0.5338230000000 1.0
C      1  0.4666820000000  0.4646170000000  0.4032340000000 1.0
C      1  0.5843200000000  0.4301800000000  0.4590600000000 1.0
END
