TITL C-2847959-7740-13 1.34346238662677e-07 125000 -174.175465452237 0 0 30 (C1) n - 1
REM
REM in /home/bkarasulu/work/CARBON/AIRSS/Generating-Clusters/AIREBO/with-SteepDescent/Only-C1/SD-CG-opt/Try1-1.4A-POS3A/HFTN-CG
REM
REM
REM
REM
REM
REM ./C.cell (11c1c37f851c82e70ff6c80c92926a4b)
REM
REM compiler GCC version 9.2.1 20190827 (Red Hat 9.2.1-1)
REM options -cpp -mtune=generic -march=x86-64 -g -O0 -fpre-include=/usr/include/finclude/math-vector-fortran.h
REM seed 1886145391 -395046695 -679130551 1064788293 810266327 -1310971795 -2108674376 -2021758000 381642095 -1543468153 -1704853044 1265943337 -299779132 1971701884 -1147520122 -1012861342 1542458109 139054997 -1535679242 -833527185 -1154288060 2062686559 -1172972670 2111025028 -1607915284 -2122708005 -111197601 1913479315 -776573112 -170814648 1901524751 1778929667 1763589159
REM
CELL 1.54180   50.00000   50.00000   50.00000   90.00000   90.00000   90.00000
LATT -1
SFAC C  
C      1  0.4846400000000  0.5405660000000  0.4790830000000 1.0
C      1  0.4711990000000  0.4438750000000  0.4747460000000 1.0
C      1  0.4759120000000  0.5763530000000  0.5093130000000 1.0
C      1  0.5737950000000  0.4712420000000  0.5259680000000 1.0
C      1  0.4866080000000  0.5063210000000  0.4445520000000 1.0
C      1  0.5298420000000  0.4498140000000  0.5001450000000 1.0
C      1  0.4731790000000  0.4820240000000  0.4453720000000 1.0
C      1  0.4872940000000  0.4579910000000  0.4546170000000 1.0
C      1  0.4761050000000  0.4120120000000  0.5109070000000 1.0
C      1  0.4875330000000  0.5050630000000  0.5126510000000 1.0
C      1  0.5644550000000  0.4971310000000  0.5301380000000 1.0
C      1  0.4799240000000  0.5299760000000  0.5054930000000 1.0
C      1  0.5035410000000  0.4520850000000  0.5091840000000 1.0
C      1  0.4902080000000  0.5473770000000  0.5499140000000 1.0
C      1  0.4857150000000  0.5640910000000  0.5705840000000 1.0
C      1  0.4832880000000  0.4348580000000  0.4985750000000 1.0
C      1  0.5055840000000  0.5237800000000  0.5528530000000 1.0
C      1  0.4969370000000  0.4762850000000  0.5204250000000 1.0
C      1  0.4453040000000  0.4760610000000  0.4518880000000 1.0
C      1  0.5146220000000  0.5030090000000  0.5312840000000 1.0
C      1  0.5451660000000  0.4729620000000  0.4833100000000 1.0
C      1  0.4693410000000  0.6004960000000  0.5187870000000 1.0
C      1  0.4790490000000  0.5518260000000  0.5243620000000 1.0
C      1  0.4999510000000  0.5237230000000  0.4619810000000 1.0
C      1  0.5257890000000  0.5166460000000  0.4708320000000 1.0
C      1  0.5609650000000  0.4560060000000  0.5060910000000 1.0
C      1  0.5394670000000  0.5003020000000  0.4890300000000 1.0
C      1  0.4796520000000  0.5689410000000  0.4813650000000 1.0
C      1  0.4441500000000  0.4535740000000  0.4694110000000 1.0
C      1  0.5407850000000  0.5056090000000  0.5171400000000 1.0
END
