TITL C-2848497-6229-212 -0.000321698980983759 125000 -660.701560396665 0 0 122 (C1) n - 1
REM
REM in /home/bkarasulu/work/CARBON/AIRSS/Generating-Clusters/AIREBO/with-SteepDescent/Only-C1/SD-CG-opt/Try1-1.4A-POS3A/HFTN-CG
REM
REM
REM
REM
REM
REM ./C.cell (11c1c37f851c82e70ff6c80c92926a4b)
REM
REM compiler GCC version 9.2.1 20190827 (Red Hat 9.2.1-1)
REM options -cpp -mtune=generic -march=x86-64 -g -O0 -fpre-include=/usr/include/finclude/math-vector-fortran.h
REM seed -864253925 443634661 -1473753775 -1941585998 592317442 450494894 2130085430 1291147081 461145848 -1047893703 1601238936 -1579909584 -790633637 -1838485500 -1412574690 181807613 1348513785 1894742959 -1990818221 -1807785660 1357366384 878737817 1564481162 -1957879943 2025217529 -1219186646 -402460338 2142552106 1845483884 -1914370727 1078526410 2145406992 -475252778
REM
CELL 1.54180   50.00000   50.00000   50.00000   90.00000   90.00000   90.00000
LATT -1
SFAC C  
C      1  0.5722310000000  0.4135820000000  0.4722600000000 1.0
C      1  0.5593690000000  0.5737900000000  0.5121260000000 1.0
C      1  0.4270600000000  0.4906760000000  0.4890040000000 1.0
C      1  0.4849250000000  0.5873590000000  0.5432100000000 1.0
C      1  0.5295750000000  0.4312870000000  0.4271500000000 1.0
C      1  0.4615390000000  0.4832300000000  0.4436280000000 1.0
C      1  0.5733650000000  0.5016460000000  0.4908810000000 1.0
C      1  0.4504050000000  0.5202090000000  0.5502600000000 1.0
C      1  0.4886770000000  0.4920470000000  0.3760010000000 1.0
C      1  0.5268140000000  0.4973980000000  0.4331910000000 1.0
C      1  0.5302080000000  0.5060340000000  0.4659230000000 1.0
C      1  0.4590790000000  0.4764630000000  0.5450520000000 1.0
C      1  0.4276110000000  0.4359650000000  0.4883400000000 1.0
C      1  0.5371530000000  0.5448820000000  0.5767090000000 1.0
C      1  0.5097810000000  0.4972810000000  0.5144140000000 1.0
C      1  0.4434910000000  0.5353870000000  0.3873440000000 1.0
C      1  0.5016780000000  0.4444080000000  0.5070350000000 1.0
C      1  0.5751260000000  0.5162750000000  0.5495490000000 1.0
C      1  0.4887110000000  0.5496730000000  0.5720020000000 1.0
C      1  0.4384380000000  0.5864360000000  0.5014770000000 1.0
C      1  0.4078780000000  0.4750360000000  0.5274530000000 1.0
C      1  0.5518050000000  0.4560250000000  0.5735650000000 1.0
C      1  0.4967210000000  0.5798010000000  0.5668680000000 1.0
C      1  0.5497310000000  0.4645680000000  0.5196400000000 1.0
C      1  0.4444390000000  0.5090740000000  0.5238190000000 1.0
C      1  0.5052890000000  0.5465830000000  0.6217410000000 1.0
C      1  0.4750520000000  0.4951850000000  0.4947340000000 1.0
C      1  0.5030650000000  0.4755470000000  0.5742510000000 1.0
C      1  0.4285590000000  0.5173100000000  0.4728710000000 1.0
C      1  0.5007420000000  0.5020100000000  0.5530120000000 1.0
C      1  0.5214350000000  0.4897490000000  0.5979700000000 1.0
C      1  0.5595650000000  0.4255530000000  0.4433120000000 1.0
C      1  0.4878120000000  0.5139890000000  0.3937470000000 1.0
C      1  0.5577550000000  0.5866200000000  0.4528250000000 1.0
C      1  0.4987710000000  0.4749730000000  0.4931090000000 1.0
C      1  0.5038500000000  0.5868540000000  0.5178340000000 1.0
C      1  0.4454360000000  0.4765460000000  0.5138980000000 1.0
C      1  0.5186570000000  0.4619230000000  0.5307440000000 1.0
C      1  0.5668060000000  0.4375220000000  0.4957870000000 1.0
C      1  0.5479940000000  0.5396610000000  0.4446130000000 1.0
C      1  0.4952310000000  0.4857080000000  0.4379830000000 1.0
C      1  0.4854930000000  0.5178150000000  0.4435010000000 1.0
C      1  0.4420470000000  0.5597290000000  0.4896790000000 1.0
C      1  0.4219360000000  0.4522520000000  0.5101910000000 1.0
C      1  0.6029360000000  0.5251210000000  0.4783510000000 1.0
C      1  0.4383960000000  0.5539620000000  0.5843190000000 1.0
C      1  0.5703880000000  0.4370820000000  0.5683450000000 1.0
C      1  0.5277130000000  0.5397320000000  0.4694380000000 1.0
C      1  0.4760620000000  0.5582800000000  0.4885710000000 1.0
C      1  0.5406150000000  0.4526720000000  0.4511730000000 1.0
C      1  0.5084200000000  0.4728250000000  0.4634710000000 1.0
C      1  0.5457840000000  0.5053670000000  0.5553380000000 1.0
C      1  0.4834040000000  0.5382070000000  0.5150370000000 1.0
C      1  0.5208650000000  0.5594950000000  0.5177500000000 1.0
C      1  0.5303180000000  0.5138550000000  0.5844640000000 1.0
C      1  0.4975900000000  0.5332120000000  0.5452970000000 1.0
C      1  0.4538560000000  0.4776270000000  0.4747670000000 1.0
C      1  0.5777530000000  0.4461930000000  0.4643820000000 1.0
C      1  0.4904540000000  0.4147570000000  0.4947180000000 1.0
C      1  0.4590210000000  0.4305360000000  0.5406950000000 1.0
C      1  0.5225550000000  0.4463260000000  0.4793180000000 1.0
C      1  0.4931920000000  0.5203160000000  0.4807460000000 1.0
C      1  0.5669120000000  0.4714630000000  0.4934160000000 1.0
C      1  0.5095550000000  0.5396560000000  0.5928580000000 1.0
C      1  0.3789500000000  0.5426660000000  0.5160280000000 1.0
C      1  0.4689850000000  0.4513200000000  0.5156950000000 1.0
C      1  0.4834880000000  0.5876620000000  0.4952410000000 1.0
C      1  0.5689450000000  0.4217460000000  0.5457780000000 1.0
C      1  0.4586230000000  0.5185730000000  0.4646390000000 1.0
C      1  0.5455950000000  0.5877650000000  0.4776940000000 1.0
C      1  0.5369280000000  0.4769880000000  0.4824410000000 1.0
C      1  0.5384260000000  0.5578210000000  0.4905860000000 1.0
C      1  0.4000540000000  0.5288490000000  0.5068960000000 1.0
C      1  0.5349410000000  0.5949830000000  0.5067190000000 1.0
C      1  0.5508340000000  0.4317120000000  0.5230270000000 1.0
C      1  0.4951130000000  0.4679520000000  0.3873730000000 1.0
C      1  0.4434170000000  0.4433060000000  0.5608170000000 1.0
C      1  0.4345270000000  0.4632160000000  0.4035710000000 1.0
C      1  0.4457340000000  0.4460150000000  0.4691430000000 1.0
C      1  0.4572230000000  0.4991580000000  0.5696530000000 1.0
C      1  0.5894600000000  0.4736330000000  0.4570800000000 1.0
C      1  0.5045380000000  0.4187380000000  0.5479970000000 1.0
C      1  0.5329460000000  0.4749570000000  0.5580240000000 1.0
C      1  0.5718010000000  0.5605990000000  0.5332110000000 1.0
C      1  0.4618780000000  0.5222340000000  0.4027150000000 1.0
C      1  0.4363650000000  0.5857100000000  0.5297350000000 1.0
C      1  0.4556860000000  0.5138380000000  0.4310910000000 1.0
C      1  0.4812890000000  0.4954410000000  0.5284890000000 1.0
C      1  0.4934830000000  0.4616870000000  0.4145230000000 1.0
C      1  0.4797540000000  0.3974690000000  0.5137760000000 1.0
C      1  0.5558080000000  0.5609450000000  0.5560960000000 1.0
C      1  0.5038880000000  0.4425310000000  0.5661210000000 1.0
C      1  0.4973070000000  0.5489700000000  0.4653960000000 1.0
C      1  0.4486970000000  0.4611050000000  0.4266180000000 1.0
C      1  0.5921910000000  0.5250920000000  0.5056210000000 1.0
C      1  0.5576920000000  0.5110290000000  0.4374350000000 1.0
C      1  0.5118720000000  0.5166480000000  0.4094530000000 1.0
C      1  0.4876500000000  0.4583180000000  0.5417400000000 1.0
C      1  0.4762630000000  0.4225810000000  0.4346200000000 1.0
C      1  0.4717160000000  0.4763660000000  0.5829600000000 1.0
C      1  0.4563790000000  0.4523130000000  0.5850420000000 1.0
C      1  0.4560540000000  0.5488220000000  0.5625440000000 1.0
C      1  0.5214080000000  0.4227380000000  0.5243150000000 1.0
C      1  0.4928040000000  0.5474100000000  0.4354770000000 1.0
C      1  0.4782210000000  0.4092120000000  0.5399480000000 1.0
C      1  0.4209480000000  0.5400900000000  0.4882600000000 1.0
C      1  0.5440210000000  0.5144950000000  0.4958290000000 1.0
C      1  0.4583100000000  0.5241810000000  0.4982110000000 1.0
C      1  0.4538770000000  0.4380040000000  0.4431360000000 1.0
C      1  0.5839030000000  0.5071340000000  0.4589700000000 1.0
C      1  0.5621660000000  0.4779440000000  0.4438940000000 1.0
C      1  0.4053990000000  0.5004140000000  0.5116220000000 1.0
C      1  0.5554320000000  0.5643360000000  0.4366050000000 1.0
C      1  0.5398800000000  0.4951160000000  0.5242410000000 1.0
C      1  0.5145300000000  0.5284480000000  0.5054140000000 1.0
C      1  0.5325400000000  0.4661500000000  0.4210110000000 1.0
C      1  0.5839800000000  0.5350170000000  0.5298710000000 1.0
C      1  0.4606490000000  0.6028360000000  0.4929360000000 1.0
C      1  0.5259200000000  0.5493690000000  0.5464790000000 1.0
C      1  0.4989640000000  0.4357570000000  0.4242860000000 1.0
C      1  0.4584710000000  0.5760280000000  0.5440100000000 1.0
C      1  0.4269840000000  0.4658190000000  0.5487400000000 1.0
END
