TITL C-2848504-8560-523 0.00122064793486086 125000 -885.344451084851 0 0 163 (C1) n - 1
REM
REM in /home/bkarasulu/work/CARBON/AIRSS/Generating-Clusters/AIREBO/with-SteepDescent/Only-C1/SD-CG-opt/Try1-1.4A-POS3A/HFTN-CG
REM
REM
REM
REM
REM
REM ./C.cell (11c1c37f851c82e70ff6c80c92926a4b)
REM
REM compiler GCC version 9.2.1 20190827 (Red Hat 9.2.1-1)
REM options -cpp -mtune=generic -march=x86-64 -g -O0 -fpre-include=/usr/include/finclude/math-vector-fortran.h
REM seed 227901563 -1363545038 -1626713556 546901310 1147632237 -1906030311 1575273177 -1695998958 -958892254 77811481 1260522420 -1987963943 1869306584 628763485 558205069 -1709844865 -1007219908 -593372535 487686927 -1870006657 -668753471 -54280928 -672299286 -1961907933 -1249152002 882218007 -738548829 1102250968 -1639329075 -563740708 1220926279 -347996114 668379865
REM
CELL 1.54180   50.00000   50.00000   50.00000   90.00000   90.00000   90.00000
LATT -1
SFAC C  
C      1  0.4269710000000  0.4165850000000  0.4855000000000 1.0
C      1  0.4180090000000  0.3907030000000  0.4859360000000 1.0
C      1  0.4548950000000  0.5841380000000  0.4873110000000 1.0
C      1  0.4017440000000  0.5292000000000  0.4989250000000 1.0
C      1  0.5425590000000  0.4928130000000  0.5902260000000 1.0
C      1  0.5326880000000  0.5218030000000  0.4058170000000 1.0
C      1  0.4307810000000  0.5283570000000  0.4868530000000 1.0
C      1  0.4942370000000  0.5614470000000  0.4373010000000 1.0
C      1  0.5490640000000  0.5416860000000  0.4806910000000 1.0
C      1  0.5208990000000  0.6228800000000  0.4992840000000 1.0
C      1  0.5447480000000  0.3975520000000  0.5165830000000 1.0
C      1  0.4869290000000  0.5217470000000  0.3794300000000 1.0
C      1  0.5655850000000  0.5171180000000  0.4103350000000 1.0
C      1  0.4498800000000  0.5195880000000  0.5084960000000 1.0
C      1  0.5281990000000  0.5732050000000  0.5154610000000 1.0
C      1  0.4842250000000  0.4487920000000  0.5680290000000 1.0
C      1  0.4693120000000  0.4598940000000  0.4698950000000 1.0
C      1  0.5374860000000  0.4987290000000  0.5272340000000 1.0
C      1  0.5221150000000  0.4570460000000  0.4685850000000 1.0
C      1  0.5821730000000  0.4939280000000  0.5528540000000 1.0
C      1  0.5260630000000  0.3850980000000  0.5014660000000 1.0
C      1  0.5458620000000  0.5510200000000  0.4030570000000 1.0
C      1  0.5126430000000  0.5429670000000  0.5157700000000 1.0
C      1  0.4217480000000  0.4643870000000  0.5655730000000 1.0
C      1  0.4859340000000  0.5715380000000  0.5752430000000 1.0
C      1  0.5063340000000  0.5084850000000  0.4758430000000 1.0
C      1  0.4497880000000  0.4249500000000  0.5039600000000 1.0
C      1  0.4963960000000  0.4584290000000  0.4493900000000 1.0
C      1  0.5426440000000  0.5229930000000  0.6009800000000 1.0
C      1  0.4564040000000  0.5869240000000  0.5190780000000 1.0
C      1  0.5258350000000  0.5408890000000  0.5815570000000 1.0
C      1  0.4873950000000  0.5302320000000  0.4359890000000 1.0
C      1  0.4614410000000  0.4080680000000  0.5282230000000 1.0
C      1  0.5258120000000  0.4917780000000  0.4202140000000 1.0
C      1  0.5469520000000  0.4013940000000  0.4303210000000 1.0
C      1  0.4443620000000  0.5550990000000  0.4768910000000 1.0
C      1  0.4418100000000  0.4505560000000  0.5207490000000 1.0
C      1  0.4739450000000  0.4184340000000  0.5581120000000 1.0
C      1  0.4778000000000  0.4965300000000  0.3961140000000 1.0
C      1  0.5010990000000  0.5210510000000  0.4089210000000 1.0
C      1  0.5851380000000  0.5546470000000  0.4959550000000 1.0
C      1  0.4608990000000  0.4903310000000  0.5218750000000 1.0
C      1  0.4179590000000  0.5108820000000  0.4290490000000 1.0
C      1  0.4985910000000  0.5053310000000  0.6193220000000 1.0
C      1  0.4815430000000  0.5988240000000  0.5233450000000 1.0
C      1  0.5082750000000  0.5421890000000  0.4823080000000 1.0
C      1  0.5714740000000  0.4858580000000  0.5841040000000 1.0
C      1  0.3993990000000  0.4774960000000  0.5039320000000 1.0
C      1  0.4256870000000  0.4432160000000  0.5452720000000 1.0
C      1  0.4829750000000  0.4274500000000  0.4452840000000 1.0
C      1  0.4580150000000  0.4601100000000  0.4384450000000 1.0
C      1  0.4739580000000  0.5347560000000  0.5655960000000 1.0
C      1  0.4836600000000  0.5086600000000  0.5825320000000 1.0
C      1  0.5462280000000  0.4605040000000  0.5195630000000 1.0
C      1  0.5357450000000  0.4334590000000  0.4288050000000 1.0
C      1  0.5246500000000  0.5746210000000  0.5468440000000 1.0
C      1  0.5709620000000  0.4895870000000  0.4123540000000 1.0
C      1  0.4599980000000  0.5443870000000  0.6046880000000 1.0
C      1  0.5993540000000  0.5291950000000  0.4559270000000 1.0
C      1  0.5724040000000  0.4433730000000  0.4618610000000 1.0
C      1  0.4540090000000  0.5017940000000  0.4145320000000 1.0
C      1  0.5532100000000  0.4804960000000  0.4368970000000 1.0
C      1  0.5036340000000  0.4265230000000  0.5835630000000 1.0
C      1  0.4403200000000  0.4148820000000  0.5544820000000 1.0
C      1  0.5653600000000  0.5532160000000  0.5559610000000 1.0
C      1  0.4866520000000  0.5890930000000  0.4762220000000 1.0
C      1  0.3900330000000  0.5654870000000  0.4644300000000 1.0
C      1  0.5608700000000  0.4698480000000  0.5472550000000 1.0
C      1  0.4662110000000  0.5055260000000  0.4445550000000 1.0
C      1  0.4087010000000  0.4137760000000  0.5483620000000 1.0
C      1  0.5337180000000  0.4239540000000  0.5690580000000 1.0
C      1  0.5278400000000  0.5553310000000  0.4383890000000 1.0
C      1  0.4731830000000  0.5564200000000  0.4946270000000 1.0
C      1  0.4411750000000  0.4632700000000  0.5854870000000 1.0
C      1  0.4677520000000  0.4630340000000  0.5881140000000 1.0
C      1  0.4219580000000  0.4594120000000  0.4552110000000 1.0
C      1  0.5166700000000  0.4790950000000  0.6060260000000 1.0
C      1  0.5192920000000  0.4813120000000  0.4860220000000 1.0
C      1  0.4799500000000  0.4517310000000  0.4136450000000 1.0
C      1  0.4362510000000  0.5816700000000  0.4361400000000 1.0
C      1  0.5096060000000  0.4206020000000  0.5095170000000 1.0
C      1  0.4046120000000  0.4853960000000  0.5593790000000 1.0
C      1  0.5596780000000  0.4707550000000  0.4900670000000 1.0
C      1  0.5434640000000  0.5010410000000  0.4870430000000 1.0
C      1  0.5296110000000  0.4295710000000  0.4834850000000 1.0
C      1  0.5913740000000  0.4386880000000  0.5209340000000 1.0
C      1  0.5395790000000  0.4159420000000  0.4578160000000 1.0
C      1  0.4715010000000  0.4603130000000  0.5265720000000 1.0
C      1  0.5167430000000  0.4739560000000  0.5166130000000 1.0
C      1  0.5896310000000  0.5181390000000  0.5301560000000 1.0
C      1  0.4852490000000  0.4118910000000  0.4695080000000 1.0
C      1  0.5664770000000  0.5405240000000  0.5282820000000 1.0
C      1  0.4983590000000  0.4697320000000  0.5451770000000 1.0
C      1  0.3869770000000  0.5528690000000  0.4857110000000 1.0
C      1  0.5716050000000  0.5866430000000  0.4431070000000 1.0
C      1  0.4835540000000  0.4837410000000  0.5999810000000 1.0
C      1  0.5502530000000  0.4198360000000  0.5421170000000 1.0
C      1  0.5112600000000  0.5164190000000  0.5666510000000 1.0
C      1  0.5419110000000  0.5270430000000  0.5089220000000 1.0
C      1  0.5591620000000  0.5619640000000  0.4309160000000 1.0
C      1  0.4672570000000  0.5885240000000  0.4482960000000 1.0
C      1  0.5247220000000  0.4525820000000  0.5862690000000 1.0
C      1  0.4933770000000  0.4899100000000  0.4433180000000 1.0
C      1  0.4601410000000  0.4807910000000  0.4886310000000 1.0
C      1  0.5349330000000  0.4984710000000  0.5575750000000 1.0
C      1  0.5782860000000  0.4424060000000  0.4925990000000 1.0
C      1  0.5044850000000  0.3987800000000  0.4847280000000 1.0
C      1  0.5756710000000  0.5345660000000  0.4348780000000 1.0
C      1  0.4392140000000  0.5354370000000  0.5344230000000 1.0
C      1  0.5000360000000  0.5936260000000  0.4392210000000 1.0
C      1  0.4971790000000  0.5752980000000  0.5502330000000 1.0
C      1  0.4730540000000  0.4342040000000  0.4871350000000 1.0
C      1  0.6015380000000  0.5182490000000  0.4810260000000 1.0
C      1  0.4780370000000  0.5353810000000  0.4683320000000 1.0
C      1  0.4364470000000  0.5112160000000  0.4575840000000 1.0
C      1  0.5118950000000  0.4479340000000  0.4209990000000 1.0
C      1  0.4348660000000  0.5440550000000  0.4488980000000 1.0
C      1  0.4586710000000  0.4287770000000  0.4252510000000 1.0
C      1  0.5399200000000  0.5598440000000  0.5639900000000 1.0
C      1  0.5733420000000  0.4411170000000  0.5415790000000 1.0
C      1  0.5823090000000  0.4955710000000  0.4847480000000 1.0
C      1  0.4955330000000  0.4089010000000  0.5336200000000 1.0
C      1  0.5490710000000  0.4538360000000  0.4493390000000 1.0
C      1  0.4970380000000  0.5142020000000  0.5170850000000 1.0
C      1  0.5576350000000  0.5675990000000  0.5097100000000 1.0
C      1  0.6027150000000  0.4885940000000  0.5795250000000 1.0
C      1  0.6355340000000  0.5343280000000  0.5137960000000 1.0
C      1  0.3957610000000  0.5013160000000  0.4865950000000 1.0
C      1  0.4500750000000  0.5332860000000  0.4210170000000 1.0
C      1  0.6106900000000  0.5250580000000  0.5071400000000 1.0
C      1  0.4054310000000  0.5344900000000  0.4235540000000 1.0
C      1  0.4551030000000  0.5610010000000  0.5753220000000 1.0
C      1  0.4540560000000  0.5612250000000  0.5412300000000 1.0
C      1  0.5788350000000  0.5932550000000  0.4681560000000 1.0
C      1  0.4836290000000  0.5583430000000  0.5246340000000 1.0
C      1  0.4595510000000  0.5119980000000  0.5464750000000 1.0
C      1  0.5600780000000  0.5001340000000  0.4594210000000 1.0
C      1  0.4622970000000  0.5623430000000  0.4264200000000 1.0
C      1  0.5200620000000  0.5656530000000  0.4673700000000 1.0
C      1  0.5884150000000  0.5591010000000  0.5694350000000 1.0
C      1  0.4226670000000  0.4856440000000  0.4727020000000 1.0
C      1  0.5175960000000  0.5971840000000  0.4649460000000 1.0
C      1  0.5719430000000  0.5922170000000  0.4942490000000 1.0
C      1  0.5063070000000  0.5960380000000  0.5030850000000 1.0
C      1  0.4768230000000  0.5103040000000  0.4912750000000 1.0
C      1  0.5692430000000  0.4987090000000  0.5159820000000 1.0
C      1  0.5160050000000  0.4025260000000  0.5540970000000 1.0
C      1  0.4852960000000  0.4014300000000  0.5837630000000 1.0
C      1  0.5465120000000  0.5304680000000  0.4521610000000 1.0
C      1  0.4310760000000  0.4720470000000  0.5027160000000 1.0
C      1  0.5010470000000  0.4769700000000  0.4063050000000 1.0
C      1  0.4096350000000  0.5625890000000  0.4408960000000 1.0
C      1  0.5199050000000  0.5099130000000  0.4470910000000 1.0
C      1  0.4864650000000  0.5313030000000  0.6153330000000 1.0
C      1  0.4915970000000  0.5028120000000  0.5442060000000 1.0
C      1  0.4097670000000  0.5266450000000  0.5294860000000 1.0
C      1  0.4334980000000  0.4807680000000  0.4318290000000 1.0
C      1  0.4958780000000  0.4490260000000  0.5066470000000 1.0
C      1  0.5512200000000  0.4302320000000  0.5097290000000 1.0
C      1  0.4176760000000  0.4361900000000  0.4674390000000 1.0
C      1  0.3999890000000  0.5095550000000  0.5478020000000 1.0
C      1  0.5291810000000  0.4663850000000  0.5591530000000 1.0
C      1  0.4967100000000  0.5457970000000  0.5893610000000 1.0
END
