TITL C-2847955-7945-34 0.00104737414220918 125000 -833.203576890054 0 0 154 (C1) n - 1
REM
REM in /home/bkarasulu/work/CARBON/AIRSS/Generating-Clusters/AIREBO/with-SteepDescent/Only-C1/SD-CG-opt/Try1-1.4A-POS3A/HFTN-CG
REM
REM
REM
REM
REM
REM ./C.cell (11c1c37f851c82e70ff6c80c92926a4b)
REM
REM compiler GCC version 9.2.1 20190827 (Red Hat 9.2.1-1)
REM options -cpp -mtune=generic -march=x86-64 -g -O0 -fpre-include=/usr/include/finclude/math-vector-fortran.h
REM seed -2124542708 805056952 1847641478 1430039474 -100508118 1562194458 272573178 127256782 -1948378819 -1991277052 -1052199749 -1587023193 -62812223 1898391358 1968702116 937326292 1098998538 -293931737 812143745 -1588422046 -638353043 -990467709 1489714872 -1881142278 374395133 1935449475 -1519803303 1836762461 171147611 1766978155 855641175 -816810901 -1634886830
REM
CELL 1.54180   50.00000   50.00000   50.00000   90.00000   90.00000   90.00000
LATT -1
SFAC C  
C      1  0.4919850000000  0.5120660000000  0.4226630000000 1.0
C      1  0.5250380000000  0.4679840000000  0.4998540000000 1.0
C      1  0.4989990000000  0.4541240000000  0.4507500000000 1.0
C      1  0.5545310000000  0.4199090000000  0.4917490000000 1.0
C      1  0.4303400000000  0.5577490000000  0.5331480000000 1.0
C      1  0.5823870000000  0.4476650000000  0.5383090000000 1.0
C      1  0.5121930000000  0.4990970000000  0.5514700000000 1.0
C      1  0.6034200000000  0.5369870000000  0.5051940000000 1.0
C      1  0.4121700000000  0.4932840000000  0.5312500000000 1.0
C      1  0.4970950000000  0.5599270000000  0.4402960000000 1.0
C      1  0.5650410000000  0.4975720000000  0.5157660000000 1.0
C      1  0.4171300000000  0.4724660000000  0.4639500000000 1.0
C      1  0.6105240000000  0.4859490000000  0.4831910000000 1.0
C      1  0.5303560000000  0.4237190000000  0.4447310000000 1.0
C      1  0.5717360000000  0.4424820000000  0.5635130000000 1.0
C      1  0.5221110000000  0.5834950000000  0.4938820000000 1.0
C      1  0.5700500000000  0.5594080000000  0.4400510000000 1.0
C      1  0.4712520000000  0.5828350000000  0.4586450000000 1.0
C      1  0.4798620000000  0.4531550000000  0.4964580000000 1.0
C      1  0.5863830000000  0.5593170000000  0.4906720000000 1.0
C      1  0.4565800000000  0.4439630000000  0.4523900000000 1.0
C      1  0.5362940000000  0.5762430000000  0.5239900000000 1.0
C      1  0.4170600000000  0.5552130000000  0.4899480000000 1.0
C      1  0.5888660000000  0.5055620000000  0.4660800000000 1.0
C      1  0.4561120000000  0.5959690000000  0.5439800000000 1.0
C      1  0.5321040000000  0.5075630000000  0.4602430000000 1.0
C      1  0.5666100000000  0.5435220000000  0.5521920000000 1.0
C      1  0.4451520000000  0.3986990000000  0.4833100000000 1.0
C      1  0.4511670000000  0.5387330000000  0.4207980000000 1.0
C      1  0.5175390000000  0.4308010000000  0.5493640000000 1.0
C      1  0.4791450000000  0.4813630000000  0.4026110000000 1.0
C      1  0.4676480000000  0.4711530000000  0.5559960000000 1.0
C      1  0.4761080000000  0.6112250000000  0.4598980000000 1.0
C      1  0.4930200000000  0.5974060000000  0.5044720000000 1.0
C      1  0.4283210000000  0.4705400000000  0.5491600000000 1.0
C      1  0.4951500000000  0.5317590000000  0.4573010000000 1.0
C      1  0.4730490000000  0.3909320000000  0.5431730000000 1.0
C      1  0.5424620000000  0.4357580000000  0.4153230000000 1.0
C      1  0.4250100000000  0.5219010000000  0.5850020000000 1.0
C      1  0.4976090000000  0.5008450000000  0.5979440000000 1.0
C      1  0.5157570000000  0.4404480000000  0.5084810000000 1.0
C      1  0.5277620000000  0.5267300000000  0.5409990000000 1.0
C      1  0.5615010000000  0.5370520000000  0.4894390000000 1.0
C      1  0.4431960000000  0.5729750000000  0.5555990000000 1.0
C      1  0.5328420000000  0.4674940000000  0.4174200000000 1.0
C      1  0.4917200000000  0.4055340000000  0.4414890000000 1.0
C      1  0.4763570000000  0.4296960000000  0.4286970000000 1.0
C      1  0.4632740000000  0.4674790000000  0.5224630000000 1.0
C      1  0.5235580000000  0.5341060000000  0.4776520000000 1.0
C      1  0.5088260000000  0.4365100000000  0.4232240000000 1.0
C      1  0.5514870000000  0.4969460000000  0.5894780000000 1.0
C      1  0.4861420000000  0.5260390000000  0.4881280000000 1.0
C      1  0.4408310000000  0.4851510000000  0.5039690000000 1.0
C      1  0.5205910000000  0.5497640000000  0.5649870000000 1.0
C      1  0.4527920000000  0.4922320000000  0.4305670000000 1.0
C      1  0.5687020000000  0.5245380000000  0.5793740000000 1.0
C      1  0.5387520000000  0.4563800000000  0.4490700000000 1.0
C      1  0.5742270000000  0.5757180000000  0.4665990000000 1.0
C      1  0.5032570000000  0.5770100000000  0.5283440000000 1.0
C      1  0.5756580000000  0.4329780000000  0.5150380000000 1.0
C      1  0.4258630000000  0.5243410000000  0.5285980000000 1.0
C      1  0.4951650000000  0.5665030000000  0.5590440000000 1.0
C      1  0.4690670000000  0.5179440000000  0.5292940000000 1.0
C      1  0.5398540000000  0.4960680000000  0.4333770000000 1.0
C      1  0.4486260000000  0.5241030000000  0.4744430000000 1.0
C      1  0.4469480000000  0.5148220000000  0.5036600000000 1.0
C      1  0.5300730000000  0.4635490000000  0.5915260000000 1.0
C      1  0.4645120000000  0.5902930000000  0.5181490000000 1.0
C      1  0.4683430000000  0.5109830000000  0.4544130000000 1.0
C      1  0.4826960000000  0.4315950000000  0.4703160000000 1.0
C      1  0.4422580000000  0.5257580000000  0.5583540000000 1.0
C      1  0.3650740000000  0.4763890000000  0.4726920000000 1.0
C      1  0.4695830000000  0.5514270000000  0.5294410000000 1.0
C      1  0.5622610000000  0.4372500000000  0.4644840000000 1.0
C      1  0.5734030000000  0.4545460000000  0.4904730000000 1.0
C      1  0.4840210000000  0.5094290000000  0.5578120000000 1.0
C      1  0.5311040000000  0.4988780000000  0.5124040000000 1.0
C      1  0.4258680000000  0.4174550000000  0.4890260000000 1.0
C      1  0.5204840000000  0.4918750000000  0.5806190000000 1.0
C      1  0.6028560000000  0.4798380000000  0.4505660000000 1.0
C      1  0.4708130000000  0.5380080000000  0.5936290000000 1.0
C      1  0.5022880000000  0.4046220000000  0.5426860000000 1.0
C      1  0.4486320000000  0.4963680000000  0.5458240000000 1.0
C      1  0.4817130000000  0.4063290000000  0.5156090000000 1.0
C      1  0.4777750000000  0.4778950000000  0.4753920000000 1.0
C      1  0.4998170000000  0.5118250000000  0.5156910000000 1.0
C      1  0.3859830000000  0.4777460000000  0.4884300000000 1.0
C      1  0.5083500000000  0.4487800000000  0.5991140000000 1.0
C      1  0.5880800000000  0.4780720000000  0.5315620000000 1.0
C      1  0.4967980000000  0.5290200000000  0.6008820000000 1.0
C      1  0.5754060000000  0.5314500000000  0.4390090000000 1.0
C      1  0.5195880000000  0.4709020000000  0.4695770000000 1.0
C      1  0.4030560000000  0.5385870000000  0.5079140000000 1.0
C      1  0.5605350000000  0.4787930000000  0.5506690000000 1.0
C      1  0.5972930000000  0.4762030000000  0.4176530000000 1.0
C      1  0.4346920000000  0.4196110000000  0.5454990000000 1.0
C      1  0.4863710000000  0.6198720000000  0.4842310000000 1.0
C      1  0.5567240000000  0.5664520000000  0.5041660000000 1.0
C      1  0.5415410000000  0.5731350000000  0.4446450000000 1.0
C      1  0.4650360000000  0.4614780000000  0.4244730000000 1.0
C      1  0.4476410000000  0.5921810000000  0.4277850000000 1.0
C      1  0.4879580000000  0.4453130000000  0.5539180000000 1.0
C      1  0.4477270000000  0.3968690000000  0.5525830000000 1.0
C      1  0.4325570000000  0.5779180000000  0.4484960000000 1.0
C      1  0.4378510000000  0.4461100000000  0.5297830000000 1.0
C      1  0.5449050000000  0.5617250000000  0.5498220000000 1.0
C      1  0.5210940000000  0.5408380000000  0.5934260000000 1.0
C      1  0.4655380000000  0.5635930000000  0.4311900000000 1.0
C      1  0.4508530000000  0.5575510000000  0.4686810000000 1.0
C      1  0.5447680000000  0.5279990000000  0.6015890000000 1.0
C      1  0.5044390000000  0.4991580000000  0.4781730000000 1.0
C      1  0.5358490000000  0.5307970000000  0.5082110000000 1.0
C      1  0.4695530000000  0.4917580000000  0.5830030000000 1.0
C      1  0.5267910000000  0.5041680000000  0.4049110000000 1.0
C      1  0.4516340000000  0.5159320000000  0.5958990000000 1.0
C      1  0.4643570000000  0.5118980000000  0.4055480000000 1.0
C      1  0.4254910000000  0.5310560000000  0.4323240000000 1.0
C      1  0.4936070000000  0.4817760000000  0.5281480000000 1.0
C      1  0.4658000000000  0.5498490000000  0.5632010000000 1.0
C      1  0.4426430000000  0.5692670000000  0.5056720000000 1.0
C      1  0.5179560000000  0.5630520000000  0.4669670000000 1.0
C      1  0.5549160000000  0.4670330000000  0.5122080000000 1.0
C      1  0.4884030000000  0.4364090000000  0.5228440000000 1.0
C      1  0.5855200000000  0.5086840000000  0.4248520000000 1.0
C      1  0.4708830000000  0.4055180000000  0.4881490000000 1.0
C      1  0.5084070000000  0.4801040000000  0.3972030000000 1.0
C      1  0.5125330000000  0.5287760000000  0.4081210000000 1.0
C      1  0.5115940000000  0.4138240000000  0.4678460000000 1.0
C      1  0.4323400000000  0.4596470000000  0.5798350000000 1.0
C      1  0.4892620000000  0.4860940000000  0.4444530000000 1.0
C      1  0.4692540000000  0.5502650000000  0.4963440000000 1.0
C      1  0.4229850000000  0.5034630000000  0.4293580000000 1.0
C      1  0.5469030000000  0.5895190000000  0.4730230000000 1.0
C      1  0.4610210000000  0.6160760000000  0.4353480000000 1.0
C      1  0.5416090000000  0.4527720000000  0.5396380000000 1.0
C      1  0.5553660000000  0.5101850000000  0.5519990000000 1.0
C      1  0.5627200000000  0.4667150000000  0.5823770000000 1.0
C      1  0.5700140000000  0.4553360000000  0.4107360000000 1.0
C      1  0.4465670000000  0.4645120000000  0.4775620000000 1.0
C      1  0.5475900000000  0.4252400000000  0.5603610000000 1.0
C      1  0.5745560000000  0.4685060000000  0.4617980000000 1.0
C      1  0.4334700000000  0.4414860000000  0.4988840000000 1.0
C      1  0.6162610000000  0.4828740000000  0.5164330000000 1.0
C      1  0.4827900000000  0.4481780000000  0.5857260000000 1.0
C      1  0.5951990000000  0.5071310000000  0.5052950000000 1.0
C      1  0.5617070000000  0.5195780000000  0.4656290000000 1.0
C      1  0.4220240000000  0.5413790000000  0.4607010000000 1.0
C      1  0.5671900000000  0.4811410000000  0.4327080000000 1.0
C      1  0.5130280000000  0.5555040000000  0.4145940000000 1.0
C      1  0.5267560000000  0.4187630000000  0.4936840000000 1.0
C      1  0.5017950000000  0.5437160000000  0.5270790000000 1.0
C      1  0.4075830000000  0.4816960000000  0.5039630000000 1.0
C      1  0.4570100000000  0.4618380000000  0.5931810000000 1.0
C      1  0.4003440000000  0.5279120000000  0.5936650000000 1.0
END
