TITL C-2847952-8118-51 -0.00501813997006293 125000 -826.780544824003 0 0 157 (C1) n - 1
REM
REM in /home/bkarasulu/work/CARBON/AIRSS/Generating-Clusters/AIREBO/with-SteepDescent/Only-C1/SD-CG-opt/Try1-1.4A-POS3A/HFTN-CG
REM
REM
REM
REM
REM
REM ./C.cell (11c1c37f851c82e70ff6c80c92926a4b)
REM
REM compiler GCC version 9.2.1 20190827 (Red Hat 9.2.1-1)
REM options -cpp -mtune=generic -march=x86-64 -g -O0 -fpre-include=/usr/include/finclude/math-vector-fortran.h
REM seed 46188727 1100016460 1092188060 955038337 1270938707 -691384648 1581002317 1838255848 -1910395964 1246258988 -469524264 1206127559 -1259257990 -113777546 -944592445 343519928 630146864 -1547506603 -1005960782 1057792133 -1066340593 -1284615788 -1746416877 -649954165 -561517310 1613417239 1859853531 -1387584370 2087862345 -90178591 -1490346334 1781292685 703255749
REM
CELL 1.54180   50.00000   50.00000   50.00000   90.00000   90.00000   90.00000
LATT -1
SFAC C  
C      1  0.4029600000000  0.4520080000000  0.5115330000000 1.0
C      1  0.4404310000000  0.4635340000000  0.5330200000000 1.0
C      1  0.4627250000000  0.5016840000000  0.4925170000000 1.0
C      1  0.4560470000000  0.5522630000000  0.4170880000000 1.0
C      1  0.4729110000000  0.4847270000000  0.4163940000000 1.0
C      1  0.5036830000000  0.5169600000000  0.5237420000000 1.0
C      1  0.4966760000000  0.5999160000000  0.4768660000000 1.0
C      1  0.5361830000000  0.5147820000000  0.5335000000000 1.0
C      1  0.5576730000000  0.5410950000000  0.5376300000000 1.0
C      1  0.4691930000000  0.4692450000000  0.5157670000000 1.0
C      1  0.5373030000000  0.4887530000000  0.5553940000000 1.0
C      1  0.5822800000000  0.5280830000000  0.4703010000000 1.0
C      1  0.4423950000000  0.4886680000000  0.4215270000000 1.0
C      1  0.5133250000000  0.4003950000000  0.5507240000000 1.0
C      1  0.4992700000000  0.4680410000000  0.6031630000000 1.0
C      1  0.5115560000000  0.6114050000000  0.4990060000000 1.0
C      1  0.5780800000000  0.5057440000000  0.4200950000000 1.0
C      1  0.5799930000000  0.4573300000000  0.4092430000000 1.0
C      1  0.4638620000000  0.5341430000000  0.4935330000000 1.0
C      1  0.5329560000000  0.4509080000000  0.4869070000000 1.0
C      1  0.5546090000000  0.4613680000000  0.4315130000000 1.0
C      1  0.4453810000000  0.5007410000000  0.5196550000000 1.0
C      1  0.4832640000000  0.5624810000000  0.4121940000000 1.0
C      1  0.5726970000000  0.5827250000000  0.4895920000000 1.0
C      1  0.5315200000000  0.4470980000000  0.5865060000000 1.0
C      1  0.5343710000000  0.4805070000000  0.5131590000000 1.0
C      1  0.4890950000000  0.4998770000000  0.4494970000000 1.0
C      1  0.5567880000000  0.5435760000000  0.4548770000000 1.0
C      1  0.5197730000000  0.4475270000000  0.4587630000000 1.0
C      1  0.5787350000000  0.4589680000000  0.5389500000000 1.0
C      1  0.4959750000000  0.4360420000000  0.5461430000000 1.0
C      1  0.4680940000000  0.5400720000000  0.5909900000000 1.0
C      1  0.5716140000000  0.5656030000000  0.5566420000000 1.0
C      1  0.5141990000000  0.5941300000000  0.5495200000000 1.0
C      1  0.5332340000000  0.5381360000000  0.4788000000000 1.0
C      1  0.4941560000000  0.5022160000000  0.5964220000000 1.0
C      1  0.4403930000000  0.5470740000000  0.5145050000000 1.0
C      1  0.5773590000000  0.4721800000000  0.4551530000000 1.0
C      1  0.5952050000000  0.4954990000000  0.5003580000000 1.0
C      1  0.5133030000000  0.4160270000000  0.4500130000000 1.0
C      1  0.4635790000000  0.5981160000000  0.4856870000000 1.0
C      1  0.3992880000000  0.5032950000000  0.4600760000000 1.0
C      1  0.4304420000000  0.5024050000000  0.4472820000000 1.0
C      1  0.4375000000000  0.5663130000000  0.5594260000000 1.0
C      1  0.5287490000000  0.5396210000000  0.4128280000000 1.0
C      1  0.4614650000000  0.5397140000000  0.4624780000000 1.0
C      1  0.4285070000000  0.5707540000000  0.5358130000000 1.0
C      1  0.5552880000000  0.4162720000000  0.5027970000000 1.0
C      1  0.4772480000000  0.4712470000000  0.4535170000000 1.0
C      1  0.4886010000000  0.5677490000000  0.4802550000000 1.0
C      1  0.3947400000000  0.4515970000000  0.4495210000000 1.0
C      1  0.5498020000000  0.4787050000000  0.4833320000000 1.0
C      1  0.4040890000000  0.5439680000000  0.4672060000000 1.0
C      1  0.4864230000000  0.5098920000000  0.5668890000000 1.0
C      1  0.5115940000000  0.5134650000000  0.4698180000000 1.0
C      1  0.4913170000000  0.4871220000000  0.5344070000000 1.0
C      1  0.4506030000000  0.4600530000000  0.4380390000000 1.0
C      1  0.5063520000000  0.4183380000000  0.4825410000000 1.0
C      1  0.4443310000000  0.4761020000000  0.5604730000000 1.0
C      1  0.4668010000000  0.5943340000000  0.5426060000000 1.0
C      1  0.5624980000000  0.4132130000000  0.4508310000000 1.0
C      1  0.4883970000000  0.5869550000000  0.5593430000000 1.0
C      1  0.4275350000000  0.5190410000000  0.5001930000000 1.0
C      1  0.4870950000000  0.5643600000000  0.5771610000000 1.0
C      1  0.5655370000000  0.4935780000000  0.5169570000000 1.0
C      1  0.5545070000000  0.5136910000000  0.4428660000000 1.0
C      1  0.4559400000000  0.5127140000000  0.5929830000000 1.0
C      1  0.5929380000000  0.4744120000000  0.5599660000000 1.0
C      1  0.5412900000000  0.4325220000000  0.4384570000000 1.0
C      1  0.4678180000000  0.4404720000000  0.5741660000000 1.0
C      1  0.4761040000000  0.4102290000000  0.4915470000000 1.0
C      1  0.5344820000000  0.4853190000000  0.4210700000000 1.0
C      1  0.4935480000000  0.4480460000000  0.4907340000000 1.0
C      1  0.5809060000000  0.5242650000000  0.5552600000000 1.0
C      1  0.5762200000000  0.5311550000000  0.5844540000000 1.0
C      1  0.5006240000000  0.4441960000000  0.5789230000000 1.0
C      1  0.5851030000000  0.4242190000000  0.5085680000000 1.0
C      1  0.4743800000000  0.3934500000000  0.5167040000000 1.0
C      1  0.4579700000000  0.4229370000000  0.5550680000000 1.0
C      1  0.5674770000000  0.5586520000000  0.5102060000000 1.0
C      1  0.5527860000000  0.5278910000000  0.5928990000000 1.0
C      1  0.5800150000000  0.4689990000000  0.4889470000000 1.0
C      1  0.4636470000000  0.5820270000000  0.5150240000000 1.0
C      1  0.4962120000000  0.5036220000000  0.4948720000000 1.0
C      1  0.4598790000000  0.5419650000000  0.5591180000000 1.0
C      1  0.5807470000000  0.5327060000000  0.5001480000000 1.0
C      1  0.5100490000000  0.5547040000000  0.4602390000000 1.0
C      1  0.4645140000000  0.5790370000000  0.4589400000000 1.0
C      1  0.5504310000000  0.4600420000000  0.5426500000000 1.0
C      1  0.4818540000000  0.4051110000000  0.5449490000000 1.0
C      1  0.4864030000000  0.5408320000000  0.5419590000000 1.0
C      1  0.5370520000000  0.5664100000000  0.4973390000000 1.0
C      1  0.3891250000000  0.5316120000000  0.4457180000000 1.0
C      1  0.5251100000000  0.5912400000000  0.5172750000000 1.0
C      1  0.4620360000000  0.4434030000000  0.4128820000000 1.0
C      1  0.5392460000000  0.4997020000000  0.4644220000000 1.0
C      1  0.5328940000000  0.5621230000000  0.5367420000000 1.0
C      1  0.4872550000000  0.5444130000000  0.4407300000000 1.0
C      1  0.5334770000000  0.5602850000000  0.4362340000000 1.0
C      1  0.4167460000000  0.4824980000000  0.5176180000000 1.0
C      1  0.4805420000000  0.4173240000000  0.4433620000000 1.0
C      1  0.4388710000000  0.4417190000000  0.4610350000000 1.0
C      1  0.4115160000000  0.5077930000000  0.5397400000000 1.0
C      1  0.5441490000000  0.5833590000000  0.4705150000000 1.0
C      1  0.4827780000000  0.5127810000000  0.3928860000000 1.0
C      1  0.5236800000000  0.4916140000000  0.6053320000000 1.0
C      1  0.5262400000000  0.5600970000000  0.5839830000000 1.0
C      1  0.5012190000000  0.5272750000000  0.4162240000000 1.0
C      1  0.5699710000000  0.4963690000000  0.5496940000000 1.0
C      1  0.5344030000000  0.5777340000000  0.5646560000000 1.0
C      1  0.4326920000000  0.5302130000000  0.5430490000000 1.0
C      1  0.4722290000000  0.4707150000000  0.4821930000000 1.0
C      1  0.4689740000000  0.4838060000000  0.6053660000000 1.0
C      1  0.4414780000000  0.5074250000000  0.5667320000000 1.0
C      1  0.6082000000000  0.5267700000000  0.5413760000000 1.0
C      1  0.5151340000000  0.5472230000000  0.5132950000000 1.0
C      1  0.4350430000000  0.4174650000000  0.4883660000000 1.0
C      1  0.4897680000000  0.4797840000000  0.3884560000000 1.0
C      1  0.5179960000000  0.5870110000000  0.4531790000000 1.0
C      1  0.5737040000000  0.5728850000000  0.4581700000000 1.0
C      1  0.4196480000000  0.4272000000000  0.5157170000000 1.0
C      1  0.5257540000000  0.4066310000000  0.4996100000000 1.0
C      1  0.4456050000000  0.5670690000000  0.4381560000000 1.0
C      1  0.5889580000000  0.4805400000000  0.4257480000000 1.0
C      1  0.4114680000000  0.4718830000000  0.4646670000000 1.0
C      1  0.5873410000000  0.4507900000000  0.5130750000000 1.0
C      1  0.5493770000000  0.5198030000000  0.5025620000000 1.0
C      1  0.4320230000000  0.5565130000000  0.4653050000000 1.0
C      1  0.4837230000000  0.4323260000000  0.5162580000000 1.0
C      1  0.5368210000000  0.4399000000000  0.5188560000000 1.0
C      1  0.5058340000000  0.5369840000000  0.5696330000000 1.0
C      1  0.4266850000000  0.4563660000000  0.4890860000000 1.0
C      1  0.4602910000000  0.4175620000000  0.4655930000000 1.0
C      1  0.5477430000000  0.5147790000000  0.4104530000000 1.0
C      1  0.4561800000000  0.5204120000000  0.4126820000000 1.0
C      1  0.5313080000000  0.4143030000000  0.5405500000000 1.0
C      1  0.4893790000000  0.4513380000000  0.4037610000000 1.0
C      1  0.4735970000000  0.4728960000000  0.5734880000000 1.0
C      1  0.4336190000000  0.4941080000000  0.4778910000000 1.0
C      1  0.6063310000000  0.5217740000000  0.5145950000000 1.0
C      1  0.4541650000000  0.4418290000000  0.5024000000000 1.0
C      1  0.5109830000000  0.4602700000000  0.5274560000000 1.0
C      1  0.5286840000000  0.5141920000000  0.5805540000000 1.0
C      1  0.4932070000000  0.4478870000000  0.4374100000000 1.0
C      1  0.5106500000000  0.4762920000000  0.4908820000000 1.0
C      1  0.5918350000000  0.5002080000000  0.4675760000000 1.0
C      1  0.4640240000000  0.5053940000000  0.5423560000000 1.0
C      1  0.4373360000000  0.4324600000000  0.5383800000000 1.0
C      1  0.5697810000000  0.4108010000000  0.4744730000000 1.0
C      1  0.4416270000000  0.5718260000000  0.4912080000000 1.0
C      1  0.4000440000000  0.5290860000000  0.4905840000000 1.0
C      1  0.4616250000000  0.5142990000000  0.4450630000000 1.0
C      1  0.5052160000000  0.4815470000000  0.5641900000000 1.0
C      1  0.3966370000000  0.4954930000000  0.4931360000000 1.0
C      1  0.4827730000000  0.5545840000000  0.5110640000000 1.0
C      1  0.5405500000000  0.4734350000000  0.5855790000000 1.0
C      1  0.5047590000000  0.4952180000000  0.4220410000000 1.0
END
