TITL C-2848506-1665-262 0.00238852896587862 125000 -921.109989127319 0 0 167 (C1) n - 1
REM
REM in /home/bkarasulu/work/CARBON/AIRSS/Generating-Clusters/AIREBO/with-SteepDescent/Only-C1/SD-CG-opt/Try1-1.4A-POS3A/HFTN-CG
REM
REM
REM
REM
REM
REM ./C.cell (11c1c37f851c82e70ff6c80c92926a4b)
REM
REM compiler GCC version 9.2.1 20190827 (Red Hat 9.2.1-1)
REM options -cpp -mtune=generic -march=x86-64 -g -O0 -fpre-include=/usr/include/finclude/math-vector-fortran.h
REM seed 1591954428 924790006 -1206984907 2144488329 1024817240 464580309 -927688952 -883100923 1226162436 509080570 365200158 1223951144 -1354498872 -886837643 -2048193479 2066768612 -1585118344 -1321951584 -610789799 -601161636 -141222660 -1428334183 -1674502871 1458819647 -1027905809 2044168965 1898313133 1754066220 -774442145 -1378396552 -996624160 1517561350 338276814
REM
CELL 1.54180   50.00000   50.00000   50.00000   90.00000   90.00000   90.00000
LATT -1
SFAC C  
C      1  0.5100980000000  0.4579670000000  0.4421310000000 1.0
C      1  0.3998220000000  0.4962190000000  0.4740420000000 1.0
C      1  0.4730180000000  0.5394880000000  0.4641720000000 1.0
C      1  0.5154860000000  0.4170660000000  0.4404900000000 1.0
C      1  0.5122380000000  0.4467920000000  0.5853510000000 1.0
C      1  0.5315330000000  0.4259710000000  0.4799390000000 1.0
C      1  0.5593360000000  0.5023390000000  0.5200570000000 1.0
C      1  0.4972920000000  0.4585520000000  0.5580380000000 1.0
C      1  0.4936660000000  0.5305480000000  0.5848840000000 1.0
C      1  0.5449840000000  0.4664150000000  0.5505410000000 1.0
C      1  0.4598410000000  0.5323470000000  0.4049370000000 1.0
C      1  0.5572470000000  0.4368940000000  0.4255440000000 1.0
C      1  0.4484160000000  0.5491120000000  0.5314090000000 1.0
C      1  0.4223930000000  0.5412880000000  0.4950520000000 1.0
C      1  0.4735020000000  0.4353210000000  0.4768810000000 1.0
C      1  0.4138860000000  0.5717470000000  0.5351160000000 1.0
C      1  0.4760250000000  0.4911120000000  0.5790170000000 1.0
C      1  0.5695790000000  0.4983670000000  0.4232140000000 1.0
C      1  0.5878660000000  0.5043200000000  0.5055400000000 1.0
C      1  0.5369650000000  0.5278950000000  0.4972290000000 1.0
C      1  0.5448750000000  0.5448270000000  0.5877800000000 1.0
C      1  0.4276640000000  0.5012490000000  0.5356600000000 1.0
C      1  0.5086260000000  0.4201330000000  0.5888390000000 1.0
C      1  0.4202930000000  0.4262080000000  0.4961580000000 1.0
C      1  0.5016660000000  0.5687130000000  0.5241830000000 1.0
C      1  0.5749910000000  0.4149300000000  0.5411290000000 1.0
C      1  0.4897230000000  0.4318690000000  0.4499000000000 1.0
C      1  0.4667790000000  0.5747570000000  0.5069320000000 1.0
C      1  0.5693170000000  0.4951480000000  0.5838540000000 1.0
C      1  0.4823020000000  0.5751660000000  0.4286030000000 1.0
C      1  0.5735120000000  0.4696480000000  0.4366580000000 1.0
C      1  0.4662580000000  0.5421010000000  0.4969290000000 1.0
C      1  0.5522430000000  0.5818120000000  0.4777190000000 1.0
C      1  0.4028400000000  0.4699690000000  0.4565650000000 1.0
C      1  0.4934430000000  0.5386350000000  0.4005960000000 1.0
C      1  0.5530850000000  0.4693490000000  0.5210460000000 1.0
C      1  0.5945710000000  0.4907360000000  0.4530360000000 1.0
C      1  0.5915620000000  0.4389060000000  0.5353220000000 1.0
C      1  0.4339520000000  0.4171290000000  0.5144470000000 1.0
C      1  0.5588530000000  0.5950300000000  0.5037780000000 1.0
C      1  0.5279840000000  0.3899800000000  0.5572540000000 1.0
C      1  0.4697200000000  0.4766740000000  0.3973500000000 1.0
C      1  0.5734880000000  0.5634850000000  0.5484550000000 1.0
C      1  0.4891740000000  0.6105090000000  0.4684450000000 1.0
C      1  0.4622350000000  0.4844810000000  0.5249420000000 1.0
C      1  0.4291800000000  0.5752090000000  0.5590730000000 1.0
C      1  0.4261860000000  0.5144460000000  0.4850570000000 1.0
C      1  0.4892460000000  0.4518340000000  0.5021040000000 1.0
C      1  0.4269820000000  0.4713080000000  0.5496370000000 1.0
C      1  0.5879200000000  0.5141790000000  0.4735010000000 1.0
C      1  0.4432370000000  0.4421190000000  0.4361730000000 1.0
C      1  0.5200240000000  0.4896890000000  0.4349670000000 1.0
C      1  0.5465640000000  0.4412320000000  0.5063450000000 1.0
C      1  0.5342520000000  0.5654950000000  0.5170910000000 1.0
C      1  0.5230230000000  0.4471190000000  0.5473830000000 1.0
C      1  0.5300200000000  0.4255980000000  0.5286270000000 1.0
C      1  0.4759170000000  0.5505650000000  0.5501340000000 1.0
C      1  0.5189820000000  0.5928680000000  0.5039060000000 1.0
C      1  0.5175610000000  0.3779840000000  0.4730830000000 1.0
C      1  0.5028560000000  0.5234090000000  0.4671020000000 1.0
C      1  0.4629450000000  0.5276440000000  0.5704640000000 1.0
C      1  0.4631520000000  0.4208960000000  0.5285520000000 1.0
C      1  0.4441400000000  0.5573250000000  0.4617080000000 1.0
C      1  0.5567960000000  0.5488000000000  0.4828360000000 1.0
C      1  0.5290670000000  0.5148690000000  0.4306380000000 1.0
C      1  0.5248910000000  0.5264520000000  0.5901170000000 1.0
C      1  0.4782380000000  0.5888790000000  0.5351470000000 1.0
C      1  0.5042290000000  0.4605050000000  0.6219970000000 1.0
C      1  0.5330130000000  0.4942860000000  0.5489890000000 1.0
C      1  0.5177460000000  0.5536740000000  0.4897940000000 1.0
C      1  0.4967770000000  0.5623300000000  0.4725390000000 1.0
C      1  0.5671470000000  0.5191480000000  0.4469340000000 1.0
C      1  0.4681500000000  0.4450960000000  0.5599700000000 1.0
C      1  0.4206140000000  0.5439910000000  0.4552320000000 1.0
C      1  0.5868430000000  0.5422300000000  0.5251850000000 1.0
C      1  0.4194370000000  0.5561200000000  0.5782150000000 1.0
C      1  0.4625630000000  0.4873310000000  0.4693200000000 1.0
C      1  0.3941460000000  0.5034960000000  0.5090870000000 1.0
C      1  0.3972840000000  0.4717950000000  0.5051620000000 1.0
C      1  0.5609520000000  0.5434690000000  0.5647130000000 1.0
C      1  0.4953560000000  0.5048290000000  0.5159930000000 1.0
C      1  0.4287860000000  0.4469690000000  0.5534340000000 1.0
C      1  0.4599080000000  0.4954480000000  0.4202140000000 1.0
C      1  0.4700360000000  0.4626950000000  0.5866890000000 1.0
C      1  0.5369900000000  0.5885960000000  0.4524360000000 1.0
C      1  0.5830040000000  0.5520800000000  0.4628550000000 1.0
C      1  0.5057310000000  0.5986870000000  0.5503500000000 1.0
C      1  0.4688220000000  0.4843290000000  0.3710620000000 1.0
C      1  0.5076600000000  0.4966520000000  0.5691100000000 1.0
C      1  0.5137120000000  0.4553220000000  0.4084140000000 1.0
C      1  0.5097480000000  0.5827640000000  0.5724090000000 1.0
C      1  0.5301020000000  0.4596530000000  0.4856330000000 1.0
C      1  0.4115550000000  0.4515080000000  0.4336850000000 1.0
C      1  0.3876560000000  0.5250770000000  0.4836200000000 1.0
C      1  0.5660520000000  0.4583250000000  0.5692060000000 1.0
C      1  0.5322110000000  0.4022290000000  0.4614780000000 1.0
C      1  0.5623000000000  0.5512110000000  0.4391280000000 1.0
C      1  0.4281180000000  0.5150570000000  0.4522330000000 1.0
C      1  0.4898560000000  0.5208020000000  0.4269040000000 1.0
C      1  0.5672150000000  0.5626900000000  0.5092160000000 1.0
C      1  0.4379330000000  0.5333750000000  0.5893200000000 1.0
C      1  0.5272810000000  0.5449290000000  0.5432570000000 1.0
C      1  0.3944350000000  0.5456460000000  0.4668850000000 1.0
C      1  0.5412480000000  0.5677970000000  0.4319010000000 1.0
C      1  0.4196420000000  0.4906410000000  0.4353990000000 1.0
C      1  0.5923150000000  0.4594320000000  0.5555880000000 1.0
C      1  0.4742010000000  0.5116620000000  0.6051290000000 1.0
C      1  0.5294530000000  0.4670310000000  0.6033380000000 1.0
C      1  0.4704740000000  0.4367940000000  0.4255430000000 1.0
C      1  0.5933270000000  0.5114830000000  0.5383640000000 1.0
C      1  0.4520220000000  0.4958270000000  0.4969720000000 1.0
C      1  0.5262240000000  0.5042210000000  0.5178490000000 1.0
C      1  0.4573940000000  0.5781990000000  0.5572180000000 1.0
C      1  0.5220100000000  0.5563320000000  0.4062290000000 1.0
C      1  0.4900660000000  0.5836540000000  0.4538770000000 1.0
C      1  0.5344660000000  0.4765290000000  0.3959950000000 1.0
C      1  0.5483410000000  0.5228990000000  0.5449030000000 1.0
C      1  0.4879750000000  0.5376810000000  0.5210530000000 1.0
C      1  0.5580540000000  0.3953880000000  0.4523550000000 1.0
C      1  0.5292250000000  0.4305530000000  0.4202130000000 1.0
C      1  0.4980840000000  0.5778240000000  0.4066180000000 1.0
C      1  0.4144460000000  0.4547260000000  0.4834110000000 1.0
C      1  0.4588460000000  0.5120390000000  0.4499340000000 1.0
C      1  0.5353780000000  0.4964610000000  0.5888020000000 1.0
C      1  0.4408030000000  0.5803370000000  0.4775950000000 1.0
C      1  0.5946850000000  0.4502040000000  0.4783760000000 1.0
C      1  0.5284090000000  0.6012330000000  0.5336590000000 1.0
C      1  0.4332020000000  0.5698540000000  0.5091660000000 1.0
C      1  0.4797390000000  0.4132080000000  0.5019790000000 1.0
C      1  0.5435760000000  0.4583190000000  0.4481320000000 1.0
C      1  0.5267340000000  0.5017790000000  0.4780070000000 1.0
C      1  0.4335230000000  0.5122680000000  0.4127410000000 1.0
C      1  0.4878160000000  0.4898900000000  0.4337990000000 1.0
C      1  0.4913450000000  0.4772450000000  0.4638830000000 1.0
C      1  0.5473870000000  0.4057560000000  0.5425300000000 1.0
C      1  0.5099930000000  0.4256370000000  0.5040960000000 1.0
C      1  0.5346790000000  0.5268460000000  0.4044790000000 1.0
C      1  0.5047360000000  0.4808250000000  0.4936520000000 1.0
C      1  0.4718490000000  0.4540990000000  0.5275140000000 1.0
C      1  0.4420750000000  0.4723200000000  0.4502140000000 1.0
C      1  0.5753470000000  0.4745670000000  0.4961830000000 1.0
C      1  0.5955940000000  0.5410710000000  0.4922470000000 1.0
C      1  0.5925890000000  0.4484070000000  0.5094320000000 1.0
C      1  0.5522710000000  0.5816950000000  0.5410030000000 1.0
C      1  0.3982810000000  0.5180670000000  0.5388410000000 1.0
C      1  0.5176740000000  0.6016890000000  0.4761200000000 1.0
C      1  0.4484000000000  0.4197850000000  0.5591740000000 1.0
C      1  0.5054560000000  0.3567600000000  0.4804640000000 1.0
C      1  0.5955800000000  0.4509820000000  0.4518890000000 1.0
C      1  0.4789040000000  0.4052120000000  0.5554240000000 1.0
C      1  0.5033850000000  0.4011830000000  0.5681360000000 1.0
C      1  0.5604760000000  0.4667930000000  0.5967770000000 1.0
C      1  0.4705340000000  0.5484110000000  0.4314550000000 1.0
C      1  0.5508660000000  0.4999690000000  0.4008800000000 1.0
C      1  0.5357600000000  0.5271670000000  0.4572610000000 1.0
C      1  0.3955350000000  0.5511220000000  0.5362880000000 1.0
C      1  0.4801170000000  0.4549020000000  0.6103480000000 1.0
C      1  0.5063800000000  0.5534500000000  0.5641660000000 1.0
C      1  0.5519740000000  0.4796820000000  0.4724530000000 1.0
C      1  0.4913100000000  0.4856140000000  0.5425340000000 1.0
C      1  0.4177080000000  0.5255770000000  0.5650500000000 1.0
C      1  0.4657130000000  0.5977940000000  0.4822160000000 1.0
C      1  0.4825370000000  0.4534370000000  0.4059320000000 1.0
C      1  0.4441850000000  0.4448260000000  0.4701040000000 1.0
C      1  0.4562100000000  0.5005450000000  0.5541400000000 1.0
C      1  0.5881850000000  0.4915840000000  0.5599370000000 1.0
C      1  0.4483990000000  0.5212510000000  0.5175590000000 1.0
END
