TITL C-2848499-1157-384 0.29264641833239 125000 -63.7330906387466 0 0 13 (C1) n - 1
REM
REM in /home/bkarasulu/work/CARBON/AIRSS/Generating-Clusters/AIREBO/with-SteepDescent/Only-C1/SD-CG-opt/Try1-1.4A-POS3A/HFTN-CG
REM
REM
REM
REM
REM
REM ./C.cell (11c1c37f851c82e70ff6c80c92926a4b)
REM
REM compiler GCC version 9.2.1 20190827 (Red Hat 9.2.1-1)
REM options -cpp -mtune=generic -march=x86-64 -g -O0 -fpre-include=/usr/include/finclude/math-vector-fortran.h
REM seed 404698971 -527135840 228892433 -1790999249 -1768434223 2102538554 -881921828 853082867 1401506847 1648606496 581143047 -510143270 977446311 -66675879 -234872581 -1272202500 42140436 1606937408 2043121626 -204922695 1362018935 285125884 -405426186 633736829 -395967409 2083300247 1866234457 1029070694 -503825489 -1209991608 -2082371165 491468557 293994953
REM
CELL 1.54180   50.00000   50.00000   50.00000   90.00000   90.00000   90.00000
LATT -1
SFAC C  
C      1  0.5374530000000  0.4473800000000  0.5723390000000 1.0
C      1  0.5226300000000  0.5660570000000  0.4378350000000 1.0
C      1  0.5169350000000  0.5980470000000  0.4325290000000 1.0
C      1  0.4924400000000  0.5794050000000  0.4442090000000 1.0
C      1  0.4906860000000  0.5107810000000  0.4909290000000 1.0
C      1  0.4830160000000  0.4694540000000  0.5235810000000 1.0
C      1  0.5018230000000  0.5515720000000  0.4582810000000 1.0
C      1  0.5173140000000  0.4441860000000  0.5569860000000 1.0
C      1  0.4862600000000  0.4894600000000  0.5062730000000 1.0
C      1  0.4654030000000  0.4549300000000  0.5450650000000 1.0
C      1  0.4950730000000  0.4173320000000  0.5218600000000 1.0
C      1  0.4952470000000  0.4409750000000  0.5364640000000 1.0
C      1  0.4957190000000  0.5304210000000  0.4736490000000 1.0
END
