TITL C-2847957-7266-459 0.0013697367449662 125000 -542.16377828702 0 0 103 (C1) n - 1
REM
REM in /home/bkarasulu/work/CARBON/AIRSS/Generating-Clusters/AIREBO/with-SteepDescent/Only-C1/SD-CG-opt/Try1-1.4A-POS3A/HFTN-CG
REM
REM
REM
REM
REM
REM ./C.cell (11c1c37f851c82e70ff6c80c92926a4b)
REM
REM compiler GCC version 9.2.1 20190827 (Red Hat 9.2.1-1)
REM options -cpp -mtune=generic -march=x86-64 -g -O0 -fpre-include=/usr/include/finclude/math-vector-fortran.h
REM seed 551373767 -648791605 1847127225 -1207011940 -1316001626 1593600882 233912159 950730041 -1394416499 -161156771 -995931385 94840468 -2092837762 -838540896 1047964723 1792254232 1065404287 -596252040 -358807194 1532399688 1904113837 -654480851 1600632467 227012951 1133699350 -342327832 -1332592727 -341106080 -1972960817 -1960048845 1276946067 -487402395 118751718
REM
CELL 1.54180   50.00000   50.00000   50.00000   90.00000   90.00000   90.00000
LATT -1
SFAC C  
C      1  0.4118540000000  0.4990850000000  0.5186270000000 1.0
C      1  0.4301890000000  0.4456180000000  0.4651000000000 1.0
C      1  0.4843850000000  0.5501730000000  0.5268170000000 1.0
C      1  0.4888270000000  0.4758490000000  0.5967220000000 1.0
C      1  0.5486470000000  0.4802010000000  0.5761810000000 1.0
C      1  0.4717050000000  0.5385360000000  0.4745790000000 1.0
C      1  0.4893430000000  0.4946190000000  0.5422930000000 1.0
C      1  0.5257790000000  0.5101360000000  0.5099010000000 1.0
C      1  0.5201990000000  0.5823810000000  0.5442140000000 1.0
C      1  0.4747280000000  0.5096720000000  0.5155210000000 1.0
C      1  0.4380660000000  0.5711780000000  0.5334680000000 1.0
C      1  0.4823000000000  0.5440500000000  0.5777470000000 1.0
C      1  0.4217570000000  0.4558930000000  0.4924730000000 1.0
C      1  0.5010350000000  0.5830100000000  0.4328450000000 1.0
C      1  0.4495780000000  0.5371690000000  0.4496140000000 1.0
C      1  0.5168170000000  0.5210340000000  0.5542080000000 1.0
C      1  0.4640310000000  0.5748650000000  0.5202350000000 1.0
C      1  0.4871720000000  0.5101120000000  0.4703960000000 1.0
C      1  0.4696720000000  0.4480720000000  0.4303150000000 1.0
C      1  0.4835960000000  0.5271880000000  0.5502190000000 1.0
C      1  0.5962360000000  0.4696010000000  0.4823120000000 1.0
C      1  0.4733450000000  0.4636580000000  0.4954410000000 1.0
C      1  0.5745470000000  0.4499260000000  0.4938150000000 1.0
C      1  0.4903370000000  0.4233470000000  0.5277910000000 1.0
C      1  0.5022740000000  0.4617220000000  0.4679030000000 1.0
C      1  0.5046480000000  0.4863830000000  0.4846830000000 1.0
C      1  0.4438630000000  0.4846480000000  0.5531170000000 1.0
C      1  0.5708030000000  0.4725600000000  0.5190210000000 1.0
C      1  0.5614530000000  0.4278780000000  0.4776150000000 1.0
C      1  0.4586370000000  0.5133730000000  0.4309580000000 1.0
C      1  0.4724050000000  0.4635520000000  0.6217490000000 1.0
C      1  0.5714030000000  0.5446950000000  0.5343340000000 1.0
C      1  0.5007380000000  0.5777750000000  0.5233800000000 1.0
C      1  0.4652270000000  0.4565330000000  0.5912000000000 1.0
C      1  0.5746000000000  0.5026550000000  0.4561820000000 1.0
C      1  0.5098030000000  0.5458680000000  0.5847670000000 1.0
C      1  0.4422730000000  0.4923860000000  0.4459880000000 1.0
C      1  0.5446690000000  0.4645580000000  0.4995410000000 1.0
C      1  0.5255500000000  0.5632990000000  0.5701490000000 1.0
C      1  0.5503710000000  0.4975470000000  0.5297250000000 1.0
C      1  0.4976360000000  0.4771970000000  0.5150170000000 1.0
C      1  0.4859840000000  0.5678890000000  0.4770210000000 1.0
C      1  0.5863390000000  0.4948730000000  0.4795930000000 1.0
C      1  0.4605820000000  0.4563670000000  0.5627910000000 1.0
C      1  0.4858400000000  0.4468800000000  0.5485190000000 1.0
C      1  0.5341190000000  0.4254390000000  0.4834200000000 1.0
C      1  0.4096050000000  0.4797950000000  0.4977520000000 1.0
C      1  0.4665860000000  0.5649380000000  0.4420390000000 1.0
C      1  0.4391730000000  0.4553570000000  0.5383280000000 1.0
C      1  0.5334320000000  0.5337660000000  0.5302750000000 1.0
C      1  0.5002680000000  0.4405020000000  0.4342350000000 1.0
C      1  0.4129720000000  0.4892030000000  0.5444700000000 1.0
C      1  0.4618080000000  0.5816240000000  0.4918190000000 1.0
C      1  0.5332870000000  0.4428370000000  0.5612110000000 1.0
C      1  0.4975240000000  0.5886310000000  0.4570910000000 1.0
C      1  0.4907470000000  0.5091930000000  0.4384010000000 1.0
C      1  0.5719220000000  0.5511550000000  0.4524760000000 1.0
C      1  0.5272860000000  0.4886720000000  0.5530760000000 1.0
C      1  0.4415320000000  0.5279160000000  0.4876300000000 1.0
C      1  0.5485410000000  0.4910800000000  0.4156710000000 1.0
C      1  0.5654010000000  0.5202370000000  0.5501160000000 1.0
C      1  0.5490130000000  0.5250480000000  0.4814120000000 1.0
C      1  0.5712040000000  0.5365690000000  0.5049630000000 1.0
C      1  0.4937260000000  0.4365390000000  0.4977220000000 1.0
C      1  0.5222700000000  0.5412270000000  0.4695620000000 1.0
C      1  0.4456510000000  0.4504960000000  0.5103560000000 1.0
C      1  0.5153090000000  0.4604530000000  0.5383440000000 1.0
C      1  0.4721550000000  0.5352050000000  0.4102510000000 1.0
C      1  0.4637450000000  0.4230510000000  0.5063550000000 1.0
C      1  0.4557920000000  0.4261840000000  0.4762110000000 1.0
C      1  0.4476160000000  0.4262610000000  0.4431560000000 1.0
C      1  0.4268460000000  0.5519100000000  0.4701610000000 1.0
C      1  0.5650370000000  0.5266170000000  0.4424760000000 1.0
C      1  0.4480670000000  0.5734810000000  0.4660050000000 1.0
C      1  0.4534790000000  0.5118610000000  0.5402080000000 1.0
C      1  0.5000710000000  0.5274850000000  0.5093720000000 1.0
C      1  0.5606240000000  0.5570060000000  0.4811740000000 1.0
C      1  0.4318400000000  0.5240370000000  0.5169120000000 1.0
C      1  0.5376660000000  0.5206150000000  0.4285630000000 1.0
C      1  0.5182830000000  0.4324560000000  0.4619280000000 1.0
C      1  0.5446980000000  0.5608300000000  0.5421110000000 1.0
C      1  0.5241490000000  0.4405430000000  0.5122090000000 1.0
C      1  0.5432130000000  0.4915500000000  0.4492740000000 1.0
C      1  0.4939910000000  0.5534520000000  0.4255120000000 1.0
C      1  0.5208770000000  0.4118120000000  0.5308520000000 1.0
C      1  0.4722620000000  0.4521690000000  0.4634500000000 1.0
C      1  0.4228700000000  0.5513380000000  0.5291120000000 1.0
C      1  0.4399500000000  0.4999630000000  0.4730730000000 1.0
C      1  0.4420850000000  0.4648940000000  0.4409120000000 1.0
C      1  0.4660090000000  0.4947610000000  0.4901550000000 1.0
C      1  0.5478810000000  0.4446100000000  0.4345890000000 1.0
C      1  0.5735980000000  0.5051150000000  0.5060540000000 1.0
C      1  0.5371600000000  0.4931920000000  0.4827020000000 1.0
C      1  0.5331090000000  0.4156640000000  0.5551110000000 1.0
C      1  0.5020630000000  0.4866780000000  0.4249090000000 1.0
C      1  0.5374260000000  0.5755990000000  0.4899960000000 1.0
C      1  0.5010160000000  0.4906520000000  0.5745970000000 1.0
C      1  0.5125940000000  0.5332130000000  0.4407810000000 1.0
C      1  0.5197120000000  0.5149150000000  0.5895620000000 1.0
C      1  0.5224470000000  0.4659570000000  0.4408600000000 1.0
C      1  0.5093440000000  0.5575430000000  0.4964590000000 1.0
C      1  0.5462100000000  0.5248470000000  0.5708880000000 1.0
C      1  0.5654980000000  0.4298510000000  0.4496020000000 1.0
END
