TITL C-2847948-6138-24 0.00121696534667432 125000 -704.082807842111 0 0 130 (C1) n - 1
REM
REM in /home/bkarasulu/work/CARBON/AIRSS/Generating-Clusters/AIREBO/with-SteepDescent/Only-C1/SD-CG-opt/Try1-1.4A-POS3A/HFTN-CG
REM
REM
REM
REM
REM
REM ./C.cell (11c1c37f851c82e70ff6c80c92926a4b)
REM
REM compiler GCC version 9.2.1 20190827 (Red Hat 9.2.1-1)
REM options -cpp -mtune=generic -march=x86-64 -g -O0 -fpre-include=/usr/include/finclude/math-vector-fortran.h
REM seed -35059706 1627456193 1130129451 405133211 -1827277195 -1803863644 1549016654 2146655577 1401555281 1919758457 1562663277 965778322 2066437141 778396389 -2036436515 2070709951 -1414721040 -1662258733 1472270250 1524816582 -794940890 681120767 -643360742 -1098437059 1965936962 -123273869 823212554 1619579158 -1819489997 -1715515771 -1173517158 -620786032 -429567030
REM
CELL 1.54180   50.00000   50.00000   50.00000   90.00000   90.00000   90.00000
LATT -1
SFAC C  
C      1  0.5529500000000  0.5125950000000  0.5771610000000 1.0
C      1  0.4059600000000  0.5202750000000  0.5483160000000 1.0
C      1  0.4990060000000  0.5442330000000  0.5820390000000 1.0
C      1  0.5459690000000  0.5108900000000  0.4996780000000 1.0
C      1  0.4446760000000  0.4306450000000  0.4558440000000 1.0
C      1  0.4848510000000  0.4612030000000  0.4582930000000 1.0
C      1  0.4976750000000  0.4066400000000  0.4525480000000 1.0
C      1  0.5351540000000  0.5272130000000  0.5248620000000 1.0
C      1  0.4370140000000  0.4763780000000  0.5510790000000 1.0
C      1  0.5327430000000  0.4111190000000  0.5139980000000 1.0
C      1  0.4864040000000  0.4113080000000  0.4818300000000 1.0
C      1  0.5065500000000  0.4330370000000  0.4330310000000 1.0
C      1  0.4574690000000  0.4538310000000  0.5006530000000 1.0
C      1  0.4089250000000  0.4633110000000  0.5005120000000 1.0
C      1  0.5297990000000  0.4944100000000  0.5685320000000 1.0
C      1  0.5005970000000  0.4945070000000  0.5094720000000 1.0
C      1  0.4736170000000  0.5214240000000  0.3952740000000 1.0
C      1  0.5099500000000  0.4437860000000  0.5149940000000 1.0
C      1  0.5446320000000  0.4504740000000  0.5694340000000 1.0
C      1  0.4180340000000  0.5532210000000  0.4672760000000 1.0
C      1  0.5435930000000  0.4612920000000  0.4729790000000 1.0
C      1  0.4901020000000  0.5642730000000  0.5555800000000 1.0
C      1  0.5430060000000  0.4916400000000  0.4208670000000 1.0
C      1  0.5529790000000  0.5111640000000  0.3995520000000 1.0
C      1  0.5978420000000  0.5386030000000  0.4205600000000 1.0
C      1  0.5747480000000  0.4243260000000  0.4641690000000 1.0
C      1  0.5454940000000  0.4370580000000  0.5320070000000 1.0
C      1  0.5704970000000  0.4236880000000  0.5173330000000 1.0
C      1  0.5486470000000  0.5349790000000  0.4320100000000 1.0
C      1  0.4443520000000  0.4432130000000  0.4240140000000 1.0
C      1  0.5158220000000  0.4701970000000  0.4651340000000 1.0
C      1  0.4718290000000  0.5834060000000  0.5065910000000 1.0
C      1  0.6002340000000  0.5134280000000  0.5868050000000 1.0
C      1  0.4633750000000  0.5452270000000  0.5147440000000 1.0
C      1  0.5420840000000  0.4709850000000  0.5280510000000 1.0
C      1  0.5312280000000  0.5261550000000  0.3908730000000 1.0
C      1  0.6112910000000  0.5300180000000  0.5308910000000 1.0
C      1  0.4562690000000  0.4219750000000  0.5744030000000 1.0
C      1  0.5612710000000  0.4668710000000  0.5534340000000 1.0
C      1  0.5114560000000  0.4902210000000  0.5958330000000 1.0
C      1  0.4907380000000  0.5622290000000  0.5256430000000 1.0
C      1  0.4513420000000  0.5311770000000  0.5742460000000 1.0
C      1  0.5034030000000  0.4048980000000  0.5085660000000 1.0
C      1  0.5572440000000  0.5856210000000  0.4375200000000 1.0
C      1  0.5741400000000  0.5281720000000  0.4105230000000 1.0
C      1  0.5462280000000  0.5348270000000  0.5913120000000 1.0
C      1  0.4181150000000  0.5170800000000  0.5017700000000 1.0
C      1  0.5187700000000  0.4453340000000  0.5479670000000 1.0
C      1  0.4799290000000  0.5122700000000  0.4274090000000 1.0
C      1  0.4948070000000  0.4563550000000  0.4137950000000 1.0
C      1  0.5130550000000  0.5046700000000  0.4262590000000 1.0
C      1  0.4839560000000  0.4779290000000  0.5869410000000 1.0
C      1  0.4958920000000  0.5247350000000  0.5037650000000 1.0
C      1  0.4658050000000  0.5607050000000  0.4373210000000 1.0
C      1  0.5236260000000  0.5141380000000  0.4742460000000 1.0
C      1  0.4139820000000  0.4677000000000  0.5338480000000 1.0
C      1  0.4312470000000  0.4922050000000  0.5761840000000 1.0
C      1  0.3906650000000  0.4836640000000  0.5210150000000 1.0
C      1  0.5652210000000  0.4221040000000  0.4896590000000 1.0
C      1  0.4109140000000  0.5068630000000  0.4554080000000 1.0
C      1  0.4692240000000  0.5317270000000  0.5454020000000 1.0
C      1  0.4658740000000  0.4769660000000  0.4816920000000 1.0
C      1  0.5173640000000  0.5374860000000  0.4182190000000 1.0
C      1  0.4360840000000  0.4922480000000  0.4876300000000 1.0
C      1  0.5473510000000  0.4632700000000  0.4250180000000 1.0
C      1  0.4956160000000  0.4949950000000  0.4766570000000 1.0
C      1  0.4451250000000  0.5166900000000  0.5177490000000 1.0
C      1  0.5052500000000  0.4719980000000  0.5610930000000 1.0
C      1  0.5575250000000  0.4730520000000  0.5016830000000 1.0
C      1  0.4732770000000  0.4351810000000  0.4397050000000 1.0
C      1  0.3974270000000  0.5107640000000  0.5231120000000 1.0
C      1  0.5570900000000  0.4925020000000  0.4734630000000 1.0
C      1  0.5963610000000  0.4120160000000  0.4530570000000 1.0
C      1  0.4880350000000  0.5161530000000  0.5765160000000 1.0
C      1  0.4895470000000  0.4797670000000  0.4301660000000 1.0
C      1  0.4450200000000  0.5725630000000  0.5232250000000 1.0
C      1  0.5293220000000  0.5650330000000  0.4876920000000 1.0
C      1  0.4940960000000  0.4701390000000  0.5290210000000 1.0
C      1  0.5356620000000  0.4327920000000  0.4273880000000 1.0
C      1  0.4982320000000  0.5785080000000  0.4522330000000 1.0
C      1  0.5833020000000  0.4830930000000  0.5526100000000 1.0
C      1  0.4077890000000  0.5062930000000  0.5735510000000 1.0
C      1  0.5631420000000  0.5604060000000  0.4493450000000 1.0
C      1  0.4567320000000  0.4255240000000  0.4842360000000 1.0
C      1  0.5997180000000  0.4831040000000  0.5295120000000 1.0
C      1  0.5154000000000  0.5485240000000  0.5123410000000 1.0
C      1  0.4860180000000  0.5482900000000  0.4619140000000 1.0
C      1  0.4909080000000  0.5060760000000  0.5462450000000 1.0
C      1  0.5356300000000  0.4372610000000  0.4936340000000 1.0
C      1  0.4532030000000  0.4496250000000  0.5548530000000 1.0
C      1  0.4921340000000  0.4202280000000  0.5318630000000 1.0
C      1  0.4112530000000  0.4762560000000  0.4707740000000 1.0
C      1  0.5939980000000  0.5531070000000  0.4437930000000 1.0
C      1  0.5141910000000  0.5422230000000  0.4728830000000 1.0
C      1  0.4597800000000  0.5012850000000  0.5881740000000 1.0
C      1  0.4550110000000  0.5345400000000  0.4211170000000 1.0
C      1  0.5202600000000  0.5359070000000  0.6017830000000 1.0
C      1  0.6014150000000  0.5071300000000  0.5143730000000 1.0
C      1  0.4927470000000  0.4426120000000  0.4856660000000 1.0
C      1  0.4724800000000  0.5322480000000  0.4846520000000 1.0
C      1  0.4852150000000  0.5748220000000  0.5875330000000 1.0
C      1  0.4426240000000  0.4945920000000  0.4543450000000 1.0
C      1  0.5809150000000  0.5103440000000  0.5662250000000 1.0
C      1  0.4558430000000  0.5877710000000  0.4782270000000 1.0
C      1  0.5582580000000  0.4441370000000  0.4495910000000 1.0
C      1  0.4759210000000  0.4497680000000  0.5784870000000 1.0
C      1  0.4280800000000  0.4390970000000  0.4967310000000 1.0
C      1  0.5643170000000  0.5379630000000  0.5262500000000 1.0
C      1  0.5797640000000  0.5143230000000  0.4979690000000 1.0
C      1  0.4399130000000  0.5761450000000  0.5501110000000 1.0
C      1  0.5132090000000  0.5109410000000  0.6136740000000 1.0
C      1  0.4096730000000  0.5291410000000  0.4753510000000 1.0
C      1  0.5128460000000  0.5884010000000  0.4766960000000 1.0
C      1  0.4322500000000  0.5167340000000  0.4306930000000 1.0
C      1  0.4693560000000  0.5920640000000  0.4499900000000 1.0
C      1  0.4330760000000  0.4622060000000  0.4492770000000 1.0
C      1  0.5578030000000  0.5599850000000  0.4796050000000 1.0
C      1  0.4416170000000  0.5660170000000  0.4613020000000 1.0
C      1  0.4342910000000  0.5306180000000  0.5459040000000 1.0
C      1  0.5844300000000  0.5314950000000  0.5438950000000 1.0
C      1  0.5221140000000  0.4976680000000  0.5356100000000 1.0
C      1  0.4961720000000  0.6012810000000  0.4948770000000 1.0
C      1  0.5720980000000  0.5448530000000  0.4974360000000 1.0
C      1  0.4715180000000  0.5111400000000  0.4589100000000 1.0
C      1  0.4986080000000  0.5587360000000  0.4255110000000 1.0
C      1  0.4841140000000  0.4245830000000  0.5565950000000 1.0
C      1  0.4592890000000  0.5618550000000  0.5697500000000 1.0
C      1  0.5450400000000  0.5086070000000  0.4495990000000 1.0
C      1  0.4610270000000  0.4941440000000  0.5343700000000 1.0
C      1  0.4648530000000  0.4610870000000  0.5273890000000 1.0
END
