TITL C-2848502-4955-732 -0.000148504661012741 125000 -240.000113987578 0 0 43 (C1) n - 1
REM
REM in /home/bkarasulu/work/CARBON/AIRSS/Generating-Clusters/AIREBO/with-SteepDescent/Only-C1/SD-CG-opt/Try1-1.4A-POS3A/HFTN-CG
REM
REM
REM
REM
REM
REM ./C.cell (11c1c37f851c82e70ff6c80c92926a4b)
REM
REM compiler GCC version 9.2.1 20190827 (Red Hat 9.2.1-1)
REM options -cpp -mtune=generic -march=x86-64 -g -O0 -fpre-include=/usr/include/finclude/math-vector-fortran.h
REM seed -674197622 1416931462 -1721089197 1508061577 614365599 18381498 715912524 614898191 1997419021 -540747415 2063597557 -823178661 1760366758 -1689828952 2128873647 -1182701620 266487324 424078397 1551876713 553409724 812958953 -1622669529 1998135926 1345089176 420876134 79895618 -2100165757 1051481461 -1708625271 -404677369 758198251 705559596 570327502
REM
CELL 1.54180   50.00000   50.00000   50.00000   90.00000   90.00000   90.00000
LATT -1
SFAC C  
C      1  0.5460910000000  0.4854260000000  0.4234410000000 1.0
C      1  0.4677290000000  0.5097660000000  0.5022460000000 1.0
C      1  0.5161280000000  0.5288220000000  0.4170690000000 1.0
C      1  0.5114620000000  0.4669310000000  0.5736400000000 1.0
C      1  0.5008720000000  0.4494490000000  0.5530240000000 1.0
C      1  0.5456490000000  0.4415790000000  0.5163020000000 1.0
C      1  0.4850130000000  0.5456840000000  0.5030900000000 1.0
C      1  0.5076400000000  0.5167990000000  0.5728790000000 1.0
C      1  0.4769610000000  0.4488470000000  0.4742750000000 1.0
C      1  0.4828620000000  0.4871930000000  0.5314950000000 1.0
C      1  0.5443050000000  0.4677020000000  0.4452210000000 1.0
C      1  0.4796660000000  0.5114510000000  0.5735820000000 1.0
C      1  0.4900640000000  0.5522750000000  0.5364960000000 1.0
C      1  0.4875390000000  0.5337550000000  0.4307780000000 1.0
C      1  0.4521070000000  0.5378540000000  0.5065710000000 1.0
C      1  0.5077280000000  0.5725710000000  0.4560110000000 1.0
C      1  0.4691560000000  0.5086830000000  0.5474410000000 1.0
C      1  0.5030290000000  0.5645450000000  0.4821010000000 1.0
C      1  0.5227900000000  0.4930270000000  0.5682700000000 1.0
C      1  0.4767910000000  0.4581340000000  0.5398400000000 1.0
C      1  0.5206800000000  0.4635820000000  0.5087580000000 1.0
C      1  0.5082760000000  0.5571010000000  0.4329570000000 1.0
C      1  0.5059090000000  0.4606590000000  0.4824380000000 1.0
C      1  0.4649060000000  0.5328120000000  0.5348100000000 1.0
C      1  0.5008390000000  0.4888830000000  0.4414920000000 1.0
C      1  0.5151780000000  0.4909400000000  0.5215060000000 1.0
C      1  0.5071780000000  0.5255260000000  0.4765540000000 1.0
C      1  0.5244030000000  0.5459450000000  0.4975910000000 1.0
C      1  0.5356700000000  0.4945570000000  0.5430940000000 1.0
C      1  0.4579500000000  0.4465700000000  0.5216840000000 1.0
C      1  0.4537400000000  0.4840360000000  0.4854260000000 1.0
C      1  0.5006030000000  0.5152390000000  0.5069110000000 1.0
C      1  0.4558950000000  0.4525730000000  0.4938520000000 1.0
C      1  0.5205450000000  0.4700730000000  0.4586630000000 1.0
C      1  0.5198140000000  0.4415740000000  0.5339480000000 1.0
C      1  0.4846490000000  0.4798260000000  0.4983500000000 1.0
C      1  0.5622050000000  0.4985530000000  0.5382680000000 1.0
C      1  0.5216370000000  0.5475900000000  0.5253640000000 1.0
C      1  0.5141850000000  0.5390440000000  0.5562530000000 1.0
C      1  0.5227450000000  0.5017730000000  0.4216450000000 1.0
C      1  0.4879740000000  0.5141350000000  0.4547400000000 1.0
C      1  0.4585220000000  0.5071280000000  0.4634290000000 1.0
C      1  0.4829160000000  0.4613890000000  0.4484950000000 1.0
END
