TITL C-2848498-1409-264 -0.00319493822477445 125000 -1090.40643568599 0 0 194 (C1) n - 1
REM
REM in /home/bkarasulu/work/CARBON/AIRSS/Generating-Clusters/AIREBO/with-SteepDescent/Only-C1/SD-CG-opt/Try1-1.4A-POS3A/HFTN-CG
REM
REM
REM
REM
REM
REM ./C.cell (11c1c37f851c82e70ff6c80c92926a4b)
REM
REM compiler GCC version 9.2.1 20190827 (Red Hat 9.2.1-1)
REM options -cpp -mtune=generic -march=x86-64 -g -O0 -fpre-include=/usr/include/finclude/math-vector-fortran.h
REM seed 1454405661 639685574 1382416720 -119782545 440617053 304715201 2051043268 -1557154630 -273594187 -1035764379 691401764 -199814694 -1731631693 1111672024 1282713731 1957588517 -302936205 -1819117716 2021641395 -1328362474 -755212325 8838515 947965583 1784351211 719043429 -1955550827 -2078113219 661985724 -1305990168 1486674295 110384133 -125438762 -918599000
REM
CELL 1.54180   50.00000   50.00000   50.00000   90.00000   90.00000   90.00000
LATT -1
SFAC C  
C      1  0.5550040000000  0.4714390000000  0.4071310000000 1.0
C      1  0.4153470000000  0.4988930000000  0.4176650000000 1.0
C      1  0.5920220000000  0.4715490000000  0.4413590000000 1.0
C      1  0.4415200000000  0.4789670000000  0.4399990000000 1.0
C      1  0.4761460000000  0.5135480000000  0.5012590000000 1.0
C      1  0.4750020000000  0.4767330000000  0.6017300000000 1.0
C      1  0.4213820000000  0.5031350000000  0.5870630000000 1.0
C      1  0.4913150000000  0.4581010000000  0.5020300000000 1.0
C      1  0.5714280000000  0.5714510000000  0.4982430000000 1.0
C      1  0.4047520000000  0.4604010000000  0.5538410000000 1.0
C      1  0.5036110000000  0.3959530000000  0.5542090000000 1.0
C      1  0.5134600000000  0.4299860000000  0.4780130000000 1.0
C      1  0.5033670000000  0.5475860000000  0.4054150000000 1.0
C      1  0.5553130000000  0.5272700000000  0.3853530000000 1.0
C      1  0.4437270000000  0.4891730000000  0.4015300000000 1.0
C      1  0.5250640000000  0.4303500000000  0.5790080000000 1.0
C      1  0.5122930000000  0.4918740000000  0.5201050000000 1.0
C      1  0.4893380000000  0.5415860000000  0.4999140000000 1.0
C      1  0.4449670000000  0.4099610000000  0.4849180000000 1.0
C      1  0.3961460000000  0.4443320000000  0.5062920000000 1.0
C      1  0.4197900000000  0.4416200000000  0.5304100000000 1.0
C      1  0.5433000000000  0.4429410000000  0.4221220000000 1.0
C      1  0.6032860000000  0.4799810000000  0.5255240000000 1.0
C      1  0.4593730000000  0.5191860000000  0.3998940000000 1.0
C      1  0.4991140000000  0.5179110000000  0.3906670000000 1.0
C      1  0.5498710000000  0.4997280000000  0.4924560000000 1.0
C      1  0.4672450000000  0.5131850000000  0.4532970000000 1.0
C      1  0.5639610000000  0.5407110000000  0.5072960000000 1.0
C      1  0.5082640000000  0.6037010000000  0.5647080000000 1.0
C      1  0.5931210000000  0.5234850000000  0.4660590000000 1.0
C      1  0.4903460000000  0.4770060000000  0.4586230000000 1.0
C      1  0.5027180000000  0.5948760000000  0.4679010000000 1.0
C      1  0.4758110000000  0.4839890000000  0.5373240000000 1.0
C      1  0.4217340000000  0.4392520000000  0.4511650000000 1.0
C      1  0.5658530000000  0.5036700000000  0.4074700000000 1.0
C      1  0.5942580000000  0.4438940000000  0.4815390000000 1.0
C      1  0.4759820000000  0.4491800000000  0.5892440000000 1.0
C      1  0.5038420000000  0.4788920000000  0.5505210000000 1.0
C      1  0.5381370000000  0.5298190000000  0.4932750000000 1.0
C      1  0.4835020000000  0.5056780000000  0.4176520000000 1.0
C      1  0.4921000000000  0.4034570000000  0.4775810000000 1.0
C      1  0.5565940000000  0.4544110000000  0.5015080000000 1.0
C      1  0.4391390000000  0.4954420000000  0.5540810000000 1.0
C      1  0.4420620000000  0.5816140000000  0.5269570000000 1.0
C      1  0.4991640000000  0.4851860000000  0.6132980000000 1.0
C      1  0.5762740000000  0.5724650000000  0.5424780000000 1.0
C      1  0.4943900000000  0.4398400000000  0.4444570000000 1.0
C      1  0.6058180000000  0.5160830000000  0.4386960000000 1.0
C      1  0.5855300000000  0.5206840000000  0.4979250000000 1.0
C      1  0.5377670000000  0.5274470000000  0.6047080000000 1.0
C      1  0.4389840000000  0.5397340000000  0.4177290000000 1.0
C      1  0.5087340000000  0.6101050000000  0.5383230000000 1.0
C      1  0.4617880000000  0.5919000000000  0.4523500000000 1.0
C      1  0.5194750000000  0.4656920000000  0.6141180000000 1.0
C      1  0.5097100000000  0.4024880000000  0.5803830000000 1.0
C      1  0.5322350000000  0.5235030000000  0.4543490000000 1.0
C      1  0.3901080000000  0.5012240000000  0.4825990000000 1.0
C      1  0.3880100000000  0.5335910000000  0.4812400000000 1.0
C      1  0.5410320000000  0.5563830000000  0.5875530000000 1.0
C      1  0.5027400000000  0.6112690000000  0.4427210000000 1.0
C      1  0.5154240000000  0.4907230000000  0.3906700000000 1.0
C      1  0.5517180000000  0.4799030000000  0.4647750000000 1.0
C      1  0.4132840000000  0.4780860000000  0.4801020000000 1.0
C      1  0.6109470000000  0.5471920000000  0.4826920000000 1.0
C      1  0.5167160000000  0.5541260000000  0.6085950000000 1.0
C      1  0.4154550000000  0.5256240000000  0.4642970000000 1.0
C      1  0.5206790000000  0.3801410000000  0.5100050000000 1.0
C      1  0.5567780000000  0.4392250000000  0.4507130000000 1.0
C      1  0.3960450000000  0.5409470000000  0.5125010000000 1.0
C      1  0.5996690000000  0.5585550000000  0.5048670000000 1.0
C      1  0.4377490000000  0.5723950000000  0.4559860000000 1.0
C      1  0.5986680000000  0.5562130000000  0.5341420000000 1.0
C      1  0.4588770000000  0.4940940000000  0.5817920000000 1.0
C      1  0.4726560000000  0.5440510000000  0.4196530000000 1.0
C      1  0.3946440000000  0.5179580000000  0.5343630000000 1.0
C      1  0.5394500000000  0.4272360000000  0.5082160000000 1.0
C      1  0.5838920000000  0.4743820000000  0.4742840000000 1.0
C      1  0.5306400000000  0.4023760000000  0.4879550000000 1.0
C      1  0.4263140000000  0.5461050000000  0.4450700000000 1.0
C      1  0.5406420000000  0.4978620000000  0.5781080000000 1.0
C      1  0.5001890000000  0.4511410000000  0.5698490000000 1.0
C      1  0.5300800000000  0.4029970000000  0.4539650000000 1.0
C      1  0.5120600000000  0.4401750000000  0.6073930000000 1.0
C      1  0.4845860000000  0.4532340000000  0.3928100000000 1.0
C      1  0.4297640000000  0.5058410000000  0.4875730000000 1.0
C      1  0.4924030000000  0.3893700000000  0.5013010000000 1.0
C      1  0.4665450000000  0.4037350000000  0.4647110000000 1.0
C      1  0.5137710000000  0.5706580000000  0.5311420000000 1.0
C      1  0.5807930000000  0.4888460000000  0.5015040000000 1.0
C      1  0.5293360000000  0.5607300000000  0.5597120000000 1.0
C      1  0.4834140000000  0.6087020000000  0.5259240000000 1.0
C      1  0.4232500000000  0.5746300000000  0.4818980000000 1.0
C      1  0.5099300000000  0.4653080000000  0.4333730000000 1.0
C      1  0.4591380000000  0.5011060000000  0.4799390000000 1.0
C      1  0.4462220000000  0.4039360000000  0.5123420000000 1.0
C      1  0.4405200000000  0.5613550000000  0.5039990000000 1.0
C      1  0.4279520000000  0.5328470000000  0.5180270000000 1.0
C      1  0.5319810000000  0.5057320000000  0.4096030000000 1.0
C      1  0.5401030000000  0.4728150000000  0.4368280000000 1.0
C      1  0.4735280000000  0.4812790000000  0.4302140000000 1.0
C      1  0.5098210000000  0.5126200000000  0.6105240000000 1.0
C      1  0.4630930000000  0.5359990000000  0.5515420000000 1.0
C      1  0.4675830000000  0.5875160000000  0.5340470000000 1.0
C      1  0.4688090000000  0.4352980000000  0.5471700000000 1.0
C      1  0.5731790000000  0.4467830000000  0.5654640000000 1.0
C      1  0.5320910000000  0.4622920000000  0.5427060000000 1.0
C      1  0.4855240000000  0.5125490000000  0.5875060000000 1.0
C      1  0.4401180000000  0.4660970000000  0.5183710000000 1.0
C      1  0.4650510000000  0.5523760000000  0.4526290000000 1.0
C      1  0.4579990000000  0.4593330000000  0.4094180000000 1.0
C      1  0.5445590000000  0.4813310000000  0.5181450000000 1.0
C      1  0.3980200000000  0.5956300000000  0.4856430000000 1.0
C      1  0.6054370000000  0.5118860000000  0.5220780000000 1.0
C      1  0.4679380000000  0.5605610000000  0.4857790000000 1.0
C      1  0.5437180000000  0.5521290000000  0.4584210000000 1.0
C      1  0.5044200000000  0.5621600000000  0.4354910000000 1.0
C      1  0.5015090000000  0.5739440000000  0.5689730000000 1.0
C      1  0.5093550000000  0.4993960000000  0.5729080000000 1.0
C      1  0.4478720000000  0.4407520000000  0.4728830000000 1.0
C      1  0.5629890000000  0.5109230000000  0.4565230000000 1.0
C      1  0.5186400000000  0.5566080000000  0.5009710000000 1.0
C      1  0.5257460000000  0.3926290000000  0.5371440000000 1.0
C      1  0.5358600000000  0.5457750000000  0.3950520000000 1.0
C      1  0.5626090000000  0.5294150000000  0.4294470000000 1.0
C      1  0.4270790000000  0.4713620000000  0.5739280000000 1.0
C      1  0.5995340000000  0.4584280000000  0.5527110000000 1.0
C      1  0.4143890000000  0.5184970000000  0.5575380000000 1.0
C      1  0.4334390000000  0.4993770000000  0.5207740000000 1.0
C      1  0.5322080000000  0.5297930000000  0.5349430000000 1.0
C      1  0.6257960000000  0.5314350000000  0.4280540000000 1.0
C      1  0.5848780000000  0.4420440000000  0.4515700000000 1.0
C      1  0.5247030000000  0.5732120000000  0.4760510000000 1.0
C      1  0.4741520000000  0.5417110000000  0.5901760000000 1.0
C      1  0.5417390000000  0.6006620000000  0.4654430000000 1.0
C      1  0.4706680000000  0.4326580000000  0.4263160000000 1.0
C      1  0.3908980000000  0.4682020000000  0.5261140000000 1.0
C      1  0.5308160000000  0.5835080000000  0.4379280000000 1.0
C      1  0.4490630000000  0.4451730000000  0.5730750000000 1.0
C      1  0.3930770000000  0.5646120000000  0.4901470000000 1.0
C      1  0.5288650000000  0.3537950000000  0.5066640000000 1.0
C      1  0.5319990000000  0.5971680000000  0.5199330000000 1.0
C      1  0.4746880000000  0.5918140000000  0.4812430000000 1.0
C      1  0.4255850000000  0.4540740000000  0.4932910000000 1.0
C      1  0.4308390000000  0.5438340000000  0.5490970000000 1.0
C      1  0.4627620000000  0.4081540000000  0.4365910000000 1.0
C      1  0.5648430000000  0.5189200000000  0.5859360000000 1.0
C      1  0.4140780000000  0.4688630000000  0.4495820000000 1.0
C      1  0.4970710000000  0.4893120000000  0.4898060000000 1.0
C      1  0.5442330000000  0.4139750000000  0.5364420000000 1.0
C      1  0.5485440000000  0.4660870000000  0.5688950000000 1.0
C      1  0.5433690000000  0.5082450000000  0.5476890000000 1.0
C      1  0.5221490000000  0.4242910000000  0.4376820000000 1.0
C      1  0.5500920000000  0.4270310000000  0.5608330000000 1.0
C      1  0.4474520000000  0.5248210000000  0.5797130000000 1.0
C      1  0.4004300000000  0.4942020000000  0.5143550000000 1.0
C      1  0.4906990000000  0.4009490000000  0.6013640000000 1.0
C      1  0.4817290000000  0.4417830000000  0.4759720000000 1.0
C      1  0.4319910000000  0.4152260000000  0.5344750000000 1.0
C      1  0.4421540000000  0.5109900000000  0.4347550000000 1.0
C      1  0.4025280000000  0.5002170000000  0.4490240000000 1.0
C      1  0.5504150000000  0.5553900000000  0.5348240000000 1.0
C      1  0.5290930000000  0.6125110000000  0.4922500000000 1.0
C      1  0.5618450000000  0.5909490000000  0.5209590000000 1.0
C      1  0.4123210000000  0.4191870000000  0.4377900000000 1.0
C      1  0.4378260000000  0.4151210000000  0.5617990000000 1.0
C      1  0.4721660000000  0.3957970000000  0.5196670000000 1.0
C      1  0.5641860000000  0.5755720000000  0.4702020000000 1.0
C      1  0.5680300000000  0.4893690000000  0.5413970000000 1.0
C      1  0.5928970000000  0.4944440000000  0.4260140000000 1.0
C      1  0.4938660000000  0.5343170000000  0.4519610000000 1.0
C      1  0.5953430000000  0.4388520000000  0.5081590000000 1.0
C      1  0.4645150000000  0.5111610000000  0.5280320000000 1.0
C      1  0.4582950000000  0.4723520000000  0.4658750000000 1.0
C      1  0.5993940000000  0.5288070000000  0.5441650000000 1.0
C      1  0.4254950000000  0.5738920000000  0.5477650000000 1.0
C      1  0.5164940000000  0.4476030000000  0.5170830000000 1.0
C      1  0.4837450000000  0.5885450000000  0.4334880000000 1.0
C      1  0.5805310000000  0.5144730000000  0.5607800000000 1.0
C      1  0.4685560000000  0.4573200000000  0.5247130000000 1.0
C      1  0.4931490000000  0.5610690000000  0.5945420000000 1.0
C      1  0.5095480000000  0.5232010000000  0.5202470000000 1.0
C      1  0.5647960000000  0.5848060000000  0.4379580000000 1.0
C      1  0.5764340000000  0.4592190000000  0.5277690000000 1.0
C      1  0.5429840000000  0.4737780000000  0.6019970000000 1.0
C      1  0.5128890000000  0.5171760000000  0.4295900000000 1.0
C      1  0.5110390000000  0.5174720000000  0.4768480000000 1.0
C      1  0.5427370000000  0.5544520000000  0.4248770000000 1.0
C      1  0.4852220000000  0.4273890000000  0.6108390000000 1.0
C      1  0.4805320000000  0.4086430000000  0.5431880000000 1.0
C      1  0.4829440000000  0.6151410000000  0.4990470000000 1.0
C      1  0.5389020000000  0.4502740000000  0.4755350000000 1.0
C      1  0.5056710000000  0.4672500000000  0.4023170000000 1.0
C      1  0.4829180000000  0.5631240000000  0.5449100000000 1.0
C      1  0.5065700000000  0.6277760000000  0.4903070000000 1.0
END
