TITL C-2847946-5639-453 -0.00184106211813952 125000 -643.258013854624 0 0 117 (C1) n - 1
REM
REM in /home/bkarasulu/work/CARBON/AIRSS/Generating-Clusters/AIREBO/with-SteepDescent/Only-C1/SD-CG-opt/Try1-1.4A-POS3A/HFTN-CG
REM
REM
REM
REM
REM
REM ./C.cell (11c1c37f851c82e70ff6c80c92926a4b)
REM
REM compiler GCC version 9.2.1 20190827 (Red Hat 9.2.1-1)
REM options -cpp -mtune=generic -march=x86-64 -g -O0 -fpre-include=/usr/include/finclude/math-vector-fortran.h
REM seed 1111821349 -1747017076 -673200787 -300734991 1523864217 1065079933 -488349031 1938587323 -657024344 264852559 -1587958753 -742508707 1741453667 -1803317357 10684770 532813920 1567185590 656276113 -903499089 897282251 -1421256653 957161863 -1721536890 -917311147 2047864927 -1157202168 -117213606 2093760052 1861041389 -2112493 83706925 -205812682 296767589
REM
CELL 1.54180   50.00000   50.00000   50.00000   90.00000   90.00000   90.00000
LATT -1
SFAC C  
C      1  0.5352590000000  0.4553090000000  0.4301930000000 1.0
C      1  0.4797820000000  0.5989490000000  0.4869050000000 1.0
C      1  0.5267620000000  0.5353910000000  0.4041330000000 1.0
C      1  0.4468300000000  0.4058780000000  0.4861880000000 1.0
C      1  0.5809650000000  0.5051370000000  0.5499700000000 1.0
C      1  0.4161400000000  0.5348740000000  0.4841820000000 1.0
C      1  0.5962620000000  0.5232400000000  0.5094090000000 1.0
C      1  0.4582890000000  0.5272420000000  0.5295090000000 1.0
C      1  0.4209540000000  0.4574900000000  0.4557750000000 1.0
C      1  0.5829520000000  0.4537640000000  0.4909650000000 1.0
C      1  0.4586050000000  0.4476570000000  0.5134560000000 1.0
C      1  0.4745780000000  0.5017620000000  0.5428010000000 1.0
C      1  0.4908200000000  0.4526930000000  0.5038050000000 1.0
C      1  0.5371540000000  0.5150160000000  0.4588110000000 1.0
C      1  0.4331750000000  0.5052600000000  0.4829160000000 1.0
C      1  0.5107940000000  0.4941770000000  0.4652240000000 1.0
C      1  0.4817700000000  0.5013230000000  0.5104340000000 1.0
C      1  0.4908360000000  0.5352740000000  0.5621880000000 1.0
C      1  0.5568500000000  0.4677490000000  0.5698330000000 1.0
C      1  0.5953590000000  0.4997500000000  0.5260430000000 1.0
C      1  0.5671000000000  0.5688890000000  0.5575520000000 1.0
C      1  0.5171860000000  0.5026470000000  0.5289360000000 1.0
C      1  0.5485110000000  0.5148910000000  0.5529180000000 1.0
C      1  0.4618770000000  0.4783470000000  0.4226010000000 1.0
C      1  0.5607470000000  0.5575060000000  0.5305400000000 1.0
C      1  0.5358630000000  0.4817960000000  0.5101050000000 1.0
C      1  0.4450220000000  0.5280050000000  0.4229850000000 1.0
C      1  0.4276240000000  0.5622130000000  0.4573480000000 1.0
C      1  0.4870260000000  0.4096420000000  0.5470620000000 1.0
C      1  0.4524740000000  0.4819230000000  0.4532380000000 1.0
C      1  0.4569750000000  0.5320040000000  0.5617510000000 1.0
C      1  0.4442190000000  0.5754280000000  0.5043490000000 1.0
C      1  0.5266380000000  0.5281300000000  0.5948650000000 1.0
C      1  0.4220940000000  0.3954130000000  0.4846040000000 1.0
C      1  0.4055940000000  0.5365990000000  0.5164650000000 1.0
C      1  0.5268910000000  0.5562270000000  0.5335620000000 1.0
C      1  0.4749140000000  0.5385450000000  0.4227820000000 1.0
C      1  0.5187240000000  0.5676540000000  0.5792050000000 1.0
C      1  0.5374950000000  0.4329740000000  0.4928640000000 1.0
C      1  0.4576000000000  0.4748030000000  0.5686940000000 1.0
C      1  0.5111620000000  0.4655090000000  0.5664490000000 1.0
C      1  0.4489020000000  0.4979510000000  0.4078000000000 1.0
C      1  0.5358440000000  0.4807500000000  0.4195100000000 1.0
C      1  0.4660610000000  0.5478510000000  0.4857650000000 1.0
C      1  0.5547870000000  0.5253570000000  0.5211740000000 1.0
C      1  0.5024400000000  0.5263740000000  0.5139540000000 1.0
C      1  0.4104890000000  0.4867820000000  0.5002480000000 1.0
C      1  0.5152220000000  0.4925580000000  0.4042020000000 1.0
C      1  0.5923550000000  0.5482610000000  0.5220700000000 1.0
C      1  0.4141710000000  0.4844720000000  0.4638240000000 1.0
C      1  0.5062590000000  0.4547410000000  0.5341770000000 1.0
C      1  0.4826380000000  0.5769120000000  0.4636190000000 1.0
C      1  0.5056920000000  0.4261700000000  0.4898280000000 1.0
C      1  0.5010690000000  0.5635030000000  0.6007300000000 1.0
C      1  0.4486700000000  0.5001120000000  0.5124830000000 1.0
C      1  0.5032700000000  0.5512680000000  0.4730580000000 1.0
C      1  0.4852330000000  0.5568590000000  0.4380460000000 1.0
C      1  0.4251630000000  0.5318680000000  0.5590490000000 1.0
C      1  0.5708650000000  0.5201490000000  0.4607400000000 1.0
C      1  0.4997450000000  0.5164210000000  0.4449250000000 1.0
C      1  0.6012680000000  0.5116310000000  0.4179720000000 1.0
C      1  0.5030870000000  0.5050830000000  0.5598510000000 1.0
C      1  0.5793710000000  0.5182740000000  0.4861330000000 1.0
C      1  0.4517310000000  0.4335710000000  0.4866580000000 1.0
C      1  0.4302480000000  0.5322820000000  0.4533240000000 1.0
C      1  0.4309090000000  0.5034190000000  0.4430760000000 1.0
C      1  0.4410300000000  0.4707070000000  0.5219470000000 1.0
C      1  0.5544230000000  0.4458260000000  0.4485450000000 1.0
C      1  0.5413690000000  0.5426350000000  0.3845560000000 1.0
C      1  0.5365610000000  0.4291430000000  0.5456410000000 1.0
C      1  0.4514160000000  0.5736400000000  0.4732330000000 1.0
C      1  0.5194640000000  0.4074010000000  0.5451830000000 1.0
C      1  0.5859730000000  0.4753710000000  0.5085990000000 1.0
C      1  0.5169220000000  0.5659720000000  0.4463470000000 1.0
C      1  0.5567580000000  0.4964780000000  0.5804860000000 1.0
C      1  0.5329230000000  0.5856060000000  0.4647450000000 1.0
C      1  0.5241440000000  0.5368510000000  0.4362050000000 1.0
C      1  0.4754310000000  0.5450360000000  0.5132980000000 1.0
C      1  0.5590950000000  0.5809560000000  0.5073320000000 1.0
C      1  0.4785760000000  0.4549260000000  0.4407570000000 1.0
C      1  0.5382980000000  0.5777850000000  0.4901980000000 1.0
C      1  0.5003290000000  0.5353540000000  0.6081900000000 1.0
C      1  0.5352650000000  0.4493390000000  0.5205540000000 1.0
C      1  0.5614500000000  0.4432940000000  0.4756600000000 1.0
C      1  0.4117760000000  0.5206050000000  0.5380440000000 1.0
C      1  0.5004960000000  0.3910870000000  0.5253970000000 1.0
C      1  0.4150740000000  0.4910110000000  0.5320560000000 1.0
C      1  0.4779160000000  0.4369640000000  0.5381530000000 1.0
C      1  0.5375370000000  0.4442370000000  0.5692600000000 1.0
C      1  0.4714500000000  0.5859300000000  0.5109290000000 1.0
C      1  0.5072960000000  0.4417560000000  0.4311530000000 1.0
C      1  0.4520200000000  0.4493070000000  0.4613510000000 1.0
C      1  0.4665430000000  0.5035650000000  0.5757910000000 1.0
C      1  0.5349200000000  0.5015190000000  0.5974580000000 1.0
C      1  0.5042070000000  0.4070920000000  0.4624920000000 1.0
C      1  0.5071880000000  0.4124250000000  0.4382550000000 1.0
C      1  0.4339200000000  0.4728670000000  0.5537760000000 1.0
C      1  0.5122090000000  0.4835050000000  0.5931820000000 1.0
C      1  0.5071110000000  0.4630180000000  0.4575240000000 1.0
C      1  0.4655980000000  0.5001260000000  0.4739960000000 1.0
C      1  0.4920070000000  0.5085510000000  0.5918860000000 1.0
C      1  0.4701630000000  0.3902150000000  0.4871040000000 1.0
C      1  0.5521200000000  0.4986470000000  0.4330370000000 1.0
C      1  0.5619050000000  0.4965530000000  0.5045710000000 1.0
C      1  0.4895440000000  0.4810970000000  0.4883620000000 1.0
C      1  0.5346150000000  0.4840000000000  0.5498900000000 1.0
C      1  0.4783810000000  0.4570210000000  0.5633790000000 1.0
C      1  0.4938860000000  0.3978500000000  0.4996520000000 1.0
C      1  0.5207840000000  0.5516000000000  0.5004060000000 1.0
C      1  0.4981770000000  0.5197260000000  0.4111150000000 1.0
C      1  0.5246960000000  0.5385970000000  0.5625670000000 1.0
C      1  0.4971430000000  0.5680370000000  0.5216440000000 1.0
C      1  0.4206040000000  0.5613940000000  0.5060420000000 1.0
C      1  0.5802510000000  0.5095650000000  0.4337720000000 1.0
C      1  0.4804850000000  0.5266420000000  0.4674190000000 1.0
C      1  0.5406460000000  0.5271480000000  0.4904250000000 1.0
C      1  0.5245420000000  0.4623230000000  0.4846060000000 1.0
END
