TITL C-2847947-6848-120 0.00248532255138662 125000 -379.406188824501 0 0 73 (C1) n - 1
REM
REM in /home/bkarasulu/work/CARBON/AIRSS/Generating-Clusters/AIREBO/with-SteepDescent/Only-C1/SD-CG-opt/Try1-1.4A-POS3A/HFTN-CG
REM
REM
REM
REM
REM
REM ./C.cell (11c1c37f851c82e70ff6c80c92926a4b)
REM
REM compiler GCC version 9.2.1 20190827 (Red Hat 9.2.1-1)
REM options -cpp -mtune=generic -march=x86-64 -g -O0 -fpre-include=/usr/include/finclude/math-vector-fortran.h
REM seed 1924523368 -2117056769 -1643831038 -967068502 995975401 -200725270 -338656964 -1674054973 -223948915 312277035 -920864376 1204592984 -592543209 1049731340 1945418561 -1765831736 -164609966 -524743345 -1887528377 2026193848 1775230006 14948657 2045219311 1162505657 -980480857 142364430 -970995298 -868709047 1383053478 -215629406 -1652555105 -1594386097 1778665445
REM
CELL 1.54180   50.00000   50.00000   50.00000   90.00000   90.00000   90.00000
LATT -1
SFAC C  
C      1  0.4700990000000  0.4958860000000  0.4710460000000 1.0
C      1  0.4319280000000  0.5071610000000  0.4695730000000 1.0
C      1  0.4834810000000  0.6222240000000  0.5193820000000 1.0
C      1  0.4826200000000  0.5573250000000  0.4783200000000 1.0
C      1  0.4464540000000  0.4802070000000  0.5572270000000 1.0
C      1  0.5293650000000  0.4770080000000  0.5616520000000 1.0
C      1  0.5491890000000  0.5070000000000  0.5097210000000 1.0
C      1  0.5703010000000  0.4409030000000  0.4833890000000 1.0
C      1  0.5668030000000  0.5161890000000  0.4628210000000 1.0
C      1  0.5440660000000  0.4768740000000  0.5246310000000 1.0
C      1  0.5495010000000  0.4566770000000  0.4875510000000 1.0
C      1  0.5539310000000  0.5405500000000  0.5061350000000 1.0
C      1  0.4788790000000  0.5817070000000  0.5596970000000 1.0
C      1  0.5214690000000  0.5130860000000  0.4262330000000 1.0
C      1  0.4335650000000  0.4932550000000  0.4996510000000 1.0
C      1  0.4871320000000  0.5255350000000  0.5255550000000 1.0
C      1  0.4830780000000  0.5035940000000  0.4316230000000 1.0
C      1  0.4822790000000  0.4385570000000  0.4628900000000 1.0
C      1  0.4487380000000  0.5281940000000  0.4611070000000 1.0
C      1  0.5366900000000  0.4246100000000  0.5434980000000 1.0
C      1  0.4724990000000  0.4604820000000  0.5571570000000 1.0
C      1  0.4862810000000  0.5136950000000  0.5548890000000 1.0
C      1  0.5314740000000  0.5238690000000  0.5680350000000 1.0
C      1  0.4413900000000  0.4577610000000  0.5321930000000 1.0
C      1  0.5048820000000  0.4176340000000  0.4966270000000 1.0
C      1  0.5455760000000  0.4995460000000  0.5668800000000 1.0
C      1  0.5160670000000  0.5060680000000  0.4772020000000 1.0
C      1  0.4937900000000  0.5466090000000  0.4511020000000 1.0
C      1  0.4597900000000  0.4337030000000  0.4428210000000 1.0
C      1  0.4927200000000  0.4423740000000  0.5589800000000 1.0
C      1  0.4604780000000  0.4456850000000  0.5092500000000 1.0
C      1  0.4817730000000  0.5074740000000  0.4972020000000 1.0
C      1  0.4819540000000  0.4251650000000  0.5157390000000 1.0
C      1  0.4055930000000  0.5273130000000  0.5289370000000 1.0
C      1  0.5638450000000  0.4936090000000  0.4423450000000 1.0
C      1  0.5431070000000  0.4536120000000  0.5460060000000 1.0
C      1  0.5163550000000  0.5653490000000  0.4374510000000 1.0
C      1  0.5161090000000  0.5099320000000  0.5170130000000 1.0
C      1  0.5176980000000  0.5338800000000  0.5468240000000 1.0
C      1  0.5110590000000  0.4734160000000  0.5320550000000 1.0
C      1  0.4720180000000  0.5251890000000  0.4439580000000 1.0
C      1  0.4504960000000  0.4475370000000  0.4790140000000 1.0
C      1  0.4877680000000  0.5855790000000  0.4882450000000 1.0
C      1  0.4752580000000  0.4748430000000  0.5043030000000 1.0
C      1  0.5825160000000  0.4872730000000  0.5001850000000 1.0
C      1  0.4535350000000  0.5479460000000  0.4811880000000 1.0
C      1  0.5327440000000  0.4871680000000  0.4544590000000 1.0
C      1  0.5013440000000  0.5342330000000  0.4893300000000 1.0
C      1  0.5137370000000  0.4826420000000  0.4994130000000 1.0
C      1  0.4830740000000  0.5958740000000  0.5138970000000 1.0
C      1  0.5540860000000  0.4897530000000  0.4808180000000 1.0
C      1  0.4966450000000  0.4131060000000  0.4709020000000 1.0
C      1  0.4797580000000  0.4861410000000  0.5360570000000 1.0
C      1  0.5231790000000  0.5419210000000  0.5142400000000 1.0
C      1  0.5088550000000  0.4597930000000  0.4154590000000 1.0
C      1  0.4476640000000  0.5448630000000  0.5087040000000 1.0
C      1  0.5506220000000  0.5382020000000  0.4595180000000 1.0
C      1  0.4773440000000  0.5763770000000  0.5333130000000 1.0
C      1  0.4444540000000  0.4758410000000  0.4738940000000 1.0
C      1  0.5211360000000  0.5288790000000  0.4531150000000 1.0
C      1  0.4594690000000  0.5083280000000  0.5668300000000 1.0
C      1  0.4961440000000  0.4573250000000  0.4850640000000 1.0
C      1  0.5243630000000  0.4443820000000  0.4989730000000 1.0
C      1  0.5718040000000  0.4995750000000  0.5549820000000 1.0
C      1  0.4710250000000  0.5508030000000  0.5236390000000 1.0
C      1  0.5096620000000  0.4827810000000  0.4303970000000 1.0
C      1  0.4321360000000  0.5255250000000  0.5225550000000 1.0
C      1  0.4359190000000  0.4287650000000  0.4565610000000 1.0
C      1  0.5736660000000  0.5567170000000  0.5098320000000 1.0
C      1  0.5771580000000  0.4991240000000  0.5273850000000 1.0
C      1  0.5425690000000  0.5631270000000  0.4459110000000 1.0
C      1  0.4483890000000  0.4971440000000  0.5278090000000 1.0
C      1  0.5094580000000  0.4395280000000  0.5296420000000 1.0
END
