TITL C-2847944-5688-452 0.000234420580491722 125000 -818.485729658036 0 0 149 (C1) n - 1
REM
REM in /home/bkarasulu/work/CARBON/AIRSS/Generating-Clusters/AIREBO/with-SteepDescent/Only-C1/SD-CG-opt/Try1-1.4A-POS3A/HFTN-CG
REM
REM
REM
REM
REM
REM ./C.cell (11c1c37f851c82e70ff6c80c92926a4b)
REM
REM compiler GCC version 9.2.1 20190827 (Red Hat 9.2.1-1)
REM options -cpp -mtune=generic -march=x86-64 -g -O0 -fpre-include=/usr/include/finclude/math-vector-fortran.h
REM seed 1776380185 1624282230 -1533831672 957555930 1253327504 -859311850 891301269 41432290 595663703 -557556546 1786647726 -418482508 1715680063 -1527856924 1684145323 -1703482434 -527894635 -259857631 -1571733337 -282928974 -2093066470 -267649344 977683144 -813884568 88486459 305843333 -532579119 -1410812103 116227528 -1329071629 -1375224783 328263149 787215643
REM
CELL 1.54180   50.00000   50.00000   50.00000   90.00000   90.00000   90.00000
LATT -1
SFAC C  
C      1  0.4707210000000  0.4636070000000  0.4832160000000 1.0
C      1  0.5683710000000  0.5324390000000  0.4300580000000 1.0
C      1  0.4372910000000  0.5143510000000  0.4642910000000 1.0
C      1  0.5324670000000  0.4335180000000  0.5584510000000 1.0
C      1  0.4674420000000  0.5766020000000  0.4360840000000 1.0
C      1  0.4537670000000  0.4892950000000  0.3973790000000 1.0
C      1  0.4607260000000  0.4389370000000  0.5627730000000 1.0
C      1  0.4802400000000  0.5796690000000  0.4599020000000 1.0
C      1  0.4416630000000  0.5628470000000  0.5610610000000 1.0
C      1  0.5236960000000  0.5931370000000  0.5046460000000 1.0
C      1  0.4400710000000  0.4997330000000  0.5329560000000 1.0
C      1  0.5550120000000  0.4601390000000  0.4896820000000 1.0
C      1  0.5250340000000  0.5188400000000  0.4465850000000 1.0
C      1  0.5883960000000  0.4689690000000  0.5552740000000 1.0
C      1  0.5893470000000  0.5427990000000  0.4702460000000 1.0
C      1  0.5778480000000  0.5073860000000  0.5413080000000 1.0
C      1  0.6011600000000  0.5021960000000  0.4512060000000 1.0
C      1  0.5126690000000  0.4099150000000  0.5654630000000 1.0
C      1  0.5402800000000  0.4783790000000  0.5143210000000 1.0
C      1  0.5009850000000  0.5517030000000  0.5653020000000 1.0
C      1  0.4652910000000  0.4958060000000  0.5554300000000 1.0
C      1  0.4048750000000  0.4631800000000  0.4534370000000 1.0
C      1  0.5160210000000  0.4479970000000  0.5324450000000 1.0
C      1  0.4722940000000  0.5463780000000  0.4936000000000 1.0
C      1  0.5664870000000  0.4543160000000  0.5470260000000 1.0
C      1  0.4566330000000  0.4876950000000  0.4626500000000 1.0
C      1  0.4070190000000  0.5349640000000  0.5098000000000 1.0
C      1  0.4871120000000  0.4506790000000  0.4582380000000 1.0
C      1  0.5358870000000  0.5558260000000  0.5839310000000 1.0
C      1  0.4611070000000  0.4940920000000  0.5870630000000 1.0
C      1  0.4563710000000  0.5511210000000  0.4314500000000 1.0
C      1  0.5485540000000  0.4812580000000  0.5762210000000 1.0
C      1  0.5735020000000  0.4417070000000  0.5199850000000 1.0
C      1  0.5479430000000  0.5770720000000  0.5433740000000 1.0
C      1  0.5051920000000  0.5179960000000  0.5628970000000 1.0
C      1  0.5213800000000  0.5624610000000  0.4259940000000 1.0
C      1  0.5197850000000  0.4401510000000  0.4115530000000 1.0
C      1  0.4171820000000  0.4846240000000  0.4952960000000 1.0
C      1  0.4876120000000  0.3906370000000  0.5297150000000 1.0
C      1  0.4773200000000  0.5291460000000  0.4377630000000 1.0
C      1  0.4064580000000  0.4922140000000  0.4458330000000 1.0
C      1  0.4885150000000  0.4878170000000  0.6002130000000 1.0
C      1  0.5075000000000  0.5660810000000  0.4632900000000 1.0
C      1  0.4617470000000  0.5254550000000  0.5379330000000 1.0
C      1  0.5370960000000  0.4710810000000  0.5458440000000 1.0
C      1  0.5564580000000  0.5765560000000  0.4633420000000 1.0
C      1  0.4393580000000  0.5373170000000  0.5698860000000 1.0
C      1  0.5019860000000  0.4830260000000  0.4033160000000 1.0
C      1  0.5307460000000  0.4958170000000  0.4005340000000 1.0
C      1  0.5472410000000  0.4231360000000  0.5310290000000 1.0
C      1  0.5595800000000  0.5254060000000  0.5943850000000 1.0
C      1  0.5919830000000  0.5289950000000  0.4459090000000 1.0
C      1  0.5870260000000  0.5570510000000  0.4974750000000 1.0
C      1  0.4979600000000  0.4560130000000  0.4090250000000 1.0
C      1  0.4212380000000  0.5525860000000  0.4644520000000 1.0
C      1  0.4552680000000  0.4702610000000  0.5254250000000 1.0
C      1  0.4048390000000  0.4675860000000  0.5387190000000 1.0
C      1  0.5798800000000  0.5325250000000  0.5186710000000 1.0
C      1  0.4592510000000  0.5260380000000  0.5857000000000 1.0
C      1  0.5745110000000  0.5403290000000  0.5766160000000 1.0
C      1  0.5001650000000  0.5487720000000  0.5055070000000 1.0
C      1  0.4108200000000  0.5280660000000  0.4809880000000 1.0
C      1  0.4114580000000  0.4575080000000  0.4810910000000 1.0
C      1  0.5391880000000  0.5458270000000  0.4062090000000 1.0
C      1  0.4787630000000  0.4964440000000  0.4869430000000 1.0
C      1  0.4752170000000  0.4189570000000  0.4861190000000 1.0
C      1  0.5981210000000  0.5066020000000  0.5054850000000 1.0
C      1  0.5067770000000  0.4810390000000  0.4752500000000 1.0
C      1  0.4711970000000  0.4845560000000  0.4372580000000 1.0
C      1  0.5001310000000  0.4625720000000  0.5869170000000 1.0
C      1  0.4637150000000  0.5748310000000  0.4836010000000 1.0
C      1  0.5277130000000  0.5044120000000  0.5080610000000 1.0
C      1  0.4967450000000  0.5277520000000  0.3927440000000 1.0
C      1  0.5042630000000  0.5773730000000  0.5186690000000 1.0
C      1  0.4500120000000  0.4650060000000  0.4050350000000 1.0
C      1  0.4870460000000  0.4754380000000  0.5198050000000 1.0
C      1  0.4350300000000  0.4551330000000  0.5481840000000 1.0
C      1  0.4941300000000  0.6040010000000  0.5615450000000 1.0
C      1  0.5259330000000  0.5091380000000  0.4757390000000 1.0
C      1  0.5420770000000  0.4301850000000  0.4992610000000 1.0
C      1  0.5990550000000  0.4849920000000  0.5300670000000 1.0
C      1  0.5054150000000  0.5407530000000  0.4420510000000 1.0
C      1  0.4473450000000  0.4990060000000  0.4997380000000 1.0
C      1  0.5281960000000  0.5854030000000  0.4772950000000 1.0
C      1  0.5577700000000  0.5085150000000  0.5581800000000 1.0
C      1  0.4661510000000  0.4423290000000  0.5093680000000 1.0
C      1  0.4305540000000  0.5737230000000  0.4857460000000 1.0
C      1  0.4690540000000  0.5247880000000  0.4704770000000 1.0
C      1  0.5403580000000  0.5362440000000  0.5564420000000 1.0
C      1  0.4855430000000  0.5370090000000  0.5911450000000 1.0
C      1  0.5030680000000  0.4244930000000  0.4673870000000 1.0
C      1  0.5628900000000  0.5767390000000  0.4968320000000 1.0
C      1  0.4834580000000  0.4403740000000  0.5385860000000 1.0
C      1  0.4340090000000  0.4365910000000  0.5188550000000 1.0
C      1  0.4717790000000  0.4519410000000  0.4276590000000 1.0
C      1  0.5065290000000  0.4600290000000  0.5020430000000 1.0
C      1  0.4186110000000  0.4341380000000  0.4948220000000 1.0
C      1  0.5080740000000  0.5114250000000  0.5957080000000 1.0
C      1  0.5375490000000  0.4439420000000  0.4390670000000 1.0
C      1  0.5723650000000  0.4352090000000  0.4738000000000 1.0
C      1  0.4300030000000  0.5442780000000  0.4388800000000 1.0
C      1  0.5538460000000  0.5616250000000  0.4329030000000 1.0
C      1  0.5490360000000  0.5932080000000  0.5205660000000 1.0
C      1  0.5022470000000  0.4769440000000  0.4428360000000 1.0
C      1  0.5120120000000  0.4301060000000  0.4970490000000 1.0
C      1  0.5568530000000  0.5444410000000  0.4745000000000 1.0
C      1  0.5328970000000  0.4826750000000  0.4318280000000 1.0
C      1  0.4138370000000  0.4939060000000  0.5741320000000 1.0
C      1  0.4011170000000  0.4999720000000  0.4732230000000 1.0
C      1  0.4978310000000  0.4001160000000  0.5016110000000 1.0
C      1  0.4029880000000  0.4885600000000  0.5214190000000 1.0
C      1  0.5267950000000  0.5734690000000  0.5611270000000 1.0
C      1  0.4920030000000  0.5235920000000  0.5352010000000 1.0
C      1  0.5588790000000  0.5005000000000  0.4776170000000 1.0
C      1  0.5274960000000  0.3985250000000  0.5181690000000 1.0
C      1  0.5535050000000  0.4731230000000  0.3989390000000 1.0
C      1  0.4559180000000  0.4246550000000  0.4403110000000 1.0
C      1  0.4605720000000  0.5743490000000  0.5382250000000 1.0
C      1  0.5247290000000  0.5249910000000  0.3943130000000 1.0
C      1  0.4790220000000  0.5064010000000  0.4124040000000 1.0
C      1  0.5307860000000  0.4545100000000  0.5814480000000 1.0
C      1  0.4035920000000  0.5154930000000  0.5291600000000 1.0
C      1  0.5569390000000  0.4543040000000  0.4151220000000 1.0
C      1  0.4980500000000  0.5043350000000  0.5138110000000 1.0
C      1  0.5110880000000  0.4844070000000  0.5632470000000 1.0
C      1  0.4223050000000  0.5148570000000  0.4337730000000 1.0
C      1  0.4497030000000  0.5870350000000  0.5109180000000 1.0
C      1  0.4766470000000  0.4414710000000  0.5859080000000 1.0
C      1  0.4361290000000  0.4765210000000  0.5747500000000 1.0
C      1  0.5204090000000  0.5420180000000  0.5320660000000 1.0
C      1  0.4909900000000  0.4094160000000  0.5487840000000 1.0
C      1  0.4524000000000  0.4153290000000  0.4657960000000 1.0
C      1  0.4546120000000  0.5482000000000  0.5198110000000 1.0
C      1  0.5299090000000  0.4190290000000  0.4540090000000 1.0
C      1  0.4212570000000  0.5175840000000  0.5549650000000 1.0
C      1  0.5884060000000  0.4907230000000  0.4773500000000 1.0
C      1  0.5236840000000  0.5425390000000  0.4817590000000 1.0
C      1  0.4251330000000  0.5563010000000  0.5134250000000 1.0
C      1  0.5389270000000  0.5566300000000  0.5086910000000 1.0
C      1  0.5686500000000  0.5511940000000  0.5449350000000 1.0
C      1  0.4855130000000  0.4719960000000  0.5509730000000 1.0
C      1  0.5496760000000  0.5122450000000  0.4313170000000 1.0
C      1  0.4270970000000  0.4128420000000  0.4779690000000 1.0
C      1  0.5543120000000  0.5226790000000  0.5003090000000 1.0
C      1  0.5359660000000  0.4685050000000  0.4626030000000 1.0
C      1  0.4899580000000  0.5776520000000  0.5462820000000 1.0
C      1  0.5847760000000  0.4692000000000  0.5034260000000 1.0
C      1  0.5405020000000  0.5058820000000  0.5941640000000 1.0
C      1  0.5513290000000  0.4135570000000  0.4726280000000 1.0
END
