TITL C-2847954-6904-348 0.000809485838145008 125000 -1083.89454424649 0 0 200 (C1) n - 1
REM
REM in /home/bkarasulu/work/CARBON/AIRSS/Generating-Clusters/AIREBO/with-SteepDescent/Only-C1/SD-CG-opt/Try1-1.4A-POS3A/HFTN-CG
REM
REM
REM
REM
REM
REM ./C.cell (11c1c37f851c82e70ff6c80c92926a4b)
REM
REM compiler GCC version 9.2.1 20190827 (Red Hat 9.2.1-1)
REM options -cpp -mtune=generic -march=x86-64 -g -O0 -fpre-include=/usr/include/finclude/math-vector-fortran.h
REM seed 2055132245 -1556727177 -1843550262 1403885457 730477979 -1121826897 429792821 -2013909761 -1732612591 275918311 -707938657 450859103 727276142 1806587571 -1483961795 -1118457243 -1898951840 1183600056 1314547973 -606721963 -1642922214 107989649 1319470743 -1594027849 -2072200142 940354378 1380660962 -734142305 -627817066 1316334336 -733870017 592955777 -639323900
REM
CELL 1.54180   50.00000   50.00000   50.00000   90.00000   90.00000   90.00000
LATT -1
SFAC C  
C      1  0.3957490000000  0.5332310000000  0.5278690000000 1.0
C      1  0.4481590000000  0.5168270000000  0.5246630000000 1.0
C      1  0.3931260000000  0.5744720000000  0.4929380000000 1.0
C      1  0.4679660000000  0.4734490000000  0.5011070000000 1.0
C      1  0.5433180000000  0.4618260000000  0.5091510000000 1.0
C      1  0.5211150000000  0.5141730000000  0.5478850000000 1.0
C      1  0.5041060000000  0.6152430000000  0.4835020000000 1.0
C      1  0.4696290000000  0.4028990000000  0.4748770000000 1.0
C      1  0.5453950000000  0.5094070000000  0.3815890000000 1.0
C      1  0.5738020000000  0.5755860000000  0.5459900000000 1.0
C      1  0.5509930000000  0.5526680000000  0.5361570000000 1.0
C      1  0.4823000000000  0.4300840000000  0.5677850000000 1.0
C      1  0.5097170000000  0.4404320000000  0.4470490000000 1.0
C      1  0.4757020000000  0.5424870000000  0.4537170000000 1.0
C      1  0.5444270000000  0.5300720000000  0.5591240000000 1.0
C      1  0.5666820000000  0.4874460000000  0.4895680000000 1.0
C      1  0.5424710000000  0.3828420000000  0.5173080000000 1.0
C      1  0.4893280000000  0.5808050000000  0.5691790000000 1.0
C      1  0.5277650000000  0.5548680000000  0.5122090000000 1.0
C      1  0.4257050000000  0.5545540000000  0.4814120000000 1.0
C      1  0.5508470000000  0.5244260000000  0.5922050000000 1.0
C      1  0.4007450000000  0.5020310000000  0.5147160000000 1.0
C      1  0.5723830000000  0.4212940000000  0.5054550000000 1.0
C      1  0.4503070000000  0.6001370000000  0.4984500000000 1.0
C      1  0.4627320000000  0.5083300000000  0.4293750000000 1.0
C      1  0.4502920000000  0.3971120000000  0.5199900000000 1.0
C      1  0.5957410000000  0.5650700000000  0.4930140000000 1.0
C      1  0.5863650000000  0.4525630000000  0.5417890000000 1.0
C      1  0.4823770000000  0.4791140000000  0.5739070000000 1.0
C      1  0.4757030000000  0.5419460000000  0.3977880000000 1.0
C      1  0.6046010000000  0.5380580000000  0.4953900000000 1.0
C      1  0.6021480000000  0.5281820000000  0.5223930000000 1.0
C      1  0.5965910000000  0.5217140000000  0.4693410000000 1.0
C      1  0.4894520000000  0.5934810000000  0.4627240000000 1.0
C      1  0.4896290000000  0.6250420000000  0.4542520000000 1.0
C      1  0.4996270000000  0.4014840000000  0.4370150000000 1.0
C      1  0.5064240000000  0.5816780000000  0.4096040000000 1.0
C      1  0.4654430000000  0.4347610000000  0.4807100000000 1.0
C      1  0.5565970000000  0.4199580000000  0.4482580000000 1.0
C      1  0.5738760000000  0.4764900000000  0.4470990000000 1.0
C      1  0.4943970000000  0.4316530000000  0.4986010000000 1.0
C      1  0.5128660000000  0.5609350000000  0.5605690000000 1.0
C      1  0.4453330000000  0.5322770000000  0.4431650000000 1.0
C      1  0.4727640000000  0.5114140000000  0.4672190000000 1.0
C      1  0.4812010000000  0.4583800000000  0.5486560000000 1.0
C      1  0.4727840000000  0.4432710000000  0.4210770000000 1.0
C      1  0.5083380000000  0.5368330000000  0.5833470000000 1.0
C      1  0.4651010000000  0.4427530000000  0.5943470000000 1.0
C      1  0.5278270000000  0.5600450000000  0.5987690000000 1.0
C      1  0.4175490000000  0.4439420000000  0.5682080000000 1.0
C      1  0.5042920000000  0.5345820000000  0.3809040000000 1.0
C      1  0.5296740000000  0.6006240000000  0.4935070000000 1.0
C      1  0.4482780000000  0.5768190000000  0.4754960000000 1.0
C      1  0.5182390000000  0.4212930000000  0.5427390000000 1.0
C      1  0.5168140000000  0.4108120000000  0.4837450000000 1.0
C      1  0.5295420000000  0.4958350000000  0.5254750000000 1.0
C      1  0.5011890000000  0.4781110000000  0.5294410000000 1.0
C      1  0.3909980000000  0.4780490000000  0.4926620000000 1.0
C      1  0.5202830000000  0.5813190000000  0.4597560000000 1.0
C      1  0.5059070000000  0.5405000000000  0.5339620000000 1.0
C      1  0.5567920000000  0.4610230000000  0.4717660000000 1.0
C      1  0.4237100000000  0.5341470000000  0.5085900000000 1.0
C      1  0.4313360000000  0.5511990000000  0.5513570000000 1.0
C      1  0.5309790000000  0.4126930000000  0.5795250000000 1.0
C      1  0.4594050000000  0.4852030000000  0.5284610000000 1.0
C      1  0.3956130000000  0.5579510000000  0.4687410000000 1.0
C      1  0.4830700000000  0.5049170000000  0.5399200000000 1.0
C      1  0.4532850000000  0.4645160000000  0.4498830000000 1.0
C      1  0.4113350000000  0.4703240000000  0.5598050000000 1.0
C      1  0.4445080000000  0.4281760000000  0.5559200000000 1.0
C      1  0.5978650000000  0.5208570000000  0.4370390000000 1.0
C      1  0.4712710000000  0.5838020000000  0.5436960000000 1.0
C      1  0.4884850000000  0.5111510000000  0.3992850000000 1.0
C      1  0.4870160000000  0.5127780000000  0.5726320000000 1.0
C      1  0.4333410000000  0.5228320000000  0.5682730000000 1.0
C      1  0.6015590000000  0.5006120000000  0.5303520000000 1.0
C      1  0.4410040000000  0.5709270000000  0.4160360000000 1.0
C      1  0.5451890000000  0.4243010000000  0.4102720000000 1.0
C      1  0.5421210000000  0.4922610000000  0.5980680000000 1.0
C      1  0.4487220000000  0.4827290000000  0.4242500000000 1.0
C      1  0.4218910000000  0.4915670000000  0.5751930000000 1.0
C      1  0.5477340000000  0.4313430000000  0.5565530000000 1.0
C      1  0.5356210000000  0.5333730000000  0.6425800000000 1.0
C      1  0.4429230000000  0.5655270000000  0.5226340000000 1.0
C      1  0.5525300000000  0.5401230000000  0.4941630000000 1.0
C      1  0.5131860000000  0.3813720000000  0.5172230000000 1.0
C      1  0.5557100000000  0.4796680000000  0.5332170000000 1.0
C      1  0.5272400000000  0.4744820000000  0.4818870000000 1.0
C      1  0.4752610000000  0.4638920000000  0.3944780000000 1.0
C      1  0.4755230000000  0.5357530000000  0.6270770000000 1.0
C      1  0.5420770000000  0.5112730000000  0.4690860000000 1.0
C      1  0.5214590000000  0.4778420000000  0.4233240000000 1.0
C      1  0.5637640000000  0.5624450000000  0.4378700000000 1.0
C      1  0.4212790000000  0.4703240000000  0.5276680000000 1.0
C      1  0.4417550000000  0.5660890000000  0.4437880000000 1.0
C      1  0.4907040000000  0.5471510000000  0.4254650000000 1.0
C      1  0.3919580000000  0.5445900000000  0.4448800000000 1.0
C      1  0.5058190000000  0.3731240000000  0.4902660000000 1.0
C      1  0.4362580000000  0.5260930000000  0.4720170000000 1.0
C      1  0.4596250000000  0.5239520000000  0.5849880000000 1.0
C      1  0.4387410000000  0.4392880000000  0.4968470000000 1.0
C      1  0.5335430000000  0.4368530000000  0.4933790000000 1.0
C      1  0.4607640000000  0.5224240000000  0.4949180000000 1.0
C      1  0.5731640000000  0.4699190000000  0.4137470000000 1.0
C      1  0.4957080000000  0.5071990000000  0.4316320000000 1.0
C      1  0.5157190000000  0.5316750000000  0.4373770000000 1.0
C      1  0.4189330000000  0.5124330000000  0.5415050000000 1.0
C      1  0.5133010000000  0.5570560000000  0.4814940000000 1.0
C      1  0.5807190000000  0.4403670000000  0.4842960000000 1.0
C      1  0.4839010000000  0.4812740000000  0.6219980000000 1.0
C      1  0.4458370000000  0.4278910000000  0.5238860000000 1.0
C      1  0.5350310000000  0.4382230000000  0.4612710000000 1.0
C      1  0.5173370000000  0.4879450000000  0.6204890000000 1.0
C      1  0.4685680000000  0.4906180000000  0.3904960000000 1.0
C      1  0.4799560000000  0.5647730000000  0.4782750000000 1.0
C      1  0.4151800000000  0.4376320000000  0.4734120000000 1.0
C      1  0.6031630000000  0.4693600000000  0.5244690000000 1.0
C      1  0.5604930000000  0.5570330000000  0.5922340000000 1.0
C      1  0.5064040000000  0.4220710000000  0.5867860000000 1.0
C      1  0.4721800000000  0.5369080000000  0.5382920000000 1.0
C      1  0.4691620000000  0.4062320000000  0.5474020000000 1.0
C      1  0.5202750000000  0.5848690000000  0.5153480000000 1.0
C      1  0.5145050000000  0.4257000000000  0.4183190000000 1.0
C      1  0.5577930000000  0.3988560000000  0.4993660000000 1.0
C      1  0.4634380000000  0.4681530000000  0.6069650000000 1.0
C      1  0.5946580000000  0.4931450000000  0.4776480000000 1.0
C      1  0.4523820000000  0.4895700000000  0.5861390000000 1.0
C      1  0.4473550000000  0.4607540000000  0.5464190000000 1.0
C      1  0.5436650000000  0.4905540000000  0.4463980000000 1.0
C      1  0.5076220000000  0.4412440000000  0.6060630000000 1.0
C      1  0.5488540000000  0.4880620000000  0.4068950000000 1.0
C      1  0.4147220000000  0.5063410000000  0.4776530000000 1.0
C      1  0.4010460000000  0.4839440000000  0.4603620000000 1.0
C      1  0.4925980000000  0.5291690000000  0.5047850000000 1.0
C      1  0.4197520000000  0.4607820000000  0.4541600000000 1.0
C      1  0.5661380000000  0.5324060000000  0.4639400000000 1.0
C      1  0.6023260000000  0.4639330000000  0.4608820000000 1.0
C      1  0.5013790000000  0.5074540000000  0.4797250000000 1.0
C      1  0.4726320000000  0.5695850000000  0.5930840000000 1.0
C      1  0.5530670000000  0.5897950000000  0.4808200000000 1.0
C      1  0.4942330000000  0.6124760000000  0.5589890000000 1.0
C      1  0.5578030000000  0.5210030000000  0.4092340000000 1.0
C      1  0.4154730000000  0.5283520000000  0.4281880000000 1.0
C      1  0.5677150000000  0.5689250000000  0.4934730000000 1.0
C      1  0.4342980000000  0.4129170000000  0.4672340000000 1.0
C      1  0.5108060000000  0.4868600000000  0.4543490000000 1.0
C      1  0.5097230000000  0.4700820000000  0.5925270000000 1.0
C      1  0.4716040000000  0.4459010000000  0.5185060000000 1.0
C      1  0.4472160000000  0.5486290000000  0.3987020000000 1.0
C      1  0.5319750000000  0.4600160000000  0.5472910000000 1.0
C      1  0.4871400000000  0.4624810000000  0.4529760000000 1.0
C      1  0.4904700000000  0.5850780000000  0.5194250000000 1.0
C      1  0.5790910000000  0.5055320000000  0.5908290000000 1.0
C      1  0.5272140000000  0.5218340000000  0.3660650000000 1.0
C      1  0.5694990000000  0.4391070000000  0.4227900000000 1.0
C      1  0.4736850000000  0.5568030000000  0.5107500000000 1.0
C      1  0.4980230000000  0.4796410000000  0.4966340000000 1.0
C      1  0.4080080000000  0.4529630000000  0.5019140000000 1.0
C      1  0.5517800000000  0.5828480000000  0.4514400000000 1.0
C      1  0.5183460000000  0.5315120000000  0.4677680000000 1.0
C      1  0.5617000000000  0.4391150000000  0.5265420000000 1.0
C      1  0.4456250000000  0.3927840000000  0.4922070000000 1.0
C      1  0.5133480000000  0.5965150000000  0.4309550000000 1.0
C      1  0.5176570000000  0.4982630000000  0.5752310000000 1.0
C      1  0.4308630000000  0.5257930000000  0.4020390000000 1.0
C      1  0.4879040000000  0.6212220000000  0.5363360000000 1.0
C      1  0.5028370000000  0.4566690000000  0.4115780000000 1.0
C      1  0.4244950000000  0.5810930000000  0.5540260000000 1.0
C      1  0.5007590000000  0.3989040000000  0.5370440000000 1.0
C      1  0.5824710000000  0.5401080000000  0.4227710000000 1.0
C      1  0.4809220000000  0.6126500000000  0.5053820000000 1.0
C      1  0.5947180000000  0.4940940000000  0.4267990000000 1.0
C      1  0.3924110000000  0.5106260000000  0.4445230000000 1.0
C      1  0.5455220000000  0.5696190000000  0.5644160000000 1.0
C      1  0.5107220000000  0.4457790000000  0.5248840000000 1.0
C      1  0.5868870000000  0.4351030000000  0.4512760000000 1.0
C      1  0.5716730000000  0.4519430000000  0.5725500000000 1.0
C      1  0.5925150000000  0.5474200000000  0.5418810000000 1.0
C      1  0.5796950000000  0.4843140000000  0.5736480000000 1.0
C      1  0.5053540000000  0.5665420000000  0.3875130000000 1.0
C      1  0.5283720000000  0.3725080000000  0.4710950000000 1.0
C      1  0.4773440000000  0.4111520000000  0.4203180000000 1.0
C      1  0.5408440000000  0.4645420000000  0.5784200000000 1.0
C      1  0.5461930000000  0.3998490000000  0.4705620000000 1.0
C      1  0.4564840000000  0.4307010000000  0.4481570000000 1.0
C      1  0.4405640000000  0.4992600000000  0.3974450000000 1.0
C      1  0.5240760000000  0.5294680000000  0.6131700000000 1.0
C      1  0.5754000000000  0.5416550000000  0.5658670000000 1.0
C      1  0.4956780000000  0.3948310000000  0.4661250000000 1.0
C      1  0.6009340000000  0.4650830000000  0.4948360000000 1.0
C      1  0.4956880000000  0.5131700000000  0.6223920000000 1.0
C      1  0.5783400000000  0.4913180000000  0.5465820000000 1.0
C      1  0.4524630000000  0.4857490000000  0.4764690000000 1.0
C      1  0.4444440000000  0.5974040000000  0.5318440000000 1.0
C      1  0.5460410000000  0.5339140000000  0.4364760000000 1.0
C      1  0.4094580000000  0.5626580000000  0.5170980000000 1.0
C      1  0.3907740000000  0.5224720000000  0.4894340000000 1.0
C      1  0.5460840000000  0.5074300000000  0.5018480000000 1.0
C      1  0.4298290000000  0.4898060000000  0.5016220000000 1.0
C      1  0.4651690000000  0.5459500000000  0.6039530000000 1.0
END
