TITL C-2848500-1637-211 -0.000209805594035346 125000 -784.784290067385 0 0 154 (C1) n - 1
REM
REM in /home/bkarasulu/work/CARBON/AIRSS/Generating-Clusters/AIREBO/with-SteepDescent/Only-C1/SD-CG-opt/Try1-1.4A-POS3A/HFTN-CG
REM
REM
REM
REM
REM
REM ./C.cell (11c1c37f851c82e70ff6c80c92926a4b)
REM
REM compiler GCC version 9.2.1 20190827 (Red Hat 9.2.1-1)
REM options -cpp -mtune=generic -march=x86-64 -g -O0 -fpre-include=/usr/include/finclude/math-vector-fortran.h
REM seed 331963924 696744591 -946942145 -1389344768 1440057959 -817526990 84165341 1665966956 1395433229 -1349558722 -1315758752 2036657060 2050797572 -1047918488 1464599025 -270157174 405781312 -241170947 -762457504 -1046515583 -830321887 1739817674 310662276 2069643628 -442228463 29668775 -1615305206 8262546 1920534290 782516207 -1481857702 -876304164 -1243954457
REM
CELL 1.54180   50.00000   50.00000   50.00000   90.00000   90.00000   90.00000
LATT -1
SFAC C  
C      1  0.5014680000000  0.4572610000000  0.4607370000000 1.0
C      1  0.5483540000000  0.4932510000000  0.5893310000000 1.0
C      1  0.4801060000000  0.5217880000000  0.5583610000000 1.0
C      1  0.4781930000000  0.5459210000000  0.4361530000000 1.0
C      1  0.5037280000000  0.3918670000000  0.5415640000000 1.0
C      1  0.4310750000000  0.5045070000000  0.4193400000000 1.0
C      1  0.5532350000000  0.4819300000000  0.4118970000000 1.0
C      1  0.5327990000000  0.4628110000000  0.5415650000000 1.0
C      1  0.5545120000000  0.4512950000000  0.5650590000000 1.0
C      1  0.4495270000000  0.4221130000000  0.4802170000000 1.0
C      1  0.4102490000000  0.4545560000000  0.4875900000000 1.0
C      1  0.5119600000000  0.4369440000000  0.4215950000000 1.0
C      1  0.5777230000000  0.5147670000000  0.4797570000000 1.0
C      1  0.5535960000000  0.6140310000000  0.5050250000000 1.0
C      1  0.5528650000000  0.5690110000000  0.5313290000000 1.0
C      1  0.4737310000000  0.4072650000000  0.4991610000000 1.0
C      1  0.4705500000000  0.4902800000000  0.4476320000000 1.0
C      1  0.4985950000000  0.5811060000000  0.5558200000000 1.0
C      1  0.4289220000000  0.4557660000000  0.5137810000000 1.0
C      1  0.5454520000000  0.5601080000000  0.5601000000000 1.0
C      1  0.4244800000000  0.4703350000000  0.5372620000000 1.0
C      1  0.5276470000000  0.4002490000000  0.4906490000000 1.0
C      1  0.4870010000000  0.4519220000000  0.5897230000000 1.0
C      1  0.5187010000000  0.5346670000000  0.6103380000000 1.0
C      1  0.5045250000000  0.5922730000000  0.5245550000000 1.0
C      1  0.5352270000000  0.5615740000000  0.4876880000000 1.0
C      1  0.4638350000000  0.4894980000000  0.5221120000000 1.0
C      1  0.5359730000000  0.5936350000000  0.5177530000000 1.0
C      1  0.4402460000000  0.5762510000000  0.4965690000000 1.0
C      1  0.5687370000000  0.5171710000000  0.4412800000000 1.0
C      1  0.4482260000000  0.5137150000000  0.5573310000000 1.0
C      1  0.5397510000000  0.5388120000000  0.4202120000000 1.0
C      1  0.4553310000000  0.4415690000000  0.5074970000000 1.0
C      1  0.4538590000000  0.5228190000000  0.4804470000000 1.0
C      1  0.5141480000000  0.4676700000000  0.4985770000000 1.0
C      1  0.5860870000000  0.4545350000000  0.5168430000000 1.0
C      1  0.4468620000000  0.5593810000000  0.4054860000000 1.0
C      1  0.4033350000000  0.5152580000000  0.5095920000000 1.0
C      1  0.5311630000000  0.4981300000000  0.3911000000000 1.0
C      1  0.4671880000000  0.5473100000000  0.5872900000000 1.0
C      1  0.5259610000000  0.5317830000000  0.5797520000000 1.0
C      1  0.5028750000000  0.5019150000000  0.5457280000000 1.0
C      1  0.5868630000000  0.4515330000000  0.4769800000000 1.0
C      1  0.4534930000000  0.4452680000000  0.4552750000000 1.0
C      1  0.5680830000000  0.4824600000000  0.5638080000000 1.0
C      1  0.4637060000000  0.5613860000000  0.5106800000000 1.0
C      1  0.5178670000000  0.4209940000000  0.5475210000000 1.0
C      1  0.4582730000000  0.5880780000000  0.4515020000000 1.0
C      1  0.5049510000000  0.5195680000000  0.3984440000000 1.0
C      1  0.4918000000000  0.4766640000000  0.5311040000000 1.0
C      1  0.5497420000000  0.4267310000000  0.5419920000000 1.0
C      1  0.4382910000000  0.5456700000000  0.5219230000000 1.0
C      1  0.5408340000000  0.5120700000000  0.6110850000000 1.0
C      1  0.5138280000000  0.5193900000000  0.4619750000000 1.0
C      1  0.5019350000000  0.5212040000000  0.5036340000000 1.0
C      1  0.5638910000000  0.5228200000000  0.5288510000000 1.0
C      1  0.5805030000000  0.4842860000000  0.4223140000000 1.0
C      1  0.4480890000000  0.5328970000000  0.4271660000000 1.0
C      1  0.4767150000000  0.4144860000000  0.5809600000000 1.0
C      1  0.5854310000000  0.4933700000000  0.4544620000000 1.0
C      1  0.4571180000000  0.4365340000000  0.5887650000000 1.0
C      1  0.5415550000000  0.4531830000000  0.4175300000000 1.0
C      1  0.5707090000000  0.5164160000000  0.5600270000000 1.0
C      1  0.5010150000000  0.4182340000000  0.5017570000000 1.0
C      1  0.5717480000000  0.4756350000000  0.4749780000000 1.0
C      1  0.4282550000000  0.5451000000000  0.4499020000000 1.0
C      1  0.5377360000000  0.4327910000000  0.4443580000000 1.0
C      1  0.5888250000000  0.5483690000000  0.4722730000000 1.0
C      1  0.5068440000000  0.6079590000000  0.4496590000000 1.0
C      1  0.4194520000000  0.4695960000000  0.4583480000000 1.0
C      1  0.5357710000000  0.5094200000000  0.4216620000000 1.0
C      1  0.4382390000000  0.5720550000000  0.4657780000000 1.0
C      1  0.4872070000000  0.5205730000000  0.5903360000000 1.0
C      1  0.4323530000000  0.5156550000000  0.5273210000000 1.0
C      1  0.5592530000000  0.4886970000000  0.5037860000000 1.0
C      1  0.5178530000000  0.4992000000000  0.5761420000000 1.0
C      1  0.5207520000000  0.5637040000000  0.4152180000000 1.0
C      1  0.5230870000000  0.4711780000000  0.4384860000000 1.0
C      1  0.4391220000000  0.4925430000000  0.5020260000000 1.0
C      1  0.4129800000000  0.5655040000000  0.5112740000000 1.0
C      1  0.4086750000000  0.4869630000000  0.4924070000000 1.0
C      1  0.5554570000000  0.6108840000000  0.4795820000000 1.0
C      1  0.4902800000000  0.5462690000000  0.6123890000000 1.0
C      1  0.5041020000000  0.5341640000000  0.5350010000000 1.0
C      1  0.5147490000000  0.4623110000000  0.6034100000000 1.0
C      1  0.4070110000000  0.5009520000000  0.4626090000000 1.0
C      1  0.5138470000000  0.4346590000000  0.4763310000000 1.0
C      1  0.5122880000000  0.4679300000000  0.5640080000000 1.0
C      1  0.5270530000000  0.5858350000000  0.4378100000000 1.0
C      1  0.5058400000000  0.4279310000000  0.5746800000000 1.0
C      1  0.5770020000000  0.5518200000000  0.5213810000000 1.0
C      1  0.4846080000000  0.4094060000000  0.4472910000000 1.0
C      1  0.5178660000000  0.5508340000000  0.4634730000000 1.0
C      1  0.4788280000000  0.4128210000000  0.5495400000000 1.0
C      1  0.4077340000000  0.4937540000000  0.5357430000000 1.0
C      1  0.5387690000000  0.4524950000000  0.5938210000000 1.0
C      1  0.4884240000000  0.5605580000000  0.4651000000000 1.0
C      1  0.4850040000000  0.5936440000000  0.4687750000000 1.0
C      1  0.5939330000000  0.4722450000000  0.5447890000000 1.0
C      1  0.4590840000000  0.4133880000000  0.5261450000000 1.0
C      1  0.4826030000000  0.4420660000000  0.4379830000000 1.0
C      1  0.5457300000000  0.4937090000000  0.4501570000000 1.0
C      1  0.4754060000000  0.5782080000000  0.5312840000000 1.0
C      1  0.4983330000000  0.4920850000000  0.6030640000000 1.0
C      1  0.6018740000000  0.5144470000000  0.5035090000000 1.0
C      1  0.5247670000000  0.5553050000000  0.5182070000000 1.0
C      1  0.4389390000000  0.5018970000000  0.4523190000000 1.0
C      1  0.4708060000000  0.4697170000000  0.4205450000000 1.0
C      1  0.4127220000000  0.5539660000000  0.4791180000000 1.0
C      1  0.5039450000000  0.4879620000000  0.4077680000000 1.0
C      1  0.5437930000000  0.5142110000000  0.4772250000000 1.0
C      1  0.4360000000000  0.4189110000000  0.4428040000000 1.0
C      1  0.4798070000000  0.5211300000000  0.4585360000000 1.0
C      1  0.4719700000000  0.5614830000000  0.5588380000000 1.0
C      1  0.5265240000000  0.4977000000000  0.5014200000000 1.0
C      1  0.5448040000000  0.5584450000000  0.4463400000000 1.0
C      1  0.4649710000000  0.5036230000000  0.4167880000000 1.0
C      1  0.5406070000000  0.4270420000000  0.5082690000000 1.0
C      1  0.4651220000000  0.4881820000000  0.5973280000000 1.0
C      1  0.5134990000000  0.5546140000000  0.5604890000000 1.0
C      1  0.5100010000000  0.5920400000000  0.4917930000000 1.0
C      1  0.5578960000000  0.5362350000000  0.5751760000000 1.0
C      1  0.4817360000000  0.4587900000000  0.5039770000000 1.0
C      1  0.4184190000000  0.5605170000000  0.5447900000000 1.0
C      1  0.5704960000000  0.5433340000000  0.4504080000000 1.0
C      1  0.5469590000000  0.4380910000000  0.4766890000000 1.0
C      1  0.5388280000000  0.4710480000000  0.4746120000000 1.0
C      1  0.4184920000000  0.4777630000000  0.4290390000000 1.0
C      1  0.5066500000000  0.4057270000000  0.4643330000000 1.0
C      1  0.5911340000000  0.4887400000000  0.5156250000000 1.0
C      1  0.4586510000000  0.4011920000000  0.4550150000000 1.0
C      1  0.4461310000000  0.4693770000000  0.4781170000000 1.0
C      1  0.4793620000000  0.5435000000000  0.4913300000000 1.0
C      1  0.5542430000000  0.4572740000000  0.5157670000000 1.0
C      1  0.4958030000000  0.4579290000000  0.4038200000000 1.0
C      1  0.5949920000000  0.5438360000000  0.5009320000000 1.0
C      1  0.4765650000000  0.5040560000000  0.4953960000000 1.0
C      1  0.4520020000000  0.4802290000000  0.5526100000000 1.0
C      1  0.5356470000000  0.5892270000000  0.4699880000000 1.0
C      1  0.4631940000000  0.5745670000000  0.4267500000000 1.0
C      1  0.5510760000000  0.4921500000000  0.5360040000000 1.0
C      1  0.4792250000000  0.4771260000000  0.4770780000000 1.0
C      1  0.5004740000000  0.5425680000000  0.4137160000000 1.0
C      1  0.4584000000000  0.4475930000000  0.5597230000000 1.0
C      1  0.5747500000000  0.4310260000000  0.4950240000000 1.0
C      1  0.5458950000000  0.5343680000000  0.5038190000000 1.0
C      1  0.5135930000000  0.4427310000000  0.5217090000000 1.0
C      1  0.4440720000000  0.5048710000000  0.5898990000000 1.0
C      1  0.4420870000000  0.5464690000000  0.5641330000000 1.0
C      1  0.4223980000000  0.5231690000000  0.4825440000000 1.0
C      1  0.4160880000000  0.4236820000000  0.4804520000000 1.0
C      1  0.4812990000000  0.4784890000000  0.5697970000000 1.0
C      1  0.5031670000000  0.4957590000000  0.4397250000000 1.0
C      1  0.4855280000000  0.4446890000000  0.5408260000000 1.0
END
