TITL C-2848505-4874-387 -0.000341438505565601 125000 -198.772986823927 0 0 37 (C1) n - 1
REM
REM in /home/bkarasulu/work/CARBON/AIRSS/Generating-Clusters/AIREBO/with-SteepDescent/Only-C1/SD-CG-opt/Try1-1.4A-POS3A/HFTN-CG
REM
REM
REM
REM
REM
REM ./C.cell (11c1c37f851c82e70ff6c80c92926a4b)
REM
REM compiler GCC version 9.2.1 20190827 (Red Hat 9.2.1-1)
REM options -cpp -mtune=generic -march=x86-64 -g -O0 -fpre-include=/usr/include/finclude/math-vector-fortran.h
REM seed 332593199 2121156718 -1858825305 225862636 -115906915 -1122464430 396665485 -2070941280 -316651403 -1593366433 -542520889 -997282240 -1017681499 -1051674047 859745390 212440839 1532762825 -956094235 885608515 2037371193 1983894304 645433239 -1069000092 -159529778 -948054058 2036833055 -1708746646 -1361564083 -2119576522 -573282129 -1301413319 623288968 -1107792448
REM
CELL 1.54180   50.00000   50.00000   50.00000   90.00000   90.00000   90.00000
LATT -1
SFAC C  
C      1  0.5217310000000  0.5302140000000  0.4529610000000 1.0
C      1  0.5170130000000  0.5436820000000  0.5528990000000 1.0
C      1  0.5125670000000  0.5599740000000  0.5087960000000 1.0
C      1  0.4654020000000  0.4590120000000  0.5239320000000 1.0
C      1  0.4543270000000  0.4924480000000  0.4773560000000 1.0
C      1  0.4530200000000  0.5470140000000  0.5151140000000 1.0
C      1  0.4848170000000  0.5439030000000  0.4568200000000 1.0
C      1  0.4757080000000  0.5091090000000  0.5348290000000 1.0
C      1  0.4873460000000  0.4907430000000  0.5088730000000 1.0
C      1  0.5134750000000  0.4538830000000  0.5139080000000 1.0
C      1  0.5088670000000  0.4422950000000  0.4630240000000 1.0
C      1  0.5050810000000  0.4663890000000  0.4833990000000 1.0
C      1  0.5369720000000  0.4553750000000  0.4622380000000 1.0
C      1  0.4601960000000  0.5509580000000  0.4671120000000 1.0
C      1  0.4871180000000  0.4307330000000  0.4819970000000 1.0
C      1  0.5291940000000  0.4778320000000  0.5329740000000 1.0
C      1  0.5299490000000  0.4283360000000  0.5291610000000 1.0
C      1  0.4864530000000  0.4933000000000  0.4749800000000 1.0
C      1  0.4991120000000  0.5514430000000  0.5323050000000 1.0
C      1  0.4788680000000  0.4769830000000  0.5455710000000 1.0
C      1  0.5118740000000  0.5588260000000  0.4531750000000 1.0
C      1  0.5364010000000  0.5249680000000  0.5479660000000 1.0
C      1  0.4461920000000  0.5396690000000  0.4887190000000 1.0
C      1  0.5038730000000  0.4694690000000  0.5534110000000 1.0
C      1  0.5193340000000  0.4937540000000  0.4977470000000 1.0
C      1  0.5465500000000  0.5229110000000  0.4983390000000 1.0
C      1  0.5352820000000  0.5484950000000  0.4982640000000 1.0
C      1  0.5281660000000  0.4488390000000  0.5505610000000 1.0
C      1  0.5554130000000  0.5064150000000  0.4774090000000 1.0
C      1  0.4744010000000  0.5381230000000  0.5308840000000 1.0
C      1  0.5377590000000  0.5056320000000  0.5237410000000 1.0
C      1  0.4879450000000  0.5005530000000  0.4267370000000 1.0
C      1  0.4831120000000  0.4441280000000  0.5079140000000 1.0
C      1  0.4544200000000  0.4889720000000  0.5171740000000 1.0
C      1  0.4376860000000  0.5130280000000  0.4842480000000 1.0
C      1  0.4936720000000  0.5114090000000  0.4519890000000 1.0
C      1  0.5407020000000  0.4811840000000  0.4734730000000 1.0
END
