TITL C-2848502-4955-221 -0.00123013455883371 125000 -1023.65197619999 0 0 191 (C1) n - 1
REM
REM in /home/bkarasulu/work/CARBON/AIRSS/Generating-Clusters/AIREBO/with-SteepDescent/Only-C1/SD-CG-opt/Try1-1.4A-POS3A/HFTN-CG
REM
REM
REM
REM
REM
REM ./C.cell (11c1c37f851c82e70ff6c80c92926a4b)
REM
REM compiler GCC version 9.2.1 20190827 (Red Hat 9.2.1-1)
REM options -cpp -mtune=generic -march=x86-64 -g -O0 -fpre-include=/usr/include/finclude/math-vector-fortran.h
REM seed -1977181194 1723062849 1343713578 -1492799284 481987280 1808798070 176799798 -1039120011 542663400 -154270920 2085327231 -1371823692 1973606220 460888077 150097577 -1823961925 528702555 482779481 919541853 -293281614 30846917 1970373757 -1979628038 -1992146441 -1436939288 1733995147 1816285501 434354568 -1867973215 -1597816849 -58241635 -1933438375 1597711873
REM
CELL 1.54180   50.00000   50.00000   50.00000   90.00000   90.00000   90.00000
LATT -1
SFAC C  
C      1  0.5030760000000  0.5227690000000  0.4413470000000 1.0
C      1  0.5726010000000  0.4822220000000  0.5766100000000 1.0
C      1  0.4796380000000  0.4532460000000  0.3927040000000 1.0
C      1  0.4937770000000  0.5811160000000  0.4054300000000 1.0
C      1  0.5246510000000  0.5189870000000  0.5163850000000 1.0
C      1  0.4468270000000  0.5416240000000  0.4228850000000 1.0
C      1  0.4549230000000  0.5915000000000  0.5383400000000 1.0
C      1  0.5642960000000  0.5316710000000  0.5332290000000 1.0
C      1  0.4442440000000  0.5651140000000  0.5793740000000 1.0
C      1  0.4832520000000  0.4311170000000  0.4910920000000 1.0
C      1  0.4048470000000  0.5537220000000  0.5172930000000 1.0
C      1  0.5281860000000  0.4961190000000  0.4154440000000 1.0
C      1  0.6002450000000  0.4509680000000  0.4809280000000 1.0
C      1  0.5689230000000  0.5453620000000  0.5027350000000 1.0
C      1  0.4353170000000  0.5573270000000  0.5317680000000 1.0
C      1  0.6379810000000  0.5146490000000  0.5494510000000 1.0
C      1  0.4854030000000  0.5924670000000  0.4562480000000 1.0
C      1  0.4091990000000  0.5719920000000  0.4644130000000 1.0
C      1  0.5565940000000  0.5698690000000  0.5772170000000 1.0
C      1  0.4976280000000  0.4945030000000  0.5972220000000 1.0
C      1  0.4227710000000  0.4325470000000  0.5589780000000 1.0
C      1  0.5029740000000  0.5842010000000  0.5386640000000 1.0
C      1  0.5490500000000  0.4106930000000  0.4800710000000 1.0
C      1  0.4464870000000  0.3955270000000  0.4267130000000 1.0
C      1  0.3962810000000  0.4660870000000  0.5272470000000 1.0
C      1  0.5131430000000  0.5644560000000  0.4932350000000 1.0
C      1  0.4737970000000  0.4052430000000  0.4723850000000 1.0
C      1  0.5427690000000  0.5417400000000  0.4813070000000 1.0
C      1  0.4526230000000  0.5302060000000  0.6167340000000 1.0
C      1  0.5521480000000  0.5677060000000  0.5456330000000 1.0
C      1  0.5695170000000  0.5222130000000  0.4198240000000 1.0
C      1  0.4512800000000  0.4113100000000  0.4546390000000 1.0
C      1  0.4947470000000  0.4924750000000  0.4379920000000 1.0
C      1  0.4555690000000  0.4995780000000  0.4350350000000 1.0
C      1  0.5321600000000  0.5404880000000  0.5416380000000 1.0
C      1  0.5118780000000  0.5267740000000  0.4739740000000 1.0
C      1  0.5253690000000  0.4224650000000  0.4623430000000 1.0
C      1  0.5261740000000  0.4648320000000  0.4792080000000 1.0
C      1  0.4323420000000  0.4091910000000  0.5440300000000 1.0
C      1  0.5147420000000  0.4940990000000  0.4724560000000 1.0
C      1  0.6076670000000  0.4877400000000  0.4675360000000 1.0
C      1  0.5204480000000  0.4896740000000  0.5262780000000 1.0
C      1  0.5581390000000  0.4586900000000  0.4774340000000 1.0
C      1  0.5288840000000  0.4413340000000  0.4077700000000 1.0
C      1  0.5498650000000  0.5865970000000  0.5232730000000 1.0
C      1  0.5134690000000  0.4094340000000  0.5378940000000 1.0
C      1  0.4185690000000  0.4541440000000  0.4451430000000 1.0
C      1  0.5169850000000  0.4290810000000  0.4948760000000 1.0
C      1  0.5672410000000  0.5445520000000  0.5864090000000 1.0
C      1  0.5357670000000  0.5986330000000  0.4743590000000 1.0
C      1  0.4979320000000  0.5358750000000  0.5036310000000 1.0
C      1  0.4921360000000  0.3917270000000  0.4977020000000 1.0
C      1  0.5112310000000  0.4073870000000  0.5717590000000 1.0
C      1  0.4694600000000  0.5066010000000  0.4826720000000 1.0
C      1  0.4913040000000  0.3882610000000  0.5514510000000 1.0
C      1  0.4279540000000  0.4135280000000  0.5146810000000 1.0
C      1  0.5815920000000  0.5058120000000  0.4654360000000 1.0
C      1  0.5740120000000  0.5147540000000  0.4960940000000 1.0
C      1  0.5216000000000  0.4710770000000  0.5612800000000 1.0
C      1  0.5442380000000  0.5287360000000  0.5929890000000 1.0
C      1  0.5207800000000  0.5357280000000  0.5733680000000 1.0
C      1  0.6113660000000  0.5500810000000  0.4715840000000 1.0
C      1  0.3970060000000  0.5720920000000  0.4897750000000 1.0
C      1  0.5404840000000  0.4717400000000  0.3978900000000 1.0
C      1  0.4677400000000  0.5332390000000  0.5744200000000 1.0
C      1  0.4689290000000  0.5525430000000  0.5338150000000 1.0
C      1  0.4867660000000  0.4577170000000  0.5119780000000 1.0
C      1  0.4774340000000  0.5208480000000  0.6045950000000 1.0
C      1  0.4387230000000  0.5605310000000  0.4701960000000 1.0
C      1  0.4753620000000  0.5616340000000  0.5038480000000 1.0
C      1  0.3935140000000  0.5337990000000  0.4787680000000 1.0
C      1  0.5446820000000  0.5029330000000  0.4973960000000 1.0
C      1  0.4589630000000  0.5862520000000  0.4768580000000 1.0
C      1  0.4206610000000  0.5602210000000  0.4352270000000 1.0
C      1  0.4339910000000  0.4773240000000  0.4899780000000 1.0
C      1  0.5204230000000  0.5445270000000  0.3930810000000 1.0
C      1  0.5017810000000  0.5132450000000  0.5691500000000 1.0
C      1  0.5346820000000  0.5786190000000  0.5907910000000 1.0
C      1  0.4148510000000  0.5312690000000  0.4225280000000 1.0
C      1  0.5600550000000  0.4307220000000  0.5271560000000 1.0
C      1  0.4737380000000  0.4750280000000  0.4864800000000 1.0
C      1  0.4462820000000  0.4464180000000  0.4896310000000 1.0
C      1  0.4554180000000  0.5956400000000  0.5098820000000 1.0
C      1  0.4227790000000  0.4746970000000  0.4188950000000 1.0
C      1  0.3950300000000  0.5244510000000  0.5069040000000 1.0
C      1  0.5388080000000  0.5241640000000  0.4077050000000 1.0
C      1  0.4109560000000  0.5044460000000  0.4298980000000 1.0
C      1  0.5284280000000  0.4796900000000  0.6055880000000 1.0
C      1  0.4701910000000  0.4743970000000  0.5592650000000 1.0
C      1  0.5008620000000  0.4640820000000  0.5823800000000 1.0
C      1  0.5638850000000  0.4443530000000  0.4393410000000 1.0
C      1  0.4160060000000  0.4954680000000  0.5731860000000 1.0
C      1  0.4454250000000  0.4806990000000  0.4581270000000 1.0
C      1  0.5468870000000  0.4820100000000  0.5463040000000 1.0
C      1  0.4186490000000  0.5335520000000  0.4649420000000 1.0
C      1  0.5211360000000  0.5572500000000  0.4498850000000 1.0
C      1  0.4771310000000  0.5653530000000  0.5767470000000 1.0
C      1  0.5630460000000  0.5501560000000  0.4385600000000 1.0
C      1  0.5058700000000  0.3971450000000  0.4670730000000 1.0
C      1  0.4965740000000  0.4876950000000  0.5504080000000 1.0
C      1  0.4961050000000  0.4379110000000  0.5357380000000 1.0
C      1  0.5346970000000  0.4401040000000  0.4389130000000 1.0
C      1  0.4324880000000  0.5393060000000  0.5918960000000 1.0
C      1  0.4411580000000  0.5003760000000  0.4042300000000 1.0
C      1  0.4523270000000  0.4528600000000  0.4412660000000 1.0
C      1  0.5120750000000  0.4586450000000  0.3838050000000 1.0
C      1  0.5996630000000  0.4615220000000  0.5338170000000 1.0
C      1  0.4663480000000  0.4838810000000  0.5890690000000 1.0
C      1  0.4457020000000  0.4777160000000  0.5405840000000 1.0
C      1  0.4070130000000  0.5317830000000  0.5431880000000 1.0
C      1  0.5885710000000  0.4392310000000  0.5106630000000 1.0
C      1  0.5058440000000  0.5613630000000  0.5864310000000 1.0
C      1  0.5647790000000  0.5059430000000  0.5556060000000 1.0
C      1  0.5489760000000  0.5125540000000  0.4649770000000 1.0
C      1  0.4775250000000  0.4871580000000  0.4135850000000 1.0
C      1  0.4590380000000  0.4273070000000  0.5146960000000 1.0
C      1  0.5728410000000  0.6065270000000  0.5216890000000 1.0
C      1  0.4840620000000  0.4497840000000  0.4262510000000 1.0
C      1  0.5267160000000  0.4463520000000  0.5432180000000 1.0
C      1  0.5028380000000  0.5542250000000  0.5318400000000 1.0
C      1  0.5038010000000  0.4872560000000  0.3957310000000 1.0
C      1  0.4529070000000  0.4684700000000  0.4044970000000 1.0
C      1  0.4857510000000  0.5930820000000  0.4961110000000 1.0
C      1  0.4988730000000  0.5262990000000  0.4077760000000 1.0
C      1  0.5217490000000  0.5985670000000  0.5237750000000 1.0
C      1  0.5819970000000  0.5551500000000  0.5503080000000 1.0
C      1  0.4852330000000  0.5739320000000  0.4299030000000 1.0
C      1  0.5128960000000  0.6041590000000  0.4978610000000 1.0
C      1  0.4995790000000  0.4278370000000  0.4054090000000 1.0
C      1  0.5554130000000  0.4838780000000  0.6000430000000 1.0
C      1  0.5133100000000  0.5700260000000  0.3895020000000 1.0
C      1  0.4787780000000  0.4160350000000  0.5771430000000 1.0
C      1  0.5902150000000  0.5628450000000  0.4919220000000 1.0
C      1  0.5142600000000  0.5795410000000  0.6141800000000 1.0
C      1  0.4455760000000  0.5089880000000  0.5837280000000 1.0
C      1  0.4185480000000  0.5071990000000  0.4949870000000 1.0
C      1  0.4608770000000  0.4034270000000  0.5509860000000 1.0
C      1  0.5850440000000  0.5290830000000  0.5672440000000 1.0
C      1  0.4567720000000  0.4857070000000  0.5137850000000 1.0
C      1  0.6122110000000  0.4705210000000  0.5033030000000 1.0
C      1  0.5565890000000  0.4758590000000  0.5022340000000 1.0
C      1  0.5814240000000  0.5641770000000  0.4610970000000 1.0
C      1  0.4262610000000  0.5045060000000  0.5357910000000 1.0
C      1  0.4067340000000  0.4585700000000  0.4978980000000 1.0
C      1  0.5577550000000  0.4639580000000  0.5253400000000 1.0
C      1  0.4764900000000  0.5123010000000  0.5154830000000 1.0
C      1  0.5925470000000  0.5147560000000  0.5247410000000 1.0
C      1  0.4066370000000  0.4805960000000  0.5478290000000 1.0
C      1  0.5204170000000  0.4588120000000  0.5119970000000 1.0
C      1  0.6132080000000  0.5181390000000  0.5410650000000 1.0
C      1  0.4339360000000  0.5773290000000  0.5555520000000 1.0
C      1  0.4779650000000  0.4001240000000  0.5224310000000 1.0
C      1  0.5185840000000  0.5882000000000  0.4495050000000 1.0
C      1  0.4850630000000  0.5097190000000  0.3815710000000 1.0
C      1  0.6255390000000  0.4978750000000  0.4880630000000 1.0
C      1  0.4792950000000  0.5232030000000  0.5456690000000 1.0
C      1  0.4456160000000  0.5243590000000  0.4933270000000 1.0
C      1  0.5334840000000  0.4885220000000  0.4465360000000 1.0
C      1  0.4780280000000  0.5451730000000  0.4359950000000 1.0
C      1  0.5662220000000  0.4886040000000  0.4057270000000 1.0
C      1  0.4944390000000  0.5622510000000  0.4679140000000 1.0
C      1  0.5206610000000  0.4467430000000  0.6022470000000 1.0
C      1  0.5421260000000  0.5732140000000  0.4943390000000 1.0
C      1  0.4955130000000  0.4566270000000  0.4721410000000 1.0
C      1  0.4488810000000  0.4454820000000  0.5420030000000 1.0
C      1  0.4649980000000  0.5238390000000  0.4037260000000 1.0
C      1  0.4174400000000  0.4997490000000  0.4612970000000 1.0
C      1  0.4308510000000  0.4305030000000  0.4664600000000 1.0
C      1  0.4873310000000  0.4390190000000  0.5983090000000 1.0
C      1  0.4763170000000  0.4420060000000  0.5580010000000 1.0
C      1  0.4014500000000  0.4704740000000  0.4678810000000 1.0
C      1  0.5627140000000  0.4380570000000  0.5580080000000 1.0
C      1  0.4402250000000  0.5278880000000  0.5222140000000 1.0
C      1  0.4658890000000  0.4592880000000  0.6059970000000 1.0
C      1  0.4794020000000  0.5876800000000  0.5533960000000 1.0
C      1  0.5824010000000  0.4668640000000  0.4567190000000 1.0
C      1  0.5359950000000  0.5311540000000  0.4396370000000 1.0
C      1  0.5666240000000  0.4305950000000  0.4878280000000 1.0
C      1  0.5331070000000  0.4330910000000  0.5736460000000 1.0
C      1  0.6269660000000  0.5275270000000  0.4818980000000 1.0
C      1  0.5365040000000  0.4133490000000  0.5178510000000 1.0
C      1  0.4111450000000  0.5252080000000  0.5720350000000 1.0
C      1  0.5763330000000  0.4929360000000  0.4357400000000 1.0
C      1  0.4650870000000  0.5208040000000  0.4533190000000 1.0
C      1  0.5817320000000  0.4597770000000  0.5595370000000 1.0
C      1  0.5105120000000  0.4637460000000  0.4425050000000 1.0
C      1  0.5532610000000  0.5808660000000  0.4512280000000 1.0
C      1  0.4123170000000  0.4263430000000  0.4944820000000 1.0
C      1  0.4659500000000  0.5457670000000  0.4764590000000 1.0
C      1  0.4619480000000  0.4239490000000  0.4261660000000 1.0
C      1  0.5263140000000  0.3903010000000  0.4950200000000 1.0
END
