TITL C-2847955-7945-153 0.00104355742212989 125000 -445.453262025491 0 0 84 (C1) n - 1
REM
REM in /home/bkarasulu/work/CARBON/AIRSS/Generating-Clusters/AIREBO/with-SteepDescent/Only-C1/SD-CG-opt/Try1-1.4A-POS3A/HFTN-CG
REM
REM
REM
REM
REM
REM ./C.cell (11c1c37f851c82e70ff6c80c92926a4b)
REM
REM compiler GCC version 9.2.1 20190827 (Red Hat 9.2.1-1)
REM options -cpp -mtune=generic -march=x86-64 -g -O0 -fpre-include=/usr/include/finclude/math-vector-fortran.h
REM seed 1386743002 697015864 1046916747 1532684921 392914807 -1033620472 1413739979 -1711830566 -155787937 -888525319 -1073073956 -1643246957 -2108576191 -2022676675 247219697 -685049891 -1490638622 1602736239 543542907 -2112484783 -1061483366 101176004 1251334067 -177149871 1781644998 -1268186359 193096430 103283075 1866253632 -1873395061 1227842022 1583380493 708574160
REM
CELL 1.54180   50.00000   50.00000   50.00000   90.00000   90.00000   90.00000
LATT -1
SFAC C  
C      1  0.5516900000000  0.4734270000000  0.4908830000000 1.0
C      1  0.5070440000000  0.5035150000000  0.5534480000000 1.0
C      1  0.4743370000000  0.5717210000000  0.4920550000000 1.0
C      1  0.5492510000000  0.5595520000000  0.5207910000000 1.0
C      1  0.4214500000000  0.5285680000000  0.4927350000000 1.0
C      1  0.4778920000000  0.5191510000000  0.5156930000000 1.0
C      1  0.4813470000000  0.5328750000000  0.4322910000000 1.0
C      1  0.5464630000000  0.4669610000000  0.5445620000000 1.0
C      1  0.5665830000000  0.4806520000000  0.5205920000000 1.0
C      1  0.4335740000000  0.4561850000000  0.4708200000000 1.0
C      1  0.4761550000000  0.4976480000000  0.5778980000000 1.0
C      1  0.5845330000000  0.5207300000000  0.4851660000000 1.0
C      1  0.4754710000000  0.4736410000000  0.5536410000000 1.0
C      1  0.4415650000000  0.5020630000000  0.4880310000000 1.0
C      1  0.4481550000000  0.4402960000000  0.5327810000000 1.0
C      1  0.5779370000000  0.5123630000000  0.5130970000000 1.0
C      1  0.4808750000000  0.4445540000000  0.5704090000000 1.0
C      1  0.4771630000000  0.4353240000000  0.5425590000000 1.0
C      1  0.5035380000000  0.4755980000000  0.5344960000000 1.0
C      1  0.4919970000000  0.4206890000000  0.5030330000000 1.0
C      1  0.4882260000000  0.5788900000000  0.5158860000000 1.0
C      1  0.5423720000000  0.5047700000000  0.4814850000000 1.0
C      1  0.4915040000000  0.4623560000000  0.4824290000000 1.0
C      1  0.5067630000000  0.5504640000000  0.5538310000000 1.0
C      1  0.5251770000000  0.4426380000000  0.4378010000000 1.0
C      1  0.4439140000000  0.5399710000000  0.5145790000000 1.0
C      1  0.5016300000000  0.5125290000000  0.5857550000000 1.0
C      1  0.5052990000000  0.4429750000000  0.5250120000000 1.0
C      1  0.5602700000000  0.5677950000000  0.4943790000000 1.0
C      1  0.4021660000000  0.4895960000000  0.5198260000000 1.0
C      1  0.4213520000000  0.5167420000000  0.5249550000000 1.0
C      1  0.5312590000000  0.5159570000000  0.4212080000000 1.0
C      1  0.5163950000000  0.5451780000000  0.5015760000000 1.0
C      1  0.4830750000000  0.5530250000000  0.4667500000000 1.0
C      1  0.5571050000000  0.5333940000000  0.5269590000000 1.0
C      1  0.5588910000000  0.5069700000000  0.4401430000000 1.0
C      1  0.5326190000000  0.4498990000000  0.5059740000000 1.0
C      1  0.5740180000000  0.5479180000000  0.4791240000000 1.0
C      1  0.5083410000000  0.5415020000000  0.5810750000000 1.0
C      1  0.4841420000000  0.5086790000000  0.4515830000000 1.0
C      1  0.4900140000000  0.4029440000000  0.4829730000000 1.0
C      1  0.4847000000000  0.5277540000000  0.5450150000000 1.0
C      1  0.5396860000000  0.4647790000000  0.4602650000000 1.0
C      1  0.5317990000000  0.5687850000000  0.4861060000000 1.0
C      1  0.4404480000000  0.4500620000000  0.5011180000000 1.0
C      1  0.4996570000000  0.4882610000000  0.5029030000000 1.0
C      1  0.4554080000000  0.4977260000000  0.5162920000000 1.0
C      1  0.4805180000000  0.4599420000000  0.4515520000000 1.0
C      1  0.5111190000000  0.5409860000000  0.4233630000000 1.0
C      1  0.5156290000000  0.4462680000000  0.4702320000000 1.0
C      1  0.5326210000000  0.4430970000000  0.5452610000000 1.0
C      1  0.4729790000000  0.4458990000000  0.5016860000000 1.0
C      1  0.4527860000000  0.5328720000000  0.4507580000000 1.0
C      1  0.5320480000000  0.5179180000000  0.5360780000000 1.0
C      1  0.4748510000000  0.4984480000000  0.4819280000000 1.0
C      1  0.5807470000000  0.4754470000000  0.4743550000000 1.0
C      1  0.4541430000000  0.5452740000000  0.4825250000000 1.0
C      1  0.4291860000000  0.4763160000000  0.5195570000000 1.0
C      1  0.4919100000000  0.5276820000000  0.4859080000000 1.0
C      1  0.4602150000000  0.5503190000000  0.5381040000000 1.0
C      1  0.4932320000000  0.4314230000000  0.4409360000000 1.0
C      1  0.5012470000000  0.5634530000000  0.4469050000000 1.0
C      1  0.5292060000000  0.4908130000000  0.4440090000000 1.0
C      1  0.4221650000000  0.4827480000000  0.4734800000000 1.0
C      1  0.5535280000000  0.5303140000000  0.4620100000000 1.0
C      1  0.5128080000000  0.5081990000000  0.4674750000000 1.0
C      1  0.4418590000000  0.4696450000000  0.5501450000000 1.0
C      1  0.4520870000000  0.4987840000000  0.4496500000000 1.0
C      1  0.5163310000000  0.5651130000000  0.5277140000000 1.0
C      1  0.5785680000000  0.5017190000000  0.5444410000000 1.0
C      1  0.5272240000000  0.5724100000000  0.4588940000000 1.0
C      1  0.5362590000000  0.4874790000000  0.5613920000000 1.0
C      1  0.5052170000000  0.4698090000000  0.4321960000000 1.0
C      1  0.5810230000000  0.5014430000000  0.4648010000000 1.0
C      1  0.5295400000000  0.4238370000000  0.4896290000000 1.0
C      1  0.4359190000000  0.5024250000000  0.5505960000000 1.0
C      1  0.5375680000000  0.5486760000000  0.4433000000000 1.0
C      1  0.4519870000000  0.4704400000000  0.4499530000000 1.0
C      1  0.5555900000000  0.5102110000000  0.5593740000000 1.0
C      1  0.4683730000000  0.4708100000000  0.5204940000000 1.0
C      1  0.5225980000000  0.5120290000000  0.5059510000000 1.0
C      1  0.4581560000000  0.5153390000000  0.5622730000000 1.0
C      1  0.4691230000000  0.5761060000000  0.5371170000000 1.0
C      1  0.4883910000000  0.4092360000000  0.4559770000000 1.0
END
