TITL C-2848494-1720-333 0.00195645063429239 125000 -453.883559784795 0 0 82 (C1) n - 1
REM
REM in /home/bkarasulu/work/CARBON/AIRSS/Generating-Clusters/AIREBO/with-SteepDescent/Only-C1/SD-CG-opt/Try1-1.4A-POS3A/HFTN-CG
REM
REM
REM
REM
REM
REM ./C.cell (11c1c37f851c82e70ff6c80c92926a4b)
REM
REM compiler GCC version 9.2.1 20190827 (Red Hat 9.2.1-1)
REM options -cpp -mtune=generic -march=x86-64 -g -O0 -fpre-include=/usr/include/finclude/math-vector-fortran.h
REM seed 1528983843 -1665207863 591559190 -1965192689 1389058272 1901911930 1537304970 -1229757405 1117878241 -979688986 -1725697101 -1738212371 794443077 -1809571920 -147224672 -1976039216 1474423642 -782900080 -925412 -935978508 794673291 1068947056 471022202 2006388873 75897218 -59577583 -546913344 860814753 1709192708 -1174955600 1918802328 1882734677 844936464
REM
CELL 1.54180   50.00000   50.00000   50.00000   90.00000   90.00000   90.00000
LATT -1
SFAC C  
C      1  0.5117680000000  0.4322670000000  0.5063290000000 1.0
C      1  0.5692690000000  0.5312270000000  0.5134730000000 1.0
C      1  0.5394200000000  0.5367350000000  0.5014410000000 1.0
C      1  0.4248010000000  0.5221250000000  0.4796810000000 1.0
C      1  0.4991400000000  0.5667500000000  0.4620660000000 1.0
C      1  0.4658300000000  0.4281330000000  0.5087970000000 1.0
C      1  0.4977900000000  0.5014830000000  0.4719690000000 1.0
C      1  0.5314440000000  0.5244500000000  0.4469920000000 1.0
C      1  0.4968480000000  0.4999890000000  0.4178040000000 1.0
C      1  0.5365130000000  0.5067250000000  0.4755840000000 1.0
C      1  0.4537040000000  0.5672970000000  0.4939390000000 1.0
C      1  0.4975070000000  0.5245510000000  0.5278040000000 1.0
C      1  0.4652150000000  0.4596810000000  0.5711360000000 1.0
C      1  0.4821080000000  0.4755260000000  0.4633960000000 1.0
C      1  0.4476110000000  0.5098150000000  0.5882330000000 1.0
C      1  0.5255060000000  0.4696250000000  0.5098790000000 1.0
C      1  0.5358850000000  0.4403800000000  0.5501660000000 1.0
C      1  0.5629980000000  0.4817420000000  0.4354170000000 1.0
C      1  0.5137550000000  0.4587490000000  0.4307330000000 1.0
C      1  0.4964390000000  0.4872600000000  0.5086800000000 1.0
C      1  0.4554640000000  0.5402330000000  0.5448240000000 1.0
C      1  0.4073320000000  0.4570290000000  0.4780570000000 1.0
C      1  0.5289520000000  0.5667490000000  0.5084310000000 1.0
C      1  0.5441980000000  0.4519090000000  0.4685120000000 1.0
C      1  0.4504160000000  0.4857690000000  0.4678850000000 1.0
C      1  0.4810620000000  0.5524490000000  0.5343710000000 1.0
C      1  0.4518410000000  0.5483540000000  0.4659220000000 1.0
C      1  0.5385000000000  0.4410360000000  0.5196140000000 1.0
C      1  0.5211250000000  0.4767610000000  0.4709650000000 1.0
C      1  0.4856590000000  0.5105300000000  0.5564460000000 1.0
C      1  0.5567950000000  0.4882860000000  0.5736390000000 1.0
C      1  0.5035910000000  0.5204820000000  0.4346980000000 1.0
C      1  0.4973630000000  0.4414170000000  0.4492310000000 1.0
C      1  0.5525360000000  0.4846170000000  0.4957140000000 1.0
C      1  0.5875610000000  0.5173320000000  0.4969810000000 1.0
C      1  0.5612270000000  0.5446120000000  0.4764530000000 1.0
C      1  0.4764830000000  0.5683930000000  0.5096260000000 1.0
C      1  0.4832970000000  0.4739360000000  0.4307890000000 1.0
C      1  0.4760460000000  0.4534860000000  0.4885760000000 1.0
C      1  0.4498150000000  0.4590660000000  0.4468140000000 1.0
C      1  0.5306230000000  0.5681170000000  0.5387110000000 1.0
C      1  0.4732440000000  0.5687860000000  0.4539950000000 1.0
C      1  0.4438320000000  0.5249810000000  0.5241360000000 1.0
C      1  0.5188750000000  0.5546340000000  0.4485210000000 1.0
C      1  0.5059190000000  0.4473290000000  0.4786780000000 1.0
C      1  0.4312340000000  0.4664920000000  0.4870820000000 1.0
C      1  0.5690570000000  0.5293690000000  0.5418920000000 1.0
C      1  0.4878950000000  0.4529650000000  0.5485670000000 1.0
C      1  0.5025470000000  0.5672690000000  0.4930210000000 1.0
C      1  0.4837260000000  0.5258700000000  0.4574600000000 1.0
C      1  0.4626790000000  0.4378020000000  0.5887870000000 1.0
C      1  0.5775530000000  0.4960110000000  0.4808840000000 1.0
C      1  0.5553810000000  0.5709060000000  0.4889810000000 1.0
C      1  0.4548260000000  0.5166460000000  0.4540070000000 1.0
C      1  0.5253000000000  0.4938520000000  0.5335760000000 1.0
C      1  0.4558870000000  0.5274400000000  0.4924390000000 1.0
C      1  0.4652540000000  0.4950440000000  0.4970520000000 1.0
C      1  0.5238030000000  0.5374660000000  0.5629620000000 1.0
C      1  0.4430960000000  0.4654150000000  0.5121210000000 1.0
C      1  0.5174550000000  0.4581180000000  0.5606970000000 1.0
C      1  0.4153960000000  0.5115770000000  0.4552030000000 1.0
C      1  0.5047350000000  0.5593660000000  0.5528760000000 1.0
C      1  0.4660610000000  0.4874690000000  0.5515350000000 1.0
C      1  0.5281340000000  0.4820340000000  0.5715710000000 1.0
C      1  0.4693650000000  0.4388660000000  0.4458820000000 1.0
C      1  0.4883970000000  0.5366760000000  0.4884680000000 1.0
C      1  0.4443740000000  0.4829010000000  0.5841370000000 1.0
C      1  0.5157880000000  0.5084640000000  0.5593480000000 1.0
C      1  0.5511560000000  0.5477570000000  0.5539140000000 1.0
C      1  0.5530320000000  0.4397150000000  0.4904640000000 1.0
C      1  0.4359160000000  0.5022110000000  0.4330550000000 1.0
C      1  0.4492030000000  0.4936160000000  0.5269960000000 1.0
C      1  0.5679400000000  0.5013230000000  0.5502260000000 1.0
C      1  0.4760380000000  0.4649010000000  0.5205250000000 1.0
C      1  0.5548370000000  0.4899990000000  0.5272250000000 1.0
C      1  0.4899310000000  0.4281370000000  0.5250540000000 1.0
C      1  0.4604050000000  0.5250940000000  0.5688190000000 1.0
C      1  0.5411830000000  0.4627380000000  0.4395240000000 1.0
C      1  0.5130960000000  0.5153090000000  0.4990140000000 1.0
C      1  0.4499700000000  0.4793970000000  0.4245770000000 1.0
C      1  0.5612400000000  0.5285800000000  0.4532940000000 1.0
C      1  0.5728030000000  0.5024060000000  0.4536580000000 1.0
END
