TITL C-2847947-6848-230 0.00299925338483884 125000 -374.009350992748 0 0 72 (C1) n - 1
REM
REM in /home/bkarasulu/work/CARBON/AIRSS/Generating-Clusters/AIREBO/with-SteepDescent/Only-C1/SD-CG-opt/Try1-1.4A-POS3A/HFTN-CG
REM
REM
REM
REM
REM
REM ./C.cell (11c1c37f851c82e70ff6c80c92926a4b)
REM
REM compiler GCC version 9.2.1 20190827 (Red Hat 9.2.1-1)
REM options -cpp -mtune=generic -march=x86-64 -g -O0 -fpre-include=/usr/include/finclude/math-vector-fortran.h
REM seed 740904772 1356567435 446395975 -1660417060 645074037 -691265956 -1803349458 -787119381 -1369406541 2138335054 -307820829 1737462521 -1748885677 -685424824 1911307842 -193005549 -403816140 -344205955 -1584291874 1743660781 875717287 -709497386 -1201024444 274428569 -1572923416 402384659 -2120250137 -1524830292 1877080808 -335130431 613257368 1773923262 -275133322
REM
CELL 1.54180   50.00000   50.00000   50.00000   90.00000   90.00000   90.00000
LATT -1
SFAC C  
C      1  0.4512220000000  0.5555190000000  0.5393910000000 1.0
C      1  0.5041720000000  0.4317430000000  0.4592900000000 1.0
C      1  0.5036390000000  0.4982990000000  0.5489530000000 1.0
C      1  0.5156850000000  0.4953440000000  0.4831290000000 1.0
C      1  0.5595440000000  0.5123420000000  0.4317380000000 1.0
C      1  0.5638320000000  0.4791060000000  0.5473810000000 1.0
C      1  0.5548470000000  0.5089770000000  0.5549250000000 1.0
C      1  0.4723400000000  0.4308930000000  0.4987870000000 1.0
C      1  0.4549840000000  0.4383480000000  0.4759350000000 1.0
C      1  0.5221130000000  0.4559760000000  0.4854250000000 1.0
C      1  0.5243020000000  0.5473510000000  0.5133070000000 1.0
C      1  0.5412890000000  0.5325440000000  0.4762600000000 1.0
C      1  0.5336730000000  0.5617000000000  0.4744170000000 1.0
C      1  0.5654380000000  0.4710730000000  0.4985250000000 1.0
C      1  0.5060510000000  0.5668710000000  0.4922840000000 1.0
C      1  0.4514860000000  0.5520600000000  0.4847670000000 1.0
C      1  0.4739790000000  0.4459870000000  0.5292170000000 1.0
C      1  0.4256250000000  0.5044680000000  0.4983720000000 1.0
C      1  0.4810480000000  0.5126310000000  0.4928980000000 1.0
C      1  0.4288040000000  0.5074360000000  0.4680830000000 1.0
C      1  0.4881360000000  0.5272610000000  0.5444190000000 1.0
C      1  0.5545840000000  0.5000040000000  0.5116900000000 1.0
C      1  0.5033920000000  0.4210460000000  0.4896240000000 1.0
C      1  0.4686070000000  0.5611280000000  0.5127080000000 1.0
C      1  0.4733530000000  0.5696150000000  0.4697570000000 1.0
C      1  0.4499560000000  0.4674200000000  0.4757060000000 1.0
C      1  0.4772800000000  0.4756200000000  0.4334220000000 1.0
C      1  0.4771290000000  0.4482310000000  0.4535750000000 1.0
C      1  0.5435260000000  0.4603610000000  0.5418970000000 1.0
C      1  0.4762310000000  0.5083650000000  0.4243210000000 1.0
C      1  0.4961860000000  0.5356360000000  0.4334990000000 1.0
C      1  0.5096520000000  0.4851380000000  0.5118210000000 1.0
C      1  0.4025670000000  0.4934120000000  0.5085350000000 1.0
C      1  0.5462390000000  0.4861150000000  0.4752920000000 1.0
C      1  0.5097710000000  0.5066880000000  0.4452460000000 1.0
C      1  0.5444370000000  0.5349560000000  0.5359480000000 1.0
C      1  0.4787880000000  0.5110590000000  0.4589970000000 1.0
C      1  0.4622230000000  0.5371580000000  0.4341710000000 1.0
C      1  0.4735810000000  0.4806870000000  0.4839430000000 1.0
C      1  0.5122360000000  0.4653130000000  0.5463400000000 1.0
C      1  0.4990810000000  0.4707380000000  0.4665390000000 1.0
C      1  0.5507040000000  0.4477070000000  0.5169850000000 1.0
C      1  0.5111090000000  0.4514030000000  0.5155610000000 1.0
C      1  0.4927490000000  0.4184730000000  0.5218840000000 1.0
C      1  0.4589470000000  0.5315290000000  0.5514080000000 1.0
C      1  0.5829220000000  0.4767390000000  0.5271290000000 1.0
C      1  0.4500340000000  0.5287630000000  0.4630010000000 1.0
C      1  0.5554390000000  0.5599050000000  0.5078620000000 1.0
C      1  0.5316090000000  0.4974610000000  0.5329260000000 1.0
C      1  0.4821430000000  0.4873380000000  0.5806850000000 1.0
C      1  0.5570740000000  0.5274860000000  0.5019950000000 1.0
C      1  0.4345450000000  0.4824100000000  0.4566940000000 1.0
C      1  0.4790620000000  0.4787080000000  0.5235040000000 1.0
C      1  0.5090750000000  0.5267440000000  0.4797580000000 1.0
C      1  0.5112470000000  0.4749170000000  0.4347520000000 1.0
C      1  0.5247620000000  0.4475350000000  0.4465770000000 1.0
C      1  0.5395740000000  0.5098080000000  0.4545090000000 1.0
C      1  0.4920600000000  0.5365950000000  0.5143650000000 1.0
C      1  0.4798150000000  0.4670770000000  0.5554490000000 1.0
C      1  0.4975400000000  0.5744500000000  0.5246020000000 1.0
C      1  0.4413460000000  0.5326460000000  0.5081050000000 1.0
C      1  0.4451240000000  0.4787140000000  0.4301840000000 1.0
C      1  0.5316020000000  0.4253110000000  0.5081110000000 1.0
C      1  0.5369830000000  0.5433030000000  0.5649430000000 1.0
C      1  0.4450860000000  0.5088430000000  0.5443820000000 1.0
C      1  0.5655090000000  0.5168370000000  0.5793010000000 1.0
C      1  0.4560930000000  0.5015890000000  0.5132170000000 1.0
C      1  0.5033620000000  0.5566210000000  0.5478620000000 1.0
C      1  0.4968650000000  0.5516160000000  0.4632640000000 1.0
C      1  0.5093990000000  0.5387210000000  0.5761560000000 1.0
C      1  0.5000650000000  0.5114770000000  0.5788780000000 1.0
C      1  0.5471290000000  0.4546560000000  0.4654110000000 1.0
END
