TITL C-2847952-8118-477 -0.00255102127923441 125000 -615.560487510541 0 0 118 (C1) n - 1
REM
REM in /home/bkarasulu/work/CARBON/AIRSS/Generating-Clusters/AIREBO/with-SteepDescent/Only-C1/SD-CG-opt/Try1-1.4A-POS3A/HFTN-CG
REM
REM
REM
REM
REM
REM ./C.cell (11c1c37f851c82e70ff6c80c92926a4b)
REM
REM compiler GCC version 9.2.1 20190827 (Red Hat 9.2.1-1)
REM options -cpp -mtune=generic -march=x86-64 -g -O0 -fpre-include=/usr/include/finclude/math-vector-fortran.h
REM seed 488121671 424539012 941438357 -637525851 -2118143499 1839169746 866372890 261101815 -58234924 -933546895 1397870024 1027724579 -1320621192 1375764961 -1299595265 2122568801 -1268975143 -26759180 1535183697 546278949 966110768 786744648 -442990808 -145015151 891472487 -1037247105 423306180 -1391668239 1373993473 -1365890535 2039820193 -178860676 -1655096486
REM
CELL 1.54180   50.00000   50.00000   50.00000   90.00000   90.00000   90.00000
LATT -1
SFAC C  
C      1  0.4973480000000  0.5471140000000  0.4257440000000 1.0
C      1  0.4812470000000  0.5096570000000  0.5536150000000 1.0
C      1  0.4537890000000  0.5455470000000  0.5684930000000 1.0
C      1  0.4585850000000  0.5224380000000  0.5067440000000 1.0
C      1  0.5142120000000  0.4197610000000  0.4627430000000 1.0
C      1  0.4208920000000  0.5121340000000  0.4983360000000 1.0
C      1  0.5292420000000  0.4765700000000  0.5140530000000 1.0
C      1  0.5629530000000  0.5141280000000  0.5008450000000 1.0
C      1  0.5261200000000  0.5671060000000  0.4438240000000 1.0
C      1  0.5127110000000  0.5922880000000  0.5171170000000 1.0
C      1  0.4397800000000  0.5481440000000  0.5103360000000 1.0
C      1  0.5160200000000  0.4584150000000  0.5762290000000 1.0
C      1  0.4504640000000  0.4459740000000  0.4984000000000 1.0
C      1  0.4977360000000  0.4482100000000  0.4540280000000 1.0
C      1  0.4228000000000  0.5193910000000  0.5315150000000 1.0
C      1  0.4726780000000  0.4897930000000  0.4361140000000 1.0
C      1  0.4067010000000  0.5438780000000  0.5169600000000 1.0
C      1  0.4866000000000  0.4318070000000  0.4887640000000 1.0
C      1  0.4204240000000  0.4827260000000  0.5128810000000 1.0
C      1  0.5906450000000  0.5068870000000  0.4824890000000 1.0
C      1  0.4701050000000  0.5763340000000  0.5607980000000 1.0
C      1  0.4658750000000  0.4536910000000  0.5473230000000 1.0
C      1  0.5375110000000  0.4446820000000  0.4680480000000 1.0
C      1  0.4227270000000  0.4619060000000  0.4910530000000 1.0
C      1  0.5503170000000  0.5650630000000  0.5455820000000 1.0
C      1  0.5777880000000  0.4840420000000  0.4450510000000 1.0
C      1  0.5346790000000  0.5344390000000  0.5241280000000 1.0
C      1  0.4822110000000  0.4630680000000  0.5738680000000 1.0
C      1  0.5245430000000  0.4136090000000  0.4945560000000 1.0
C      1  0.4972890000000  0.5009830000000  0.5074020000000 1.0
C      1  0.4967460000000  0.4315910000000  0.5347980000000 1.0
C      1  0.4949220000000  0.4345640000000  0.5857890000000 1.0
C      1  0.5389180000000  0.5209740000000  0.5613400000000 1.0
C      1  0.5014270000000  0.4936610000000  0.5371370000000 1.0
C      1  0.5153830000000  0.5624720000000  0.5755700000000 1.0
C      1  0.5544310000000  0.5459010000000  0.4968540000000 1.0
C      1  0.5671040000000  0.4214190000000  0.5259770000000 1.0
C      1  0.4728900000000  0.5547720000000  0.5346540000000 1.0
C      1  0.4830270000000  0.5543620000000  0.5821700000000 1.0
C      1  0.4104390000000  0.4835560000000  0.5435390000000 1.0
C      1  0.4470950000000  0.5755230000000  0.5268410000000 1.0
C      1  0.4570120000000  0.5467510000000  0.4625720000000 1.0
C      1  0.5399290000000  0.5710660000000  0.5713300000000 1.0
C      1  0.4814440000000  0.5224850000000  0.4394570000000 1.0
C      1  0.4288750000000  0.4857360000000  0.5639570000000 1.0
C      1  0.5367680000000  0.5433940000000  0.4551410000000 1.0
C      1  0.5237590000000  0.4156010000000  0.5445140000000 1.0
C      1  0.4427430000000  0.4626620000000  0.5684790000000 1.0
C      1  0.5608510000000  0.5345650000000  0.5443910000000 1.0
C      1  0.4384700000000  0.4428940000000  0.4672600000000 1.0
C      1  0.4866190000000  0.4792690000000  0.4623760000000 1.0
C      1  0.5661820000000  0.4399450000000  0.4411510000000 1.0
C      1  0.4332690000000  0.5275310000000  0.4475800000000 1.0
C      1  0.4799390000000  0.4210620000000  0.4593090000000 1.0
C      1  0.5048650000000  0.5442750000000  0.5297500000000 1.0
C      1  0.4411250000000  0.4956640000000  0.4801970000000 1.0
C      1  0.4856990000000  0.5311410000000  0.4720800000000 1.0
C      1  0.5351160000000  0.5742800000000  0.5250320000000 1.0
C      1  0.4418480000000  0.4965110000000  0.4406330000000 1.0
C      1  0.4909510000000  0.5511590000000  0.4994300000000 1.0
C      1  0.4453410000000  0.5771370000000  0.4932910000000 1.0
C      1  0.5294600000000  0.5090690000000  0.5039650000000 1.0
C      1  0.5327320000000  0.4463560000000  0.5490630000000 1.0
C      1  0.4649830000000  0.5661690000000  0.4382260000000 1.0
C      1  0.5450110000000  0.4747380000000  0.5542880000000 1.0
C      1  0.4503090000000  0.4933090000000  0.5187910000000 1.0
C      1  0.5377110000000  0.4585660000000  0.4387940000000 1.0
C      1  0.5323890000000  0.5132250000000  0.4041560000000 1.0
C      1  0.4714260000000  0.4731540000000  0.5204920000000 1.0
C      1  0.5528620000000  0.4969980000000  0.4741270000000 1.0
C      1  0.5479730000000  0.4485700000000  0.5186640000000 1.0
C      1  0.5136890000000  0.5914220000000  0.4870560000000 1.0
C      1  0.5855440000000  0.4616880000000  0.5201850000000 1.0
C      1  0.4780930000000  0.4622880000000  0.4905780000000 1.0
C      1  0.4285270000000  0.5575670000000  0.4733310000000 1.0
C      1  0.5756730000000  0.5107220000000  0.5292230000000 1.0
C      1  0.5077050000000  0.4549390000000  0.4242940000000 1.0
C      1  0.5011070000000  0.5338480000000  0.5619470000000 1.0
C      1  0.4447980000000  0.5493940000000  0.4246530000000 1.0
C      1  0.4975990000000  0.4147590000000  0.5645360000000 1.0
C      1  0.4742810000000  0.5017340000000  0.4847790000000 1.0
C      1  0.5017620000000  0.4613000000000  0.5271340000000 1.0
C      1  0.5492430000000  0.5226640000000  0.4238170000000 1.0
C      1  0.5715890000000  0.4442610000000  0.4945350000000 1.0
C      1  0.5632200000000  0.4668340000000  0.4705230000000 1.0
C      1  0.5883180000000  0.4868080000000  0.5309580000000 1.0
C      1  0.4907390000000  0.5921770000000  0.4691660000000 1.0
C      1  0.5187190000000  0.5136360000000  0.5828830000000 1.0
C      1  0.5921310000000  0.4781650000000  0.4844200000000 1.0
C      1  0.5699550000000  0.5549600000000  0.4740090000000 1.0
C      1  0.5406950000000  0.4081130000000  0.5205010000000 1.0
C      1  0.5151220000000  0.4461990000000  0.4922850000000 1.0
C      1  0.4979620000000  0.3947880000000  0.4985760000000 1.0
C      1  0.5299760000000  0.4961950000000  0.5488220000000 1.0
C      1  0.4937550000000  0.5766110000000  0.4423060000000 1.0
C      1  0.4548650000000  0.5265000000000  0.5403180000000 1.0
C      1  0.4278100000000  0.4741450000000  0.4591420000000 1.0
C      1  0.4101300000000  0.5398530000000  0.4849880000000 1.0
C      1  0.4718060000000  0.4913300000000  0.5775650000000 1.0
C      1  0.5193260000000  0.4876620000000  0.5907180000000 1.0
C      1  0.4458010000000  0.5124520000000  0.5717490000000 1.0
C      1  0.5381890000000  0.5096700000000  0.4521790000000 1.0
C      1  0.4520340000000  0.4220470000000  0.4536690000000 1.0
C      1  0.5689380000000  0.5346310000000  0.4480020000000 1.0
C      1  0.5201710000000  0.4768610000000  0.4830450000000 1.0
C      1  0.4768560000000  0.5798190000000  0.4976400000000 1.0
C      1  0.4553460000000  0.4329830000000  0.5262770000000 1.0
C      1  0.5037160000000  0.5256110000000  0.4064160000000 1.0
C      1  0.4849160000000  0.5863530000000  0.5307660000000 1.0
C      1  0.5235700000000  0.5601550000000  0.4960520000000 1.0
C      1  0.4787480000000  0.4156400000000  0.5142360000000 1.0
C      1  0.5742670000000  0.4292630000000  0.4640900000000 1.0
C      1  0.4551750000000  0.5197820000000  0.4180180000000 1.0
C      1  0.5852830000000  0.5099890000000  0.4544400000000 1.0
C      1  0.5179320000000  0.4839410000000  0.4498610000000 1.0
C      1  0.5188070000000  0.5306160000000  0.4798710000000 1.0
C      1  0.4856950000000  0.4732630000000  0.4114380000000 1.0
C      1  0.5083820000000  0.4944970000000  0.4188010000000 1.0
END
