TITL C-2847959-7740-229 -0.00102914591084372 125000 -612.15718175991 0 0 118 (C1) n - 1
REM
REM in /home/bkarasulu/work/CARBON/AIRSS/Generating-Clusters/AIREBO/with-SteepDescent/Only-C1/SD-CG-opt/Try1-1.4A-POS3A/HFTN-CG
REM
REM
REM
REM
REM
REM ./C.cell (11c1c37f851c82e70ff6c80c92926a4b)
REM
REM compiler GCC version 9.2.1 20190827 (Red Hat 9.2.1-1)
REM options -cpp -mtune=generic -march=x86-64 -g -O0 -fpre-include=/usr/include/finclude/math-vector-fortran.h
REM seed -1231035327 -461434108 -1062499231 1485646 -1485518867 1043271851 696105788 -754312452 961812218 1901214751 290080658 -632606509 2016698602 2108317000 2017471885 -21418833 -1541526618 -641277369 -1572809404 -1228922867 669788983 -1611534403 1371553676 -1270171212 -1446070346 365269210 -287969199 578036585 1348947258 -1432608371 -143920778 -278552240 -724641755
REM
CELL 1.54180   50.00000   50.00000   50.00000   90.00000   90.00000   90.00000
LATT -1
SFAC C  
C      1  0.4475370000000  0.5077890000000  0.5839390000000 1.0
C      1  0.4812350000000  0.4949170000000  0.3946230000000 1.0
C      1  0.4793260000000  0.4707970000000  0.5129050000000 1.0
C      1  0.4641520000000  0.4234060000000  0.4317900000000 1.0
C      1  0.5602440000000  0.5585930000000  0.4769780000000 1.0
C      1  0.5011880000000  0.4723590000000  0.5593590000000 1.0
C      1  0.5142280000000  0.4377330000000  0.4903460000000 1.0
C      1  0.4547620000000  0.5258700000000  0.4963550000000 1.0
C      1  0.4660850000000  0.5459330000000  0.5544410000000 1.0
C      1  0.5578530000000  0.5498430000000  0.5522810000000 1.0
C      1  0.4381410000000  0.4962160000000  0.4972380000000 1.0
C      1  0.4247850000000  0.5338220000000  0.5108020000000 1.0
C      1  0.5240300000000  0.5969290000000  0.4933150000000 1.0
C      1  0.4908220000000  0.5736310000000  0.5857680000000 1.0
C      1  0.5614940000000  0.4416950000000  0.4912760000000 1.0
C      1  0.4353340000000  0.4307070000000  0.5105520000000 1.0
C      1  0.5889860000000  0.4894190000000  0.4542320000000 1.0
C      1  0.4880940000000  0.5946760000000  0.5381510000000 1.0
C      1  0.4963480000000  0.5593140000000  0.5549230000000 1.0
C      1  0.4749460000000  0.4390310000000  0.5014360000000 1.0
C      1  0.5344680000000  0.5093000000000  0.5282330000000 1.0
C      1  0.4978940000000  0.3927770000000  0.5005890000000 1.0
C      1  0.5441080000000  0.4689270000000  0.4981230000000 1.0
C      1  0.4983840000000  0.5682990000000  0.5221740000000 1.0
C      1  0.5312030000000  0.4579110000000  0.4165130000000 1.0
C      1  0.4974350000000  0.4883620000000  0.5891240000000 1.0
C      1  0.4143820000000  0.5022220000000  0.4367680000000 1.0
C      1  0.5256950000000  0.4979390000000  0.5988540000000 1.0
C      1  0.5298550000000  0.5309620000000  0.4934730000000 1.0
C      1  0.4794500000000  0.5178310000000  0.5839440000000 1.0
C      1  0.5033600000000  0.4760940000000  0.4221000000000 1.0
C      1  0.5177150000000  0.5850480000000  0.5526310000000 1.0
C      1  0.4813990000000  0.4924760000000  0.4537400000000 1.0
C      1  0.5432320000000  0.5973720000000  0.5103600000000 1.0
C      1  0.5563860000000  0.4971670000000  0.5125650000000 1.0
C      1  0.5472750000000  0.5088900000000  0.4726160000000 1.0
C      1  0.4828510000000  0.5040820000000  0.5194520000000 1.0
C      1  0.4226430000000  0.4828970000000  0.4629050000000 1.0
C      1  0.4502510000000  0.4357100000000  0.4804090000000 1.0
C      1  0.5372410000000  0.5034280000000  0.4405860000000 1.0
C      1  0.4818320000000  0.5464230000000  0.4935510000000 1.0
C      1  0.5680610000000  0.4823740000000  0.4780740000000 1.0
C      1  0.4293550000000  0.5385210000000  0.5421370000000 1.0
C      1  0.4205920000000  0.5318200000000  0.4507070000000 1.0
C      1  0.4381740000000  0.4924610000000  0.5596060000000 1.0
C      1  0.4704200000000  0.4848100000000  0.5519540000000 1.0
C      1  0.5030990000000  0.4380310000000  0.5204820000000 1.0
C      1  0.5212030000000  0.4753410000000  0.4510920000000 1.0
C      1  0.5669820000000  0.5432760000000  0.5014050000000 1.0
C      1  0.4799180000000  0.5396570000000  0.4607220000000 1.0
C      1  0.5267480000000  0.4891770000000  0.4033570000000 1.0
C      1  0.5118910000000  0.5344960000000  0.4647640000000 1.0
C      1  0.5680300000000  0.5338860000000  0.4625830000000 1.0
C      1  0.4275750000000  0.4568040000000  0.5309420000000 1.0
C      1  0.4726280000000  0.5501560000000  0.5857660000000 1.0
C      1  0.4598230000000  0.5143120000000  0.4647790000000 1.0
C      1  0.5817210000000  0.4756140000000  0.5091470000000 1.0
C      1  0.4466190000000  0.5007090000000  0.4365530000000 1.0
C      1  0.4864900000000  0.4692410000000  0.4739430000000 1.0
C      1  0.5068980000000  0.5690010000000  0.4892380000000 1.0
C      1  0.4891460000000  0.5211740000000  0.4132370000000 1.0
C      1  0.5666490000000  0.4864670000000  0.4347820000000 1.0
C      1  0.4801540000000  0.4178530000000  0.5461630000000 1.0
C      1  0.5500480000000  0.4599780000000  0.4417000000000 1.0
C      1  0.5101320000000  0.4704950000000  0.4985020000000 1.0
C      1  0.5342990000000  0.5670400000000  0.4691720000000 1.0
C      1  0.4228060000000  0.5065500000000  0.5325810000000 1.0
C      1  0.5200320000000  0.4065310000000  0.4898180000000 1.0
C      1  0.5098990000000  0.4378700000000  0.4311650000000 1.0
C      1  0.4548630000000  0.4379610000000  0.5374220000000 1.0
C      1  0.4613140000000  0.5838880000000  0.5250600000000 1.0
C      1  0.5426620000000  0.5783980000000  0.5321370000000 1.0
C      1  0.4530400000000  0.4750580000000  0.4759850000000 1.0
C      1  0.5479860000000  0.4954780000000  0.5751620000000 1.0
C      1  0.5391440000000  0.5219400000000  0.5569650000000 1.0
C      1  0.5384380000000  0.5336970000000  0.4251410000000 1.0
C      1  0.5119200000000  0.4299690000000  0.5467790000000 1.0
C      1  0.4618340000000  0.5276820000000  0.4272410000000 1.0
C      1  0.5315750000000  0.4674240000000  0.5738050000000 1.0
C      1  0.4278430000000  0.4581740000000  0.4913810000000 1.0
C      1  0.5101690000000  0.5251770000000  0.5965990000000 1.0
C      1  0.4581420000000  0.5248860000000  0.5301770000000 1.0
C      1  0.5158840000000  0.4969300000000  0.4778990000000 1.0
C      1  0.5859910000000  0.4860710000000  0.5368880000000 1.0
C      1  0.5040480000000  0.5107330000000  0.4419940000000 1.0
C      1  0.4998900000000  0.5181570000000  0.4991220000000 1.0
C      1  0.4501390000000  0.4599480000000  0.5634480000000 1.0
C      1  0.4297910000000  0.5566470000000  0.4910720000000 1.0
C      1  0.4851400000000  0.4359290000000  0.4171610000000 1.0
C      1  0.5450120000000  0.4154620000000  0.4780970000000 1.0
C      1  0.5830910000000  0.4362580000000  0.5079220000000 1.0
C      1  0.4540680000000  0.4411240000000  0.4506350000000 1.0
C      1  0.5158870000000  0.4821700000000  0.5299290000000 1.0
C      1  0.4125050000000  0.4805820000000  0.5131950000000 1.0
C      1  0.5282630000000  0.5526730000000  0.4433930000000 1.0
C      1  0.5808360000000  0.5281950000000  0.5595020000000 1.0
C      1  0.4186610000000  0.5127530000000  0.4747220000000 1.0
C      1  0.4605600000000  0.4713570000000  0.4370830000000 1.0
C      1  0.4463870000000  0.5679170000000  0.5434710000000 1.0
C      1  0.5213890000000  0.5173240000000  0.4066380000000 1.0
C      1  0.4809610000000  0.4457500000000  0.5655940000000 1.0
C      1  0.4514400000000  0.4800510000000  0.5241340000000 1.0
C      1  0.5907120000000  0.5143410000000  0.4705200000000 1.0
C      1  0.5772130000000  0.5173620000000  0.4977280000000 1.0
C      1  0.5115170000000  0.5320590000000  0.5648280000000 1.0
C      1  0.4447300000000  0.5457260000000  0.4428670000000 1.0
C      1  0.4889390000000  0.5133210000000  0.5516040000000 1.0
C      1  0.5349750000000  0.4423720000000  0.5558440000000 1.0
C      1  0.5479520000000  0.5780970000000  0.5653000000000 1.0
C      1  0.4760610000000  0.4659870000000  0.4096430000000 1.0
C      1  0.5432050000000  0.4639880000000  0.5360020000000 1.0
C      1  0.5068270000000  0.4468910000000  0.4616600000000 1.0
C      1  0.5578220000000  0.4375340000000  0.4585170000000 1.0
C      1  0.4789250000000  0.4075220000000  0.5140270000000 1.0
C      1  0.4577600000000  0.5639790000000  0.4638890000000 1.0
C      1  0.4595210000000  0.5719380000000  0.4968980000000 1.0
C      1  0.5439660000000  0.5414990000000  0.5226140000000 1.0
C      1  0.5749650000000  0.5011800000000  0.5585160000000 1.0
END
