TITL C-2848496-4490-600 -0.000389958087084798 125000 -496.447734690638 0 0 94 (C1) n - 1
REM
REM in /home/bkarasulu/work/CARBON/AIRSS/Generating-Clusters/AIREBO/with-SteepDescent/Only-C1/SD-CG-opt/Try1-1.4A-POS3A/HFTN-CG
REM
REM
REM
REM
REM
REM ./C.cell (11c1c37f851c82e70ff6c80c92926a4b)
REM
REM compiler GCC version 9.2.1 20190827 (Red Hat 9.2.1-1)
REM options -cpp -mtune=generic -march=x86-64 -g -O0 -fpre-include=/usr/include/finclude/math-vector-fortran.h
REM seed 88655581 -1623164873 1351815153 1598326350 -1423737173 -1875395914 2002752537 1190079680 -1865235962 -1292084831 1411382605 -393057601 -316925396 -216004905 -1906096041 990290452 -1900339247 42231535 272060191 75927443 778602598 -1841854469 1759342897 355701745 -1046800038 -1366537659 1750606231 1005313991 -643771966 -590102075 -145031644 -147171414 -408641345
REM
CELL 1.54180   50.00000   50.00000   50.00000   90.00000   90.00000   90.00000
LATT -1
SFAC C  
C      1  0.5247370000000  0.5729480000000  0.5179180000000 1.0
C      1  0.5272490000000  0.4825910000000  0.4156380000000 1.0
C      1  0.4611170000000  0.5307840000000  0.4389060000000 1.0
C      1  0.4407820000000  0.5651960000000  0.4954940000000 1.0
C      1  0.4155130000000  0.5056320000000  0.4679220000000 1.0
C      1  0.5538090000000  0.5554220000000  0.5209060000000 1.0
C      1  0.4299590000000  0.4755260000000  0.4743270000000 1.0
C      1  0.5427040000000  0.5168460000000  0.5761010000000 1.0
C      1  0.5175460000000  0.5410490000000  0.5272940000000 1.0
C      1  0.5452080000000  0.4991650000000  0.5405100000000 1.0
C      1  0.4617790000000  0.4388440000000  0.4568100000000 1.0
C      1  0.5290530000000  0.4341860000000  0.5346150000000 1.0
C      1  0.4895240000000  0.5226380000000  0.5330040000000 1.0
C      1  0.5080440000000  0.4661810000000  0.4277130000000 1.0
C      1  0.4888540000000  0.4419910000000  0.4391650000000 1.0
C      1  0.5219910000000  0.5602950000000  0.4680570000000 1.0
C      1  0.4929730000000  0.5208770000000  0.4300510000000 1.0
C      1  0.5047640000000  0.5511210000000  0.4401920000000 1.0
C      1  0.4482000000000  0.4991480000000  0.5651910000000 1.0
C      1  0.4333650000000  0.4732350000000  0.5081370000000 1.0
C      1  0.5524870000000  0.5698650000000  0.4575540000000 1.0
C      1  0.5506290000000  0.4798770000000  0.4355050000000 1.0
C      1  0.5712270000000  0.5120180000000  0.5582340000000 1.0
C      1  0.4490620000000  0.4728730000000  0.5856810000000 1.0
C      1  0.5283360000000  0.4398520000000  0.5038250000000 1.0
C      1  0.5650290000000  0.5087260000000  0.4386420000000 1.0
C      1  0.5257510000000  0.5405810000000  0.4948980000000 1.0
C      1  0.4544750000000  0.5372950000000  0.5034810000000 1.0
C      1  0.4850810000000  0.4385980000000  0.5181340000000 1.0
C      1  0.5332310000000  0.4841910000000  0.5755270000000 1.0
C      1  0.5081920000000  0.4815600000000  0.5327770000000 1.0
C      1  0.4682710000000  0.4673250000000  0.4296220000000 1.0
C      1  0.4941630000000  0.5210360000000  0.4800750000000 1.0
C      1  0.4910800000000  0.5698480000000  0.5216680000000 1.0
C      1  0.4538490000000  0.4924110000000  0.4470560000000 1.0
C      1  0.4825180000000  0.5682070000000  0.5505950000000 1.0
C      1  0.5379680000000  0.5289790000000  0.4417070000000 1.0
C      1  0.5562650000000  0.5530000000000  0.4870580000000 1.0
C      1  0.4656840000000  0.5690030000000  0.4763250000000 1.0
C      1  0.4706590000000  0.4596540000000  0.5650850000000 1.0
C      1  0.5017620000000  0.4721550000000  0.5708740000000 1.0
C      1  0.4840120000000  0.5409350000000  0.5057250000000 1.0
C      1  0.4798230000000  0.5451640000000  0.4608680000000 1.0
C      1  0.5892540000000  0.5079830000000  0.5024800000000 1.0
C      1  0.4982710000000  0.4875750000000  0.5019780000000 1.0
C      1  0.4376280000000  0.5181510000000  0.4531380000000 1.0
C      1  0.5156990000000  0.5072710000000  0.5483350000000 1.0
C      1  0.5359150000000  0.5593980000000  0.4309920000000 1.0
C      1  0.5405490000000  0.4917200000000  0.4652530000000 1.0
C      1  0.4695890000000  0.5399490000000  0.5544990000000 1.0
C      1  0.5709060000000  0.4573060000000  0.5346600000000 1.0
C      1  0.4367570000000  0.4940120000000  0.5348380000000 1.0
C      1  0.4147290000000  0.5188860000000  0.5305820000000 1.0
C      1  0.5701890000000  0.4683240000000  0.5074500000000 1.0
C      1  0.4401650000000  0.5298670000000  0.5514810000000 1.0
C      1  0.4930500000000  0.4677620000000  0.4803110000000 1.0
C      1  0.4793170000000  0.4974930000000  0.5741510000000 1.0
C      1  0.4853410000000  0.5890120000000  0.4833040000000 1.0
C      1  0.4684460000000  0.4987990000000  0.4760770000000 1.0
C      1  0.5328580000000  0.4671680000000  0.4840770000000 1.0
C      1  0.5611110000000  0.5314390000000  0.4639850000000 1.0
C      1  0.5025980000000  0.4782550000000  0.4538570000000 1.0
C      1  0.5215130000000  0.5093350000000  0.4965870000000 1.0
C      1  0.5313940000000  0.4704800000000  0.5162990000000 1.0
C      1  0.5033920000000  0.4519790000000  0.5435070000000 1.0
C      1  0.5107860000000  0.5804440000000  0.4890320000000 1.0
C      1  0.5008910000000  0.4382600000000  0.4891270000000 1.0
C      1  0.5164460000000  0.4411690000000  0.4590190000000 1.0
C      1  0.5549810000000  0.4329060000000  0.5427820000000 1.0
C      1  0.4724950000000  0.4287050000000  0.5647010000000 1.0
C      1  0.4732980000000  0.4957250000000  0.5198450000000 1.0
C      1  0.4797380000000  0.4924850000000  0.4168060000000 1.0
C      1  0.5482790000000  0.4535730000000  0.4571400000000 1.0
C      1  0.5516540000000  0.5375060000000  0.5497290000000 1.0
C      1  0.4316910000000  0.5475370000000  0.5236880000000 1.0
C      1  0.4529380000000  0.4460130000000  0.5138330000000 1.0
C      1  0.5512140000000  0.4965550000000  0.5071440000000 1.0
C      1  0.5669960000000  0.5261150000000  0.5146100000000 1.0
C      1  0.5168350000000  0.5339870000000  0.5689750000000 1.0
C      1  0.4602700000000  0.4695710000000  0.5372450000000 1.0
C      1  0.5127300000000  0.5613030000000  0.5541760000000 1.0
C      1  0.4512860000000  0.5081050000000  0.5003610000000 1.0
C      1  0.5709450000000  0.4556670000000  0.4824610000000 1.0
C      1  0.4818710000000  0.4183200000000  0.5435030000000 1.0
C      1  0.5527470000000  0.4709360000000  0.5546650000000 1.0
C      1  0.4376100000000  0.4628840000000  0.4437040000000 1.0
C      1  0.4488110000000  0.4173700000000  0.4727510000000 1.0
C      1  0.5176990000000  0.5084670000000  0.4102580000000 1.0
C      1  0.4621880000000  0.4653860000000  0.4748870000000 1.0
C      1  0.4191060000000  0.5031770000000  0.5005910000000 1.0
C      1  0.5134360000000  0.5093010000000  0.4546350000000 1.0
C      1  0.4884640000000  0.5230590000000  0.5729220000000 1.0
C      1  0.5670770000000  0.5041160000000  0.4780340000000 1.0
C      1  0.4421230000000  0.4223720000000  0.4966700000000 1.0
END
