TITL C-2847950-6905-460 -0.000979102603773806 125000 -604.913276062566 0 0 112 (C1) n - 1
REM
REM in /home/bkarasulu/work/CARBON/AIRSS/Generating-Clusters/AIREBO/with-SteepDescent/Only-C1/SD-CG-opt/Try1-1.4A-POS3A/HFTN-CG
REM
REM
REM
REM
REM
REM ./C.cell (11c1c37f851c82e70ff6c80c92926a4b)
REM
REM compiler GCC version 9.2.1 20190827 (Red Hat 9.2.1-1)
REM options -cpp -mtune=generic -march=x86-64 -g -O0 -fpre-include=/usr/include/finclude/math-vector-fortran.h
REM seed 1209633988 -217743351 1338151335 219078451 482533496 -471235128 -102727215 -1638620649 -125827304 -1456128717 -550017014 -1093961719 1088825015 -192880306 -1558009416 -1424990955 -1055984626 -453955997 -1160344680 -1407993650 816324746 238043116 -1198036208 -1394186178 -1624249601 -851081648 1061179994 1435627090 -54298869 -965718082 -2126094916 614440708 530632504
REM
CELL 1.54180   50.00000   50.00000   50.00000   90.00000   90.00000   90.00000
LATT -1
SFAC C  
C      1  0.5694470000000  0.4677450000000  0.5266820000000 1.0
C      1  0.4482700000000  0.5282810000000  0.4942870000000 1.0
C      1  0.5312120000000  0.4581030000000  0.5708030000000 1.0
C      1  0.4745220000000  0.4801380000000  0.5483350000000 1.0
C      1  0.4995740000000  0.4159670000000  0.5281290000000 1.0
C      1  0.5356860000000  0.5208410000000  0.5000840000000 1.0
C      1  0.5206950000000  0.4888330000000  0.4309980000000 1.0
C      1  0.5646010000000  0.5538770000000  0.5126750000000 1.0
C      1  0.4727430000000  0.4352800000000  0.4949720000000 1.0
C      1  0.5150140000000  0.4464480000000  0.4439090000000 1.0
C      1  0.4968000000000  0.5338370000000  0.4307000000000 1.0
C      1  0.5041660000000  0.5689650000000  0.5956900000000 1.0
C      1  0.4578390000000  0.4813420000000  0.5101570000000 1.0
C      1  0.4570280000000  0.5462320000000  0.5638070000000 1.0
C      1  0.4367850000000  0.4758420000000  0.4488750000000 1.0
C      1  0.4799780000000  0.5359560000000  0.4601780000000 1.0
C      1  0.4387520000000  0.5169650000000  0.5440470000000 1.0
C      1  0.5811180000000  0.5532310000000  0.4829600000000 1.0
C      1  0.5095630000000  0.4741420000000  0.4581960000000 1.0
C      1  0.4854980000000  0.5065300000000  0.4763270000000 1.0
C      1  0.4579590000000  0.5195830000000  0.5824250000000 1.0
C      1  0.5340470000000  0.4230780000000  0.4283460000000 1.0
C      1  0.5161650000000  0.5550570000000  0.4786570000000 1.0
C      1  0.5661280000000  0.5111200000000  0.5010640000000 1.0
C      1  0.5667280000000  0.5692130000000  0.5411960000000 1.0
C      1  0.4750040000000  0.4093760000000  0.4757320000000 1.0
C      1  0.4600090000000  0.5798500000000  0.4766760000000 1.0
C      1  0.5793040000000  0.5265470000000  0.5267270000000 1.0
C      1  0.4664330000000  0.5668120000000  0.5196460000000 1.0
C      1  0.4913430000000  0.5863000000000  0.4798190000000 1.0
C      1  0.5619410000000  0.4469460000000  0.4723840000000 1.0
C      1  0.5376960000000  0.4888770000000  0.5849720000000 1.0
C      1  0.4842440000000  0.5138280000000  0.4113450000000 1.0
C      1  0.4246360000000  0.4406080000000  0.5100590000000 1.0
C      1  0.4146960000000  0.4997440000000  0.5047810000000 1.0
C      1  0.5157650000000  0.5216130000000  0.4725250000000 1.0
C      1  0.5057690000000  0.5646310000000  0.5465890000000 1.0
C      1  0.4643890000000  0.4803000000000  0.5927710000000 1.0
C      1  0.5749200000000  0.5125010000000  0.4382720000000 1.0
C      1  0.5210400000000  0.4900360000000  0.5456900000000 1.0
C      1  0.5580850000000  0.4447550000000  0.5036460000000 1.0
C      1  0.5052150000000  0.5744170000000  0.4568520000000 1.0
C      1  0.4785100000000  0.4508040000000  0.5581620000000 1.0
C      1  0.4906420000000  0.4884120000000  0.5046560000000 1.0
C      1  0.4900390000000  0.5259610000000  0.5731300000000 1.0
C      1  0.5886250000000  0.4418080000000  0.5374470000000 1.0
C      1  0.4331560000000  0.5281520000000  0.4366660000000 1.0
C      1  0.4506230000000  0.4557130000000  0.4971330000000 1.0
C      1  0.4876540000000  0.5177240000000  0.5216260000000 1.0
C      1  0.4285670000000  0.4689050000000  0.5499200000000 1.0
C      1  0.5760640000000  0.5237960000000  0.5578750000000 1.0
C      1  0.4900260000000  0.4124460000000  0.4453850000000 1.0
C      1  0.4296540000000  0.5072100000000  0.4751680000000 1.0
C      1  0.5612520000000  0.4293730000000  0.5329850000000 1.0
C      1  0.4729420000000  0.5512400000000  0.4897670000000 1.0
C      1  0.5503190000000  0.4763780000000  0.5494100000000 1.0
C      1  0.4648670000000  0.4922050000000  0.4262310000000 1.0
C      1  0.5647390000000  0.5810110000000  0.4839900000000 1.0
C      1  0.4603330000000  0.4335480000000  0.5433480000000 1.0
C      1  0.4393580000000  0.5514480000000  0.5114450000000 1.0
C      1  0.5010550000000  0.4536120000000  0.5775600000000 1.0
C      1  0.5481380000000  0.4779810000000  0.4210610000000 1.0
C      1  0.5010370000000  0.4697310000000  0.5311170000000 1.0
C      1  0.5017620000000  0.5431310000000  0.5059240000000 1.0
C      1  0.4344280000000  0.5019440000000  0.4275250000000 1.0
C      1  0.5252660000000  0.4427750000000  0.4949240000000 1.0
C      1  0.5710620000000  0.4844780000000  0.4361950000000 1.0
C      1  0.5689960000000  0.4933510000000  0.5703340000000 1.0
C      1  0.4360490000000  0.5562480000000  0.4686950000000 1.0
C      1  0.4119360000000  0.4785970000000  0.4691750000000 1.0
C      1  0.5033440000000  0.5647250000000  0.4319350000000 1.0
C      1  0.4502880000000  0.4457110000000  0.4531460000000 1.0
C      1  0.5738190000000  0.4696890000000  0.4623100000000 1.0
C      1  0.4916430000000  0.4779760000000  0.5899320000000 1.0
C      1  0.4713270000000  0.4355890000000  0.4269940000000 1.0
C      1  0.4507010000000  0.5733680000000  0.4447460000000 1.0
C      1  0.5331090000000  0.4923640000000  0.4722390000000 1.0
C      1  0.5371690000000  0.5702330000000  0.4999400000000 1.0
C      1  0.5519320000000  0.5382030000000  0.4757750000000 1.0
C      1  0.5440840000000  0.5159630000000  0.5654350000000 1.0
C      1  0.4862420000000  0.4644260000000  0.4814590000000 1.0
C      1  0.4717410000000  0.5215630000000  0.5455440000000 1.0
C      1  0.5000260000000  0.5550090000000  0.5724980000000 1.0
C      1  0.4998040000000  0.4860720000000  0.4090480000000 1.0
C      1  0.4573610000000  0.5441180000000  0.4372910000000 1.0
C      1  0.4335420000000  0.4433690000000  0.5385070000000 1.0
C      1  0.5378670000000  0.4387290000000  0.5462130000000 1.0
C      1  0.4925630000000  0.5796600000000  0.5268990000000 1.0
C      1  0.5496460000000  0.5443450000000  0.5485070000000 1.0
C      1  0.5212060000000  0.4760390000000  0.4962900000000 1.0
C      1  0.4839610000000  0.4436240000000  0.4575210000000 1.0
C      1  0.4785730000000  0.4638270000000  0.4148020000000 1.0
C      1  0.4586830000000  0.4997110000000  0.4591120000000 1.0
C      1  0.4169650000000  0.5355980000000  0.4614040000000 1.0
C      1  0.4343300000000  0.4912060000000  0.5276750000000 1.0
C      1  0.4738860000000  0.4212920000000  0.5221070000000 1.0
C      1  0.5224020000000  0.5185690000000  0.4393120000000 1.0
C      1  0.5068830000000  0.5850530000000  0.5034150000000 1.0
C      1  0.5077230000000  0.5010500000000  0.5749960000000 1.0
C      1  0.5504580000000  0.5277760000000  0.4470460000000 1.0
C      1  0.5197460000000  0.5134380000000  0.5255500000000 1.0
C      1  0.5842290000000  0.5234950000000  0.4677550000000 1.0
C      1  0.5840170000000  0.4932480000000  0.5201780000000 1.0
C      1  0.5441750000000  0.4339840000000  0.4562340000000 1.0
C      1  0.4485350000000  0.4919190000000  0.5650230000000 1.0
C      1  0.5237900000000  0.5452270000000  0.5318670000000 1.0
C      1  0.4507010000000  0.5672030000000  0.5481660000000 1.0
C      1  0.4263440000000  0.4500430000000  0.4771420000000 1.0
C      1  0.5156750000000  0.4421950000000  0.5260930000000 1.0
C      1  0.5056220000000  0.4241570000000  0.4752960000000 1.0
C      1  0.4246870000000  0.5412630000000  0.5324840000000 1.0
C      1  0.5633000000000  0.4972420000000  0.4732770000000 1.0
END
