TITL C-2848498-1409-202 0.00203322631517095 125000 -375.198367645703 0 0 72 (C1) n - 1
REM
REM in /home/bkarasulu/work/CARBON/AIRSS/Generating-Clusters/AIREBO/with-SteepDescent/Only-C1/SD-CG-opt/Try1-1.4A-POS3A/HFTN-CG
REM
REM
REM
REM
REM
REM ./C.cell (11c1c37f851c82e70ff6c80c92926a4b)
REM
REM compiler GCC version 9.2.1 20190827 (Red Hat 9.2.1-1)
REM options -cpp -mtune=generic -march=x86-64 -g -O0 -fpre-include=/usr/include/finclude/math-vector-fortran.h
REM seed -1792275578 -827503101 1435051766 -906916771 -158632304 1574949266 -1562514586 336679652 -674196116 1313622209 1135983605 617771105 1514817790 522279007 -88964490 -306655823 -657216572 1633496543 -1354783735 -1495317134 900153624 79776876 770847148 411212234 -516396402 217378764 -1524995098 2075531002 2034801935 1894405363 -1664041428 -2137124906 -635880334
REM
CELL 1.54180   50.00000   50.00000   50.00000   90.00000   90.00000   90.00000
LATT -1
SFAC C  
C      1  0.5138010000000  0.5086620000000  0.5272070000000 1.0
C      1  0.5334690000000  0.5197240000000  0.5689720000000 1.0
C      1  0.4672130000000  0.4146320000000  0.4864020000000 1.0
C      1  0.4497680000000  0.5305420000000  0.4979260000000 1.0
C      1  0.5423280000000  0.4883280000000  0.5068690000000 1.0
C      1  0.4256710000000  0.5226830000000  0.4894880000000 1.0
C      1  0.5605980000000  0.5036900000000  0.5291770000000 1.0
C      1  0.5169360000000  0.5271060000000  0.4211670000000 1.0
C      1  0.4678800000000  0.4792420000000  0.4436350000000 1.0
C      1  0.4365930000000  0.4945410000000  0.5417760000000 1.0
C      1  0.5553670000000  0.4554390000000  0.4696290000000 1.0
C      1  0.4749620000000  0.5233160000000  0.5195120000000 1.0
C      1  0.5406500000000  0.4841180000000  0.4461250000000 1.0
C      1  0.5241390000000  0.5057760000000  0.4840770000000 1.0
C      1  0.5264700000000  0.5144260000000  0.4512440000000 1.0
C      1  0.4975650000000  0.5030200000000  0.4261240000000 1.0
C      1  0.4258510000000  0.4991710000000  0.4750730000000 1.0
C      1  0.4803980000000  0.5693820000000  0.4681340000000 1.0
C      1  0.5501450000000  0.4974670000000  0.5576220000000 1.0
C      1  0.4668790000000  0.5308790000000  0.5516810000000 1.0
C      1  0.4317800000000  0.4650530000000  0.4949240000000 1.0
C      1  0.5741140000000  0.4778660000000  0.4850340000000 1.0
C      1  0.5493880000000  0.4577110000000  0.5089750000000 1.0
C      1  0.4538490000000  0.5545320000000  0.5324750000000 1.0
C      1  0.5371870000000  0.4354340000000  0.4902580000000 1.0
C      1  0.4372910000000  0.4642010000000  0.4437550000000 1.0
C      1  0.5227010000000  0.4646460000000  0.4674540000000 1.0
C      1  0.4835110000000  0.5641520000000  0.5236490000000 1.0
C      1  0.4809520000000  0.4328570000000  0.5346470000000 1.0
C      1  0.4800990000000  0.4876490000000  0.5758970000000 1.0
C      1  0.5017040000000  0.5385290000000  0.5339940000000 1.0
C      1  0.5094470000000  0.5769430000000  0.4679030000000 1.0
C      1  0.5173130000000  0.5891950000000  0.4925800000000 1.0
C      1  0.5199320000000  0.5436350000000  0.4944970000000 1.0
C      1  0.4407440000000  0.4721540000000  0.5235000000000 1.0
C      1  0.4647320000000  0.5161800000000  0.5775240000000 1.0
C      1  0.4193590000000  0.4688250000000  0.4671050000000 1.0
C      1  0.4578450000000  0.5546060000000  0.4577620000000 1.0
C      1  0.5620580000000  0.4976670000000  0.4675460000000 1.0
C      1  0.5567660000000  0.5520180000000  0.4598250000000 1.0
C      1  0.5125430000000  0.4935050000000  0.5703230000000 1.0
C      1  0.4801950000000  0.4445440000000  0.4766710000000 1.0
C      1  0.5273470000000  0.5411990000000  0.5529550000000 1.0
C      1  0.4539560000000  0.4880780000000  0.4710780000000 1.0
C      1  0.5375220000000  0.5593220000000  0.5270230000000 1.0
C      1  0.4382580000000  0.5242110000000  0.5353400000000 1.0
C      1  0.4958610000000  0.5388290000000  0.4435140000000 1.0
C      1  0.5371040000000  0.4712620000000  0.5657760000000 1.0
C      1  0.4742240000000  0.5307320000000  0.4761060000000 1.0
C      1  0.4468700000000  0.4907170000000  0.5688440000000 1.0
C      1  0.5605480000000  0.4582100000000  0.4361390000000 1.0
C      1  0.5111710000000  0.4583430000000  0.4976920000000 1.0
C      1  0.4750100000000  0.5122660000000  0.4475650000000 1.0
C      1  0.5046340000000  0.4347020000000  0.5507300000000 1.0
C      1  0.5143840000000  0.5769530000000  0.5171020000000 1.0
C      1  0.4646590000000  0.4664850000000  0.4918260000000 1.0
C      1  0.4916340000000  0.5076980000000  0.4943190000000 1.0
C      1  0.5599580000000  0.5487250000000  0.5029250000000 1.0
C      1  0.4930380000000  0.4589960000000  0.4518210000000 1.0
C      1  0.5257890000000  0.4532120000000  0.5465070000000 1.0
C      1  0.4790110000000  0.4831450000000  0.5142120000000 1.0
C      1  0.5099030000000  0.4787930000000  0.4323710000000 1.0
C      1  0.4912370000000  0.5535620000000  0.4946900000000 1.0
C      1  0.5046900000000  0.4263390000000  0.4916760000000 1.0
C      1  0.5821170000000  0.4870180000000  0.5093810000000 1.0
C      1  0.5520290000000  0.5249760000000  0.4798910000000 1.0
C      1  0.4915380000000  0.4822720000000  0.5458100000000 1.0
C      1  0.5384850000000  0.5267010000000  0.5174250000000 1.0
C      1  0.4828180000000  0.4154710000000  0.5126280000000 1.0
C      1  0.5166920000000  0.4749180000000  0.5241380000000 1.0
C      1  0.4658270000000  0.4562700000000  0.5303740000000 1.0
C      1  0.5234960000000  0.5465460000000  0.4620090000000 1.0
END
