TITL C-2848509-3138-127 -0.00246107631865816 125000 -556.308433478463 0 0 101 (C1) n - 1
REM
REM in /home/bkarasulu/work/CARBON/AIRSS/Generating-Clusters/AIREBO/with-SteepDescent/Only-C1/SD-CG-opt/Try1-1.4A-POS3A/HFTN-CG
REM
REM
REM
REM
REM
REM ./C.cell (11c1c37f851c82e70ff6c80c92926a4b)
REM
REM compiler GCC version 9.2.1 20190827 (Red Hat 9.2.1-1)
REM options -cpp -mtune=generic -march=x86-64 -g -O0 -fpre-include=/usr/include/finclude/math-vector-fortran.h
REM seed -2112403731 -974068191 515746295 1539699797 -597839117 509737909 -307939359 -1544427269 -2014905370 1878988569 748022479 -1551686321 2106112584 -1798551832 592229674 192380145 911951113 -1746175498 943856981 1044725535 927424897 1138852215 345215469 1696996066 -2040731412 -1977373302 -1667667438 264112872 -1018339971 1766523873 948860803 57193473 -1268437785
REM
CELL 1.54180   50.00000   50.00000   50.00000   90.00000   90.00000   90.00000
LATT -1
SFAC C  
C      1  0.5182930000000  0.4577180000000  0.5101680000000 1.0
C      1  0.4050800000000  0.5149600000000  0.4799270000000 1.0
C      1  0.5323910000000  0.5023840000000  0.5741200000000 1.0
C      1  0.5533570000000  0.5340650000000  0.5003590000000 1.0
C      1  0.4257870000000  0.5540530000000  0.5159400000000 1.0
C      1  0.4276190000000  0.4466450000000  0.5506380000000 1.0
C      1  0.5682690000000  0.5058980000000  0.4465400000000 1.0
C      1  0.5120060000000  0.4296060000000  0.5243160000000 1.0
C      1  0.4966600000000  0.5285500000000  0.5463930000000 1.0
C      1  0.4628140000000  0.5597670000000  0.4649350000000 1.0
C      1  0.5036240000000  0.4998830000000  0.5818340000000 1.0
C      1  0.5186450000000  0.4987000000000  0.4778110000000 1.0
C      1  0.5372240000000  0.5119980000000  0.5212020000000 1.0
C      1  0.5184800000000  0.4332070000000  0.4425000000000 1.0
C      1  0.4742230000000  0.5845080000000  0.4672210000000 1.0
C      1  0.4309970000000  0.5226660000000  0.4590480000000 1.0
C      1  0.5323510000000  0.4739750000000  0.4347050000000 1.0
C      1  0.5073840000000  0.5076880000000  0.5254180000000 1.0
C      1  0.4964260000000  0.5397240000000  0.5020330000000 1.0
C      1  0.5420000000000  0.5346840000000  0.5681890000000 1.0
C      1  0.5505740000000  0.5110000000000  0.5474840000000 1.0
C      1  0.4744030000000  0.5315540000000  0.5240130000000 1.0
C      1  0.4837290000000  0.5701990000000  0.5454960000000 1.0
C      1  0.4696690000000  0.4787920000000  0.5312400000000 1.0
C      1  0.4470930000000  0.5437640000000  0.4446980000000 1.0
C      1  0.5713990000000  0.4867510000000  0.5492360000000 1.0
C      1  0.5642460000000  0.4645660000000  0.4350380000000 1.0
C      1  0.5463510000000  0.5655400000000  0.5560760000000 1.0
C      1  0.5010960000000  0.4770880000000  0.5309080000000 1.0
C      1  0.4870480000000  0.4446430000000  0.5667130000000 1.0
C      1  0.5797690000000  0.4772650000000  0.4558540000000 1.0
C      1  0.5502790000000  0.5583810000000  0.4669910000000 1.0
C      1  0.4436050000000  0.5141320000000  0.4894490000000 1.0
C      1  0.5463070000000  0.5842360000000  0.5120980000000 1.0
C      1  0.4925690000000  0.4994510000000  0.4974410000000 1.0
C      1  0.5884450000000  0.5101870000000  0.5348290000000 1.0
C      1  0.5280610000000  0.4050050000000  0.4688600000000 1.0
C      1  0.4908370000000  0.4579970000000  0.4624840000000 1.0
C      1  0.4652710000000  0.4777450000000  0.5627290000000 1.0
C      1  0.4370610000000  0.5198840000000  0.5479220000000 1.0
C      1  0.4530540000000  0.4493470000000  0.5687140000000 1.0
C      1  0.4194450000000  0.4686940000000  0.4949750000000 1.0
C      1  0.4599970000000  0.5821840000000  0.5344510000000 1.0
C      1  0.4624220000000  0.5471540000000  0.5701950000000 1.0
C      1  0.5167380000000  0.5854170000000  0.5088430000000 1.0
C      1  0.5220360000000  0.4377050000000  0.4760190000000 1.0
C      1  0.4563210000000  0.4496440000000  0.4452570000000 1.0
C      1  0.4499000000000  0.5499930000000  0.5387050000000 1.0
C      1  0.5213140000000  0.4697290000000  0.4645540000000 1.0
C      1  0.4725460000000  0.5417860000000  0.4268920000000 1.0
C      1  0.4522630000000  0.4526480000000  0.5289710000000 1.0
C      1  0.4649220000000  0.4439260000000  0.4784040000000 1.0
C      1  0.4106500000000  0.4950090000000  0.5014280000000 1.0
C      1  0.4542860000000  0.5067590000000  0.5667760000000 1.0
C      1  0.5233120000000  0.5316860000000  0.4846140000000 1.0
C      1  0.5027930000000  0.4182410000000  0.4966480000000 1.0
C      1  0.4881930000000  0.6009640000000  0.5006280000000 1.0
C      1  0.5783300000000  0.4672800000000  0.4810800000000 1.0
C      1  0.4817330000000  0.5091990000000  0.4602300000000 1.0
C      1  0.5497330000000  0.4224920000000  0.4527450000000 1.0
C      1  0.5679900000000  0.5120020000000  0.4790200000000 1.0
C      1  0.4587250000000  0.5045370000000  0.5180850000000 1.0
C      1  0.4956490000000  0.4753820000000  0.5750990000000 1.0
C      1  0.5552440000000  0.5840010000000  0.5390370000000 1.0
C      1  0.5428660000000  0.4315800000000  0.5487040000000 1.0
C      1  0.4733960000000  0.4239950000000  0.4974570000000 1.0
C      1  0.4830250000000  0.5209600000000  0.5734240000000 1.0
C      1  0.4709850000000  0.5105050000000  0.3885230000000 1.0
C      1  0.4224890000000  0.4533600000000  0.5177000000000 1.0
C      1  0.5499490000000  0.4642480000000  0.4995710000000 1.0
C      1  0.4660000000000  0.6019860000000  0.5155590000000 1.0
C      1  0.5178610000000  0.5504110000000  0.5511470000000 1.0
C      1  0.4875420000000  0.4245980000000  0.5426110000000 1.0
C      1  0.5482030000000  0.4997400000000  0.4252450000000 1.0
C      1  0.5015410000000  0.4751930000000  0.4281030000000 1.0
C      1  0.4768430000000  0.5165190000000  0.4139420000000 1.0
C      1  0.5454650000000  0.4954670000000  0.4944050000000 1.0
C      1  0.5117080000000  0.3876080000000  0.4850650000000 1.0
C      1  0.5410520000000  0.4735290000000  0.5570640000000 1.0
C      1  0.4878960000000  0.4452390000000  0.4328190000000 1.0
C      1  0.4663830000000  0.4279930000000  0.5240610000000 1.0
C      1  0.5157230000000  0.4520760000000  0.5495760000000 1.0
C      1  0.4252170000000  0.5056650000000  0.5237550000000 1.0
C      1  0.4855210000000  0.5376880000000  0.4731320000000 1.0
C      1  0.5575760000000  0.5663870000000  0.4945130000000 1.0
C      1  0.5790260000000  0.5296870000000  0.5222250000000 1.0
C      1  0.4427820000000  0.4684020000000  0.4701980000000 1.0
C      1  0.4866590000000  0.4987530000000  0.4337860000000 1.0
C      1  0.4646990000000  0.4922210000000  0.4805030000000 1.0
C      1  0.5615210000000  0.4621400000000  0.5315340000000 1.0
C      1  0.5186980000000  0.5579240000000  0.4633970000000 1.0
C      1  0.5048210000000  0.5611370000000  0.5233270000000 1.0
C      1  0.5536830000000  0.4330710000000  0.4864920000000 1.0
C      1  0.4935500000000  0.4677470000000  0.4929480000000 1.0
C      1  0.4211780000000  0.5375680000000  0.4957060000000 1.0
C      1  0.5654160000000  0.5372960000000  0.4571270000000 1.0
C      1  0.5572280000000  0.4310100000000  0.5202550000000 1.0
C      1  0.4946910000000  0.5494080000000  0.4435120000000 1.0
C      1  0.5471360000000  0.5099150000000  0.4013420000000 1.0
C      1  0.5057880000000  0.5836890000000  0.4770290000000 1.0
C      1  0.4268420000000  0.4906430000000  0.4500170000000 1.0
END
