TITL C-2847953-8112-88 0.000836102198516871 125000 -622.011437944085 0 0 114 (C1) n - 1
REM
REM in /home/bkarasulu/work/CARBON/AIRSS/Generating-Clusters/AIREBO/with-SteepDescent/Only-C1/SD-CG-opt/Try1-1.4A-POS3A/HFTN-CG
REM
REM
REM
REM
REM
REM ./C.cell (11c1c37f851c82e70ff6c80c92926a4b)
REM
REM compiler GCC version 9.2.1 20190827 (Red Hat 9.2.1-1)
REM options -cpp -mtune=generic -march=x86-64 -g -O0 -fpre-include=/usr/include/finclude/math-vector-fortran.h
REM seed 314841198 -480074547 -199620831 1496223971 -405784183 -1376349768 -201886934 327550732 1865839017 -1003150220 878906698 -68578175 -1013058692 959100333 -1936980543 -994637375 1055645156 1095661647 -491121003 -1753798047 -1731089527 1447190734 -462787221 1694355741 -89711896 590074241 -934901081 190721192 -1600563590 -1497811524 652188357 1198140944 1575836322
REM
CELL 1.54180   50.00000   50.00000   50.00000   90.00000   90.00000   90.00000
LATT -1
SFAC C  
C      1  0.5796050000000  0.5517200000000  0.5118060000000 1.0
C      1  0.5737260000000  0.4577540000000  0.5571100000000 1.0
C      1  0.5203840000000  0.4960690000000  0.4809890000000 1.0
C      1  0.5508760000000  0.5064620000000  0.4577210000000 1.0
C      1  0.4512490000000  0.5842660000000  0.5069500000000 1.0
C      1  0.4254070000000  0.5662560000000  0.5162190000000 1.0
C      1  0.5668570000000  0.4377420000000  0.5118500000000 1.0
C      1  0.4989990000000  0.5130480000000  0.4423940000000 1.0
C      1  0.4605410000000  0.4567700000000  0.4698620000000 1.0
C      1  0.5621800000000  0.5028790000000  0.4141620000000 1.0
C      1  0.5197270000000  0.4712860000000  0.5333970000000 1.0
C      1  0.4374510000000  0.5263450000000  0.4580070000000 1.0
C      1  0.5039520000000  0.4762740000000  0.4680790000000 1.0
C      1  0.5504990000000  0.4835070000000  0.4905870000000 1.0
C      1  0.5487070000000  0.5269440000000  0.5431350000000 1.0
C      1  0.5004490000000  0.5536380000000  0.4377730000000 1.0
C      1  0.4743450000000  0.4669320000000  0.5153730000000 1.0
C      1  0.5544150000000  0.5309890000000  0.5827200000000 1.0
C      1  0.5390060000000  0.4316690000000  0.4843230000000 1.0
C      1  0.5321320000000  0.4271700000000  0.4446410000000 1.0
C      1  0.4830350000000  0.4606570000000  0.4880760000000 1.0
C      1  0.5714830000000  0.5453800000000  0.4818570000000 1.0
C      1  0.5439000000000  0.5015680000000  0.5253420000000 1.0
C      1  0.5276680000000  0.5365260000000  0.5756060000000 1.0
C      1  0.5159230000000  0.5601990000000  0.5673720000000 1.0
C      1  0.5132640000000  0.4311270000000  0.4238290000000 1.0
C      1  0.5331050000000  0.4579370000000  0.5051130000000 1.0
C      1  0.5703600000000  0.4847900000000  0.5181630000000 1.0
C      1  0.4496910000000  0.4328770000000  0.5539630000000 1.0
C      1  0.4979990000000  0.5449100000000  0.5353600000000 1.0
C      1  0.5050440000000  0.4801220000000  0.4363610000000 1.0
C      1  0.4881420000000  0.4815810000000  0.5406440000000 1.0
C      1  0.5101400000000  0.4472050000000  0.4752980000000 1.0
C      1  0.4855890000000  0.5624420000000  0.5604670000000 1.0
C      1  0.5103320000000  0.4325030000000  0.5700420000000 1.0
C      1  0.4362510000000  0.4392290000000  0.4961610000000 1.0
C      1  0.4942240000000  0.5803080000000  0.5074030000000 1.0
C      1  0.5133600000000  0.5752550000000  0.5350690000000 1.0
C      1  0.4485070000000  0.4865970000000  0.5387200000000 1.0
C      1  0.4234350000000  0.5071690000000  0.4823680000000 1.0
C      1  0.5211770000000  0.4096660000000  0.4678440000000 1.0
C      1  0.4476330000000  0.5228700000000  0.4989370000000 1.0
C      1  0.4160000000000  0.5064550000000  0.4419440000000 1.0
C      1  0.5570950000000  0.5619170000000  0.4653170000000 1.0
C      1  0.5595670000000  0.4780550000000  0.5691910000000 1.0
C      1  0.5747330000000  0.4914350000000  0.4403830000000 1.0
C      1  0.5450190000000  0.4231000000000  0.5228580000000 1.0
C      1  0.4962130000000  0.4116220000000  0.4849640000000 1.0
C      1  0.4999420000000  0.5419760000000  0.4906070000000 1.0
C      1  0.4489560000000  0.4650700000000  0.5650330000000 1.0
C      1  0.4140840000000  0.4715220000000  0.5258170000000 1.0
C      1  0.5874780000000  0.5772890000000  0.5189510000000 1.0
C      1  0.4260420000000  0.5603680000000  0.5436820000000 1.0
C      1  0.4062620000000  0.4890340000000  0.5060270000000 1.0
C      1  0.4826740000000  0.4861070000000  0.4116400000000 1.0
C      1  0.4829400000000  0.4265050000000  0.5508110000000 1.0
C      1  0.4697680000000  0.5191350000000  0.4502150000000 1.0
C      1  0.4941340000000  0.6026690000000  0.5444310000000 1.0
C      1  0.4396130000000  0.3909390000000  0.4989190000000 1.0
C      1  0.4711820000000  0.4169440000000  0.4725970000000 1.0
C      1  0.5758810000000  0.4576920000000  0.5286830000000 1.0
C      1  0.4480970000000  0.4146200000000  0.4893370000000 1.0
C      1  0.4421650000000  0.5377750000000  0.5590550000000 1.0
C      1  0.5826810000000  0.5068950000000  0.5365760000000 1.0
C      1  0.4651970000000  0.5088660000000  0.5227280000000 1.0
C      1  0.4370630000000  0.4494920000000  0.4389550000000 1.0
C      1  0.5480940000000  0.5389840000000  0.5131990000000 1.0
C      1  0.4222820000000  0.4526900000000  0.5491730000000 1.0
C      1  0.4561410000000  0.5680720000000  0.5554120000000 1.0
C      1  0.4447580000000  0.4602080000000  0.5175470000000 1.0
C      1  0.5428290000000  0.5317750000000  0.4432300000000 1.0
C      1  0.4867120000000  0.4853480000000  0.5899460000000 1.0
C      1  0.4501400000000  0.5513980000000  0.4388330000000 1.0
C      1  0.5377460000000  0.4775870000000  0.4453890000000 1.0
C      1  0.5242910000000  0.5540680000000  0.4610040000000 1.0
C      1  0.4739850000000  0.4961190000000  0.5679360000000 1.0
C      1  0.5674020000000  0.4449390000000  0.4785820000000 1.0
C      1  0.5206030000000  0.6041390000000  0.4710740000000 1.0
C      1  0.5563920000000  0.5169180000000  0.4881650000000 1.0
C      1  0.4946570000000  0.5149040000000  0.5386320000000 1.0
C      1  0.5134510000000  0.5801550000000  0.4799280000000 1.0
C      1  0.5162220000000  0.4960260000000  0.5113080000000 1.0
C      1  0.5396350000000  0.5911790000000  0.5333310000000 1.0
C      1  0.5413150000000  0.5246680000000  0.4146180000000 1.0
C      1  0.5136500000000  0.5227120000000  0.4687900000000 1.0
C      1  0.4893150000000  0.5133040000000  0.4991690000000 1.0
C      1  0.4491970000000  0.5516670000000  0.4974990000000 1.0
C      1  0.5953770000000  0.5283130000000  0.5253180000000 1.0
C      1  0.4765310000000  0.5652860000000  0.4825450000000 1.0
C      1  0.4254550000000  0.4808130000000  0.4402010000000 1.0
C      1  0.5720230000000  0.5056810000000  0.5676220000000 1.0
C      1  0.5215780000000  0.5113690000000  0.5566290000000 1.0
C      1  0.4935030000000  0.4486050000000  0.4307390000000 1.0
C      1  0.4545420000000  0.4825660000000  0.4539760000000 1.0
C      1  0.4091060000000  0.4780170000000  0.4765240000000 1.0
C      1  0.5740630000000  0.4755990000000  0.4673490000000 1.0
C      1  0.4265870000000  0.4552210000000  0.4707990000000 1.0
C      1  0.4755280000000  0.5596150000000  0.4490190000000 1.0
C      1  0.5757550000000  0.5385560000000  0.5597670000000 1.0
C      1  0.5074230000000  0.4353500000000  0.5070590000000 1.0
C      1  0.5483760000000  0.4504910000000  0.4507930000000 1.0
C      1  0.4511530000000  0.5130970000000  0.5598630000000 1.0
C      1  0.5091870000000  0.4636850000000  0.5797290000000 1.0
C      1  0.5295600000000  0.4800510000000  0.5632980000000 1.0
C      1  0.4683910000000  0.4373440000000  0.4455050000000 1.0
C      1  0.5141470000000  0.4264780000000  0.5367870000000 1.0
C      1  0.4510810000000  0.5231750000000  0.4210760000000 1.0
C      1  0.4585180000000  0.4935310000000  0.4220340000000 1.0
C      1  0.5112370000000  0.5310420000000  0.4188680000000 1.0
C      1  0.4710440000000  0.5859100000000  0.5316440000000 1.0
C      1  0.4801610000000  0.4569570000000  0.5626940000000 1.0
C      1  0.5212820000000  0.5513840000000  0.5114380000000 1.0
C      1  0.4621310000000  0.5963360000000  0.4779680000000 1.0
C      1  0.4638850000000  0.5045510000000  0.4781770000000 1.0
END
