TITL C-2848494-1720-397 -0.00107232941512256 125000 -691.308169484201 0 0 123 (C1) n - 1
REM
REM in /home/bkarasulu/work/CARBON/AIRSS/Generating-Clusters/AIREBO/with-SteepDescent/Only-C1/SD-CG-opt/Try1-1.4A-POS3A/HFTN-CG
REM
REM
REM
REM
REM
REM ./C.cell (11c1c37f851c82e70ff6c80c92926a4b)
REM
REM compiler GCC version 9.2.1 20190827 (Red Hat 9.2.1-1)
REM options -cpp -mtune=generic -march=x86-64 -g -O0 -fpre-include=/usr/include/finclude/math-vector-fortran.h
REM seed -741835087 -685650074 256098241 -826217687 907393898 -426916287 -1859993093 -891420000 -1869131608 1701339440 59434689 35169471 -1635993776 2088014695 1489294907 1861399193 1341674967 -1010952937 -552584195 517995566 -2097640203 422121544 -1756410960 -199876305 -1799956209 1003749441 -1915080679 1625486343 -1527489089 832809254 1034278910 -333974958 -81247950
REM
CELL 1.54180   50.00000   50.00000   50.00000   90.00000   90.00000   90.00000
LATT -1
SFAC C  
C      1  0.5278950000000  0.4660910000000  0.4136340000000 1.0
C      1  0.4744840000000  0.4905440000000  0.4271520000000 1.0
C      1  0.4413960000000  0.4360260000000  0.5240820000000 1.0
C      1  0.4946500000000  0.5830880000000  0.4471180000000 1.0
C      1  0.5490530000000  0.5402730000000  0.4159420000000 1.0
C      1  0.4324980000000  0.4361860000000  0.4981020000000 1.0
C      1  0.5078740000000  0.5096130000000  0.4730170000000 1.0
C      1  0.4513610000000  0.4340160000000  0.4773850000000 1.0
C      1  0.4617790000000  0.5652280000000  0.4824010000000 1.0
C      1  0.5360300000000  0.4544150000000  0.5072430000000 1.0
C      1  0.4596940000000  0.5576430000000  0.4321590000000 1.0
C      1  0.5413470000000  0.5015720000000  0.5345850000000 1.0
C      1  0.5793750000000  0.4870070000000  0.5705180000000 1.0
C      1  0.5481590000000  0.4893960000000  0.5655940000000 1.0
C      1  0.5314320000000  0.4219620000000  0.4267770000000 1.0
C      1  0.5026170000000  0.5553060000000  0.4081010000000 1.0
C      1  0.5784110000000  0.5114310000000  0.4798040000000 1.0
C      1  0.5209910000000  0.5854680000000  0.4637290000000 1.0
C      1  0.4770110000000  0.4244870000000  0.4881600000000 1.0
C      1  0.5693650000000  0.5593900000000  0.4136290000000 1.0
C      1  0.4703160000000  0.5920650000000  0.4635650000000 1.0
C      1  0.4716770000000  0.4680320000000  0.4477160000000 1.0
C      1  0.5015640000000  0.4337320000000  0.5709020000000 1.0
C      1  0.5461070000000  0.5337710000000  0.4989580000000 1.0
C      1  0.4988810000000  0.4453640000000  0.4826810000000 1.0
C      1  0.4799550000000  0.5595520000000  0.5500390000000 1.0
C      1  0.4294910000000  0.4982830000000  0.5815770000000 1.0
C      1  0.4908670000000  0.4866060000000  0.5553580000000 1.0
C      1  0.4651090000000  0.5457680000000  0.5883380000000 1.0
C      1  0.5691600000000  0.4838150000000  0.5322290000000 1.0
C      1  0.5391390000000  0.4666470000000  0.4438990000000 1.0
C      1  0.5175380000000  0.5384080000000  0.4831670000000 1.0
C      1  0.5052360000000  0.5086230000000  0.4301220000000 1.0
C      1  0.5140200000000  0.4841770000000  0.4513040000000 1.0
C      1  0.5950650000000  0.4667980000000  0.5060310000000 1.0
C      1  0.5858220000000  0.4595670000000  0.5678950000000 1.0
C      1  0.4092330000000  0.4751840000000  0.5009580000000 1.0
C      1  0.4619870000000  0.5435200000000  0.4592490000000 1.0
C      1  0.5271790000000  0.5322520000000  0.5552700000000 1.0
C      1  0.4122400000000  0.5672830000000  0.5302300000000 1.0
C      1  0.4567320000000  0.5342860000000  0.5198810000000 1.0
C      1  0.4931510000000  0.5514340000000  0.5867980000000 1.0
C      1  0.5657000000000  0.4556480000000  0.5190530000000 1.0
C      1  0.4068340000000  0.4566180000000  0.5209850000000 1.0
C      1  0.5648110000000  0.4440110000000  0.5503340000000 1.0
C      1  0.5183560000000  0.3743910000000  0.4853800000000 1.0
C      1  0.4176290000000  0.5143240000000  0.5326190000000 1.0
C      1  0.5624040000000  0.4326740000000  0.4865190000000 1.0
C      1  0.5257190000000  0.5454670000000  0.3919100000000 1.0
C      1  0.5377530000000  0.5759790000000  0.5387470000000 1.0
C      1  0.4406840000000  0.5111750000000  0.5552470000000 1.0
C      1  0.4258540000000  0.4996670000000  0.5062720000000 1.0
C      1  0.5670950000000  0.4741420000000  0.4530190000000 1.0
C      1  0.4607320000000  0.4643160000000  0.5691270000000 1.0
C      1  0.4542140000000  0.4476470000000  0.4527180000000 1.0
C      1  0.5502420000000  0.4158540000000  0.5093400000000 1.0
C      1  0.4839800000000  0.5696120000000  0.4222080000000 1.0
C      1  0.4436230000000  0.5776270000000  0.4493740000000 1.0
C      1  0.3887970000000  0.5114880000000  0.5412940000000 1.0
C      1  0.4279910000000  0.5165490000000  0.4812820000000 1.0
C      1  0.5774520000000  0.5356900000000  0.5007990000000 1.0
C      1  0.5221790000000  0.5267200000000  0.5220740000000 1.0
C      1  0.4378630000000  0.4749280000000  0.5871160000000 1.0
C      1  0.5095610000000  0.4301480000000  0.5380480000000 1.0
C      1  0.5743630000000  0.5018170000000  0.4521320000000 1.0
C      1  0.4727610000000  0.5572010000000  0.5085900000000 1.0
C      1  0.4567730000000  0.4484040000000  0.5409950000000 1.0
C      1  0.4583120000000  0.5028030000000  0.5158870000000 1.0
C      1  0.5253380000000  0.4029330000000  0.4944990000000 1.0
C      1  0.5807640000000  0.5612970000000  0.5188260000000 1.0
C      1  0.5091880000000  0.4850110000000  0.4083040000000 1.0
C      1  0.4808800000000  0.4987630000000  0.4906180000000 1.0
C      1  0.5181490000000  0.5370590000000  0.4298820000000 1.0
C      1  0.4979380000000  0.5024910000000  0.5796560000000 1.0
C      1  0.4908480000000  0.4722950000000  0.4713950000000 1.0
C      1  0.5164540000000  0.5548110000000  0.4569620000000 1.0
C      1  0.5137530000000  0.5578510000000  0.5467170000000 1.0
C      1  0.5582830000000  0.5360400000000  0.5529320000000 1.0
C      1  0.4955510000000  0.5802720000000  0.5721700000000 1.0
C      1  0.3965690000000  0.4728210000000  0.4760420000000 1.0
C      1  0.4705720000000  0.5828300000000  0.5279840000000 1.0
C      1  0.4333190000000  0.5002230000000  0.4534910000000 1.0
C      1  0.5254150000000  0.5944720000000  0.4886010000000 1.0
C      1  0.4303340000000  0.5441900000000  0.5358160000000 1.0
C      1  0.5558230000000  0.5189640000000  0.4370280000000 1.0
C      1  0.5373990000000  0.4636760000000  0.5461020000000 1.0
C      1  0.5919410000000  0.5138350000000  0.5195980000000 1.0
C      1  0.5080370000000  0.4973470000000  0.5110470000000 1.0
C      1  0.5032150000000  0.5523500000000  0.5087510000000 1.0
C      1  0.4993020000000  0.4152210000000  0.5126110000000 1.0
C      1  0.4685490000000  0.6184980000000  0.4714940000000 1.0
C      1  0.5046110000000  0.4761970000000  0.5913520000000 1.0
C      1  0.3705210000000  0.4663150000000  0.4736920000000 1.0
C      1  0.5652270000000  0.4878930000000  0.4904250000000 1.0
C      1  0.4128290000000  0.4776750000000  0.4535130000000 1.0
C      1  0.5287680000000  0.4339800000000  0.4810570000000 1.0
C      1  0.4866590000000  0.4554170000000  0.5821150000000 1.0
C      1  0.5295970000000  0.4390110000000  0.4045700000000 1.0
C      1  0.4540910000000  0.5414960000000  0.5590300000000 1.0
C      1  0.5338090000000  0.4361570000000  0.4499890000000 1.0
C      1  0.5421960000000  0.4258750000000  0.5345620000000 1.0
C      1  0.5372290000000  0.5156900000000  0.4574570000000 1.0
C      1  0.6044780000000  0.4912050000000  0.5119170000000 1.0
C      1  0.4876200000000  0.4560080000000  0.5408810000000 1.0
C      1  0.5307420000000  0.4418340000000  0.5712820000000 1.0
C      1  0.5076620000000  0.5285760000000  0.5782000000000 1.0
C      1  0.4139780000000  0.5434800000000  0.4777870000000 1.0
C      1  0.4909660000000  0.3706160000000  0.4876780000000 1.0
C      1  0.5761160000000  0.4583240000000  0.4805320000000 1.0
C      1  0.4609890000000  0.4880210000000  0.5444510000000 1.0
C      1  0.5160050000000  0.5815790000000  0.5149920000000 1.0
C      1  0.4788970000000  0.3927810000000  0.4972440000000 1.0
C      1  0.4592460000000  0.5149520000000  0.4697320000000 1.0
C      1  0.4401210000000  0.5207460000000  0.4078990000000 1.0
C      1  0.4290300000000  0.5647160000000  0.4720890000000 1.0
C      1  0.5314690000000  0.4691990000000  0.5849790000000 1.0
C      1  0.4830730000000  0.4801950000000  0.3959230000000 1.0
C      1  0.4977900000000  0.5937660000000  0.5410420000000 1.0
C      1  0.5771890000000  0.5126840000000  0.5483050000000 1.0
C      1  0.5622470000000  0.5615620000000  0.5404580000000 1.0
C      1  0.5127290000000  0.4684850000000  0.5272090000000 1.0
C      1  0.5399210000000  0.4870360000000  0.5052070000000 1.0
C      1  0.4489980000000  0.5060740000000  0.4275320000000 1.0
END
