TITL C-2848498-1409-350 -0.00269291500240387 125000 -201.698886003666 0 0 37 (C1) n - 1
REM
REM in /home/bkarasulu/work/CARBON/AIRSS/Generating-Clusters/AIREBO/with-SteepDescent/Only-C1/SD-CG-opt/Try1-1.4A-POS3A/HFTN-CG
REM
REM
REM
REM
REM
REM ./C.cell (11c1c37f851c82e70ff6c80c92926a4b)
REM
REM compiler GCC version 9.2.1 20190827 (Red Hat 9.2.1-1)
REM options -cpp -mtune=generic -march=x86-64 -g -O0 -fpre-include=/usr/include/finclude/math-vector-fortran.h
REM seed -599839114 324681238 831506857 113274886 1921146750 -844828752 -40617628 -702330340 1966935885 1084185427 1800881754 1314589731 -523383727 1232140611 1876970656 936789128 1823160472 -407355665 252667335 -1605565163 -1682209587 -1107115023 -458936052 -1218537764 1956624414 -1340946033 -1752991096 1447745578 -81558001 627714516 -1964143223 497510122 1671501668
REM
CELL 1.54180   50.00000   50.00000   50.00000   90.00000   90.00000   90.00000
LATT -1
SFAC C  
C      1  0.5079740000000  0.4577880000000  0.4562260000000 1.0
C      1  0.4611160000000  0.4881780000000  0.5392110000000 1.0
C      1  0.4966270000000  0.4869180000000  0.4463620000000 1.0
C      1  0.4506670000000  0.5281120000000  0.4876600000000 1.0
C      1  0.4984790000000  0.4411540000000  0.4913150000000 1.0
C      1  0.4928410000000  0.4531940000000  0.5555540000000 1.0
C      1  0.4703130000000  0.5327140000000  0.5443120000000 1.0
C      1  0.4553640000000  0.5388650000000  0.5204860000000 1.0
C      1  0.5520930000000  0.4985840000000  0.4569330000000 1.0
C      1  0.4591870000000  0.5097450000000  0.5575240000000 1.0
C      1  0.4534640000000  0.4961850000000  0.5135620000000 1.0
C      1  0.4313390000000  0.5180900000000  0.5130070000000 1.0
C      1  0.5125160000000  0.4939680000000  0.5304940000000 1.0
C      1  0.5683090000000  0.5504320000000  0.5095280000000 1.0
C      1  0.5182440000000  0.5142700000000  0.5572490000000 1.0
C      1  0.5235320000000  0.5377700000000  0.4908360000000 1.0
C      1  0.4798380000000  0.4639610000000  0.4743280000000 1.0
C      1  0.4991470000000  0.5587140000000  0.4795960000000 1.0
C      1  0.5338460000000  0.4738170000000  0.4647830000000 1.0
C      1  0.4982490000000  0.5297020000000  0.5413030000000 1.0
C      1  0.4837330000000  0.5343520000000  0.4906460000000 1.0
C      1  0.4877420000000  0.4738680000000  0.5379130000000 1.0
C      1  0.5108050000000  0.4332960000000  0.4439810000000 1.0
C      1  0.4448120000000  0.5015420000000  0.4686800000000 1.0
C      1  0.5528680000000  0.5327950000000  0.4954710000000 1.0
C      1  0.4868270000000  0.4725480000000  0.5064770000000 1.0
C      1  0.4790260000000  0.5006860000000  0.4915350000000 1.0
C      1  0.5293160000000  0.4737680000000  0.5140060000000 1.0
C      1  0.5181180000000  0.4480460000000  0.5109080000000 1.0
C      1  0.5612910000000  0.5072590000000  0.4866210000000 1.0
C      1  0.5306770000000  0.5136050000000  0.5809340000000 1.0
C      1  0.5054720000000  0.5219770000000  0.5125400000000 1.0
C      1  0.5441240000000  0.4823790000000  0.4923790000000 1.0
C      1  0.4533030000000  0.4780210000000  0.4647720000000 1.0
C      1  0.4963760000000  0.5070060000000  0.4644500000000 1.0
C      1  0.5153060000000  0.5264570000000  0.4627020000000 1.0
C      1  0.5370610000000  0.5202360000000  0.4457150000000 1.0
END
