TITL C-2848502-4955-292 0.00246904951010056 125000 -594.215810402144 0 0 111 (C1) n - 1
REM
REM in /home/bkarasulu/work/CARBON/AIRSS/Generating-Clusters/AIREBO/with-SteepDescent/Only-C1/SD-CG-opt/Try1-1.4A-POS3A/HFTN-CG
REM
REM
REM
REM
REM
REM ./C.cell (11c1c37f851c82e70ff6c80c92926a4b)
REM
REM compiler GCC version 9.2.1 20190827 (Red Hat 9.2.1-1)
REM options -cpp -mtune=generic -march=x86-64 -g -O0 -fpre-include=/usr/include/finclude/math-vector-fortran.h
REM seed 1651698453 1977872307 1647798143 -2136412846 635792049 -1087623314 -45800212 -724425107 648656317 277494220 -1237069542 -1506110283 -528671749 896437767 1920067414 -1512350623 -292916655 -2021075127 1345311936 -1468565276 1897266361 1264722744 1103111646 1401120693 1220671708 154011314 -40793733 -1735290632 -1173510915 1756403295 1791045471 730500759 1772343291
REM
CELL 1.54180   50.00000   50.00000   50.00000   90.00000   90.00000   90.00000
LATT -1
SFAC C  
C      1  0.5308710000000  0.5245650000000  0.4734920000000 1.0
C      1  0.5697680000000  0.4519670000000  0.4711610000000 1.0
C      1  0.5894870000000  0.5104530000000  0.5031800000000 1.0
C      1  0.4524190000000  0.5638600000000  0.4975300000000 1.0
C      1  0.5824810000000  0.5854730000000  0.5354260000000 1.0
C      1  0.5928170000000  0.5388020000000  0.5159160000000 1.0
C      1  0.4589310000000  0.5577160000000  0.4452090000000 1.0
C      1  0.4260540000000  0.5664590000000  0.5181260000000 1.0
C      1  0.4439790000000  0.5103260000000  0.4629480000000 1.0
C      1  0.5285240000000  0.4256100000000  0.5291750000000 1.0
C      1  0.4859440000000  0.5147130000000  0.4999760000000 1.0
C      1  0.5231420000000  0.5646980000000  0.4571850000000 1.0
C      1  0.4187360000000  0.4918770000000  0.4374060000000 1.0
C      1  0.5198760000000  0.4617970000000  0.4939400000000 1.0
C      1  0.4897520000000  0.5668340000000  0.5525380000000 1.0
C      1  0.5230490000000  0.5599580000000  0.5529170000000 1.0
C      1  0.5238660000000  0.5005800000000  0.4090760000000 1.0
C      1  0.5550340000000  0.5223020000000  0.5237980000000 1.0
C      1  0.5231930000000  0.4591200000000  0.5269820000000 1.0
C      1  0.4784730000000  0.4163790000000  0.4334500000000 1.0
C      1  0.5588410000000  0.4902070000000  0.4682690000000 1.0
C      1  0.5333840000000  0.5091750000000  0.5592360000000 1.0
C      1  0.4532170000000  0.5422270000000  0.5342380000000 1.0
C      1  0.5336300000000  0.5856010000000  0.4894170000000 1.0
C      1  0.4596780000000  0.4647490000000  0.5153000000000 1.0
C      1  0.4412680000000  0.4901330000000  0.5197240000000 1.0
C      1  0.4489230000000  0.4786440000000  0.4599130000000 1.0
C      1  0.4403060000000  0.5659740000000  0.4689890000000 1.0
C      1  0.4578900000000  0.5309160000000  0.5049650000000 1.0
C      1  0.5061120000000  0.4754870000000  0.4236680000000 1.0
C      1  0.4629290000000  0.3993380000000  0.5057610000000 1.0
C      1  0.4773730000000  0.5809980000000  0.5009860000000 1.0
C      1  0.5755460000000  0.4775430000000  0.5517250000000 1.0
C      1  0.5474790000000  0.4946290000000  0.5832890000000 1.0
C      1  0.5103300000000  0.5491380000000  0.4385170000000 1.0
C      1  0.5893260000000  0.4776430000000  0.4599740000000 1.0
C      1  0.4869330000000  0.4605970000000  0.4714830000000 1.0
C      1  0.4840470000000  0.5550600000000  0.4679860000000 1.0
C      1  0.4092870000000  0.4764090000000  0.4597030000000 1.0
C      1  0.4322620000000  0.4962100000000  0.5492860000000 1.0
C      1  0.4327080000000  0.4672050000000  0.5644280000000 1.0
C      1  0.4556860000000  0.4539350000000  0.4831540000000 1.0
C      1  0.5122860000000  0.4094580000000  0.5087820000000 1.0
C      1  0.4517250000000  0.4901440000000  0.4293000000000 1.0
C      1  0.5032100000000  0.4855680000000  0.5211600000000 1.0
C      1  0.5410500000000  0.5525550000000  0.5292550000000 1.0
C      1  0.5741840000000  0.4886600000000  0.5778240000000 1.0
C      1  0.5664720000000  0.4566080000000  0.5038810000000 1.0
C      1  0.4016320000000  0.4936680000000  0.5237620000000 1.0
C      1  0.4214140000000  0.4568270000000  0.4918180000000 1.0
C      1  0.5338660000000  0.4975560000000  0.5271770000000 1.0
C      1  0.5031410000000  0.4946960000000  0.5524030000000 1.0
C      1  0.4990210000000  0.5774030000000  0.5227050000000 1.0
C      1  0.4691210000000  0.5476260000000  0.5552810000000 1.0
C      1  0.4796650000000  0.4421830000000  0.5310790000000 1.0
C      1  0.4772770000000  0.4336710000000  0.5699960000000 1.0
C      1  0.4857750000000  0.4100490000000  0.5217470000000 1.0
C      1  0.4696270000000  0.5149460000000  0.4168710000000 1.0
C      1  0.5585470000000  0.5274510000000  0.4539260000000 1.0
C      1  0.4711320000000  0.5260960000000  0.4656870000000 1.0
C      1  0.5199610000000  0.5609080000000  0.5075530000000 1.0
C      1  0.5536350000000  0.5358940000000  0.4954190000000 1.0
C      1  0.4238770000000  0.5437090000000  0.5390640000000 1.0
C      1  0.5150940000000  0.4597300000000  0.4524270000000 1.0
C      1  0.4542910000000  0.5049610000000  0.5725510000000 1.0
C      1  0.5579640000000  0.4395140000000  0.5260300000000 1.0
C      1  0.5247870000000  0.4947600000000  0.4869850000000 1.0
C      1  0.5168800000000  0.4177850000000  0.4811680000000 1.0
C      1  0.4743210000000  0.4850340000000  0.5782950000000 1.0
C      1  0.5232600000000  0.5374060000000  0.5722610000000 1.0
C      1  0.4984730000000  0.5174200000000  0.5764820000000 1.0
C      1  0.5899110000000  0.4786890000000  0.4929500000000 1.0
C      1  0.4820340000000  0.4689820000000  0.5518700000000 1.0
C      1  0.5382620000000  0.4408720000000  0.4790170000000 1.0
C      1  0.4922620000000  0.4428510000000  0.4999030000000 1.0
C      1  0.5457380000000  0.4456610000000  0.4480090000000 1.0
C      1  0.5758100000000  0.4962590000000  0.5306400000000 1.0
C      1  0.4091590000000  0.4862130000000  0.4923760000000 1.0
C      1  0.4708900000000  0.5281270000000  0.5738710000000 1.0
C      1  0.4306530000000  0.4499670000000  0.4604680000000 1.0
C      1  0.4321280000000  0.5111970000000  0.4946320000000 1.0
C      1  0.5124060000000  0.5921620000000  0.5505050000000 1.0
C      1  0.5012230000000  0.4884210000000  0.5918000000000 1.0
C      1  0.5586280000000  0.4542830000000  0.5503420000000 1.0
C      1  0.5278090000000  0.4570560000000  0.5607530000000 1.0
C      1  0.5482400000000  0.5175990000000  0.4230460000000 1.0
C      1  0.4094640000000  0.5350360000000  0.4860110000000 1.0
C      1  0.5608170000000  0.5675820000000  0.4905980000000 1.0
C      1  0.4936970000000  0.4445870000000  0.4322210000000 1.0
C      1  0.4931430000000  0.5047740000000  0.4682470000000 1.0
C      1  0.4649510000000  0.4235890000000  0.4905790000000 1.0
C      1  0.5497130000000  0.5579480000000  0.4623960000000 1.0
C      1  0.4926410000000  0.4283220000000  0.4620690000000 1.0
C      1  0.5252730000000  0.4756830000000  0.5846720000000 1.0
C      1  0.5147580000000  0.5160120000000  0.4447830000000 1.0
C      1  0.4829370000000  0.4873100000000  0.4425000000000 1.0
C      1  0.4812400000000  0.4810920000000  0.4980260000000 1.0
C      1  0.5450540000000  0.4674830000000  0.4275410000000 1.0
C      1  0.5018740000000  0.5809850000000  0.4781340000000 1.0
C      1  0.5051030000000  0.4343070000000  0.5522520000000 1.0
C      1  0.4870910000000  0.5591790000000  0.4283780000000 1.0
C      1  0.5515960000000  0.4848850000000  0.5010750000000 1.0
C      1  0.4554120000000  0.4525810000000  0.5649020000000 1.0
C      1  0.4132590000000  0.5187210000000  0.5322200000000 1.0
C      1  0.4967800000000  0.5135950000000  0.4160120000000 1.0
C      1  0.5716650000000  0.5614190000000  0.5202850000000 1.0
C      1  0.5061260000000  0.5396960000000  0.4887870000000 1.0
C      1  0.5401180000000  0.4933340000000  0.4445130000000 1.0
C      1  0.4482050000000  0.5293740000000  0.4348480000000 1.0
C      1  0.4148590000000  0.5558610000000  0.4688630000000 1.0
C      1  0.5838330000000  0.5107140000000  0.4695800000000 1.0
END
