TITL C-2847948-6138-25 -0.00093277298575596 125000 -943.313181633817 0 0 170 (C1) n - 1
REM
REM in /home/bkarasulu/work/CARBON/AIRSS/Generating-Clusters/AIREBO/with-SteepDescent/Only-C1/SD-CG-opt/Try1-1.4A-POS3A/HFTN-CG
REM
REM
REM
REM
REM
REM ./C.cell (11c1c37f851c82e70ff6c80c92926a4b)
REM
REM compiler GCC version 9.2.1 20190827 (Red Hat 9.2.1-1)
REM options -cpp -mtune=generic -march=x86-64 -g -O0 -fpre-include=/usr/include/finclude/math-vector-fortran.h
REM seed 614381673 -549526082 -809862295 -168419178 -1671415684 143650328 168612413 1825541932 597760703 1732164167 -1804128356 1388424096 739694661 8191633 1800629038 -725388386 -1183466970 -688820554 -256422483 1880016731 -1109497901 -129845185 -976960053 680645382 -1843476485 743363552 1085265975 1047311907 -1056021456 -1141183339 -1823369002 -744386477 -215770191
REM
CELL 1.54180   50.00000   50.00000   50.00000   90.00000   90.00000   90.00000
LATT -1
SFAC C  
C      1  0.5405640000000  0.4941980000000  0.5731460000000 1.0
C      1  0.5811360000000  0.4492260000000  0.5007680000000 1.0
C      1  0.6036540000000  0.4615450000000  0.4784290000000 1.0
C      1  0.5260810000000  0.4889910000000  0.4043840000000 1.0
C      1  0.4060390000000  0.5120460000000  0.4624800000000 1.0
C      1  0.5267870000000  0.4766440000000  0.5988010000000 1.0
C      1  0.3885100000000  0.4255640000000  0.5030660000000 1.0
C      1  0.4784250000000  0.4619980000000  0.4343500000000 1.0
C      1  0.5285680000000  0.4631880000000  0.4155100000000 1.0
C      1  0.4140810000000  0.5212790000000  0.4924810000000 1.0
C      1  0.5863960000000  0.5315840000000  0.5373050000000 1.0
C      1  0.5512430000000  0.5366710000000  0.4166550000000 1.0
C      1  0.4197220000000  0.4004780000000  0.5269830000000 1.0
C      1  0.5605680000000  0.5617390000000  0.4567930000000 1.0
C      1  0.3983170000000  0.4812820000000  0.4547770000000 1.0
C      1  0.5337010000000  0.5540330000000  0.4718380000000 1.0
C      1  0.4618610000000  0.3909440000000  0.4491270000000 1.0
C      1  0.4694580000000  0.5306340000000  0.5455540000000 1.0
C      1  0.5859060000000  0.4729220000000  0.5612960000000 1.0
C      1  0.4888410000000  0.4855760000000  0.5054810000000 1.0
C      1  0.5393280000000  0.5456910000000  0.5018700000000 1.0
C      1  0.5030280000000  0.4326260000000  0.5526930000000 1.0
C      1  0.4631850000000  0.4419670000000  0.5006810000000 1.0
C      1  0.5273720000000  0.5296740000000  0.5502740000000 1.0
C      1  0.4805510000000  0.5364650000000  0.5167670000000 1.0
C      1  0.4655040000000  0.5472940000000  0.4672320000000 1.0
C      1  0.5249580000000  0.4256200000000  0.4801270000000 1.0
C      1  0.4827540000000  0.4344780000000  0.4627540000000 1.0
C      1  0.5820920000000  0.5140790000000  0.4484050000000 1.0
C      1  0.4421070000000  0.5158060000000  0.5569060000000 1.0
C      1  0.4841560000000  0.5954160000000  0.5259400000000 1.0
C      1  0.4751770000000  0.3896930000000  0.5105430000000 1.0
C      1  0.4830640000000  0.5658380000000  0.4883880000000 1.0
C      1  0.4291470000000  0.4298250000000  0.4711000000000 1.0
C      1  0.5246810000000  0.5247510000000  0.4641530000000 1.0
C      1  0.5546680000000  0.4280880000000  0.5418730000000 1.0
C      1  0.4117730000000  0.4790550000000  0.4841880000000 1.0
C      1  0.4518760000000  0.5348320000000  0.5811620000000 1.0
C      1  0.5082360000000  0.5450850000000  0.4423450000000 1.0
C      1  0.4867730000000  0.4604370000000  0.4846010000000 1.0
C      1  0.4410330000000  0.4147550000000  0.5463120000000 1.0
C      1  0.4037630000000  0.5287310000000  0.5460110000000 1.0
C      1  0.4121290000000  0.4350730000000  0.4978650000000 1.0
C      1  0.5611710000000  0.4934840000000  0.4901400000000 1.0
C      1  0.5961980000000  0.5527400000000  0.5177630000000 1.0
C      1  0.4809220000000  0.4086710000000  0.4416120000000 1.0
C      1  0.4688760000000  0.5664320000000  0.5174380000000 1.0
C      1  0.5588570000000  0.5197300000000  0.5020930000000 1.0
C      1  0.4333460000000  0.4972880000000  0.4228760000000 1.0
C      1  0.5203910000000  0.5776830000000  0.5646710000000 1.0
C      1  0.4417550000000  0.4016130000000  0.4705940000000 1.0
C      1  0.4997790000000  0.3832100000000  0.4798810000000 1.0
C      1  0.5959940000000  0.4607290000000  0.4512600000000 1.0
C      1  0.4253270000000  0.5510500000000  0.4401270000000 1.0
C      1  0.4828600000000  0.4381990000000  0.5284170000000 1.0
C      1  0.5004680000000  0.3881350000000  0.5293460000000 1.0
C      1  0.4992400000000  0.4011650000000  0.5535390000000 1.0
C      1  0.5121360000000  0.5056810000000  0.5888470000000 1.0
C      1  0.5034700000000  0.5133500000000  0.4322160000000 1.0
C      1  0.4810290000000  0.5882070000000  0.4645220000000 1.0
C      1  0.5661030000000  0.5466560000000  0.5799610000000 1.0
C      1  0.4783930000000  0.5357770000000  0.4108320000000 1.0
C      1  0.4852800000000  0.4966670000000  0.4521870000000 1.0
C      1  0.4934680000000  0.5479370000000  0.5980290000000 1.0
C      1  0.4179310000000  0.5245450000000  0.4361230000000 1.0
C      1  0.3998090000000  0.4958180000000  0.5084370000000 1.0
C      1  0.4656070000000  0.5623130000000  0.5694540000000 1.0
C      1  0.5083370000000  0.4661630000000  0.5545500000000 1.0
C      1  0.5113430000000  0.5731900000000  0.4612100000000 1.0
C      1  0.5692460000000  0.5423990000000  0.4381900000000 1.0
C      1  0.4418520000000  0.6086320000000  0.4980280000000 1.0
C      1  0.4936320000000  0.5963580000000  0.5550340000000 1.0
C      1  0.5536080000000  0.4183120000000  0.4545470000000 1.0
C      1  0.4565140000000  0.4398620000000  0.4418040000000 1.0
C      1  0.5281490000000  0.5516260000000  0.4158970000000 1.0
C      1  0.5704860000000  0.4430350000000  0.4489140000000 1.0
C      1  0.4354830000000  0.5960480000000  0.4728440000000 1.0
C      1  0.5268010000000  0.3823720000000  0.4890730000000 1.0
C      1  0.5062010000000  0.5775310000000  0.5086900000000 1.0
C      1  0.4281610000000  0.4473260000000  0.4419640000000 1.0
C      1  0.5360380000000  0.5495040000000  0.5755130000000 1.0
C      1  0.5416230000000  0.4820650000000  0.4573350000000 1.0
C      1  0.5097530000000  0.4801050000000  0.4690570000000 1.0
C      1  0.5379530000000  0.4489110000000  0.5012230000000 1.0
C      1  0.5542690000000  0.5207170000000  0.5345190000000 1.0
C      1  0.5343450000000  0.4379280000000  0.5649990000000 1.0
C      1  0.5484100000000  0.4605490000000  0.4368490000000 1.0
C      1  0.5557330000000  0.5860790000000  0.4799710000000 1.0
C      1  0.4971500000000  0.5184540000000  0.5611060000000 1.0
C      1  0.4236720000000  0.5511440000000  0.4962530000000 1.0
C      1  0.5307610000000  0.4995490000000  0.5220250000000 1.0
C      1  0.4696050000000  0.4784440000000  0.5955020000000 1.0
C      1  0.4983350000000  0.4982210000000  0.4071500000000 1.0
C      1  0.4509670000000  0.4418640000000  0.5385170000000 1.0
C      1  0.5941710000000  0.4888950000000  0.4906270000000 1.0
C      1  0.5876280000000  0.4647100000000  0.5278740000000 1.0
C      1  0.6011100000000  0.5132000000000  0.4735220000000 1.0
C      1  0.5640910000000  0.4638120000000  0.4751860000000 1.0
C      1  0.5306070000000  0.6060310000000  0.5223840000000 1.0
C      1  0.4466540000000  0.5697190000000  0.4321020000000 1.0
C      1  0.4779430000000  0.4782030000000  0.4085720000000 1.0
C      1  0.4767570000000  0.5569690000000  0.4373750000000 1.0
C      1  0.4240790000000  0.5080700000000  0.5288550000000 1.0
C      1  0.4598470000000  0.4753270000000  0.4596670000000 1.0
C      1  0.4447680000000  0.5542060000000  0.5470340000000 1.0
C      1  0.4689400000000  0.4866850000000  0.5276950000000 1.0
C      1  0.4977370000000  0.5522920000000  0.5645640000000 1.0
C      1  0.5207460000000  0.5358800000000  0.5982210000000 1.0
C      1  0.4398720000000  0.4599010000000  0.4836200000000 1.0
C      1  0.5010970000000  0.5606590000000  0.4062020000000 1.0
C      1  0.5484140000000  0.5094960000000  0.4470800000000 1.0
C      1  0.4929510000000  0.5846180000000  0.4247560000000 1.0
C      1  0.4528340000000  0.4849240000000  0.4000120000000 1.0
C      1  0.5247220000000  0.3920970000000  0.5163680000000 1.0
C      1  0.5592850000000  0.4609940000000  0.5443670000000 1.0
C      1  0.4163290000000  0.5472560000000  0.5581470000000 1.0
C      1  0.5124260000000  0.6120950000000  0.4703480000000 1.0
C      1  0.5468110000000  0.4495110000000  0.5944370000000 1.0
C      1  0.4159710000000  0.4713850000000  0.4346970000000 1.0
C      1  0.4859000000000  0.4119690000000  0.4871810000000 1.0
C      1  0.4506280000000  0.3910690000000  0.5271860000000 1.0
C      1  0.4821560000000  0.5017910000000  0.6023300000000 1.0
C      1  0.5114680000000  0.6007610000000  0.4420450000000 1.0
C      1  0.5021650000000  0.4356440000000  0.5020530000000 1.0
C      1  0.4880310000000  0.4579990000000  0.5805720000000 1.0
C      1  0.5960120000000  0.4853280000000  0.4386200000000 1.0
C      1  0.4523170000000  0.5190390000000  0.4556360000000 1.0
C      1  0.5673590000000  0.4232460000000  0.5094970000000 1.0
C      1  0.4358160000000  0.4969940000000  0.4693400000000 1.0
C      1  0.5517090000000  0.4052090000000  0.4847710000000 1.0
C      1  0.4418380000000  0.4724230000000  0.5851900000000 1.0
C      1  0.4621690000000  0.4624270000000  0.5597930000000 1.0
C      1  0.4351640000000  0.5621300000000  0.4703790000000 1.0
C      1  0.4850820000000  0.6155590000000  0.4807230000000 1.0
C      1  0.5341930000000  0.4794720000000  0.5465990000000 1.0
C      1  0.4281310000000  0.5958700000000  0.5194360000000 1.0
C      1  0.5130890000000  0.5272480000000  0.5131670000000 1.0
C      1  0.5377810000000  0.5857620000000  0.5392230000000 1.0
C      1  0.4696290000000  0.6141450000000  0.5036800000000 1.0
C      1  0.4304750000000  0.4866140000000  0.5619280000000 1.0
C      1  0.5090090000000  0.4583560000000  0.4429060000000 1.0
C      1  0.5761600000000  0.5410110000000  0.4871960000000 1.0
C      1  0.5700850000000  0.4994660000000  0.5731150000000 1.0
C      1  0.5062280000000  0.4094930000000  0.4306320000000 1.0
C      1  0.5227310000000  0.4294230000000  0.4477030000000 1.0
C      1  0.5781430000000  0.5258900000000  0.5673720000000 1.0
C      1  0.5282960000000  0.5965950000000  0.4911440000000 1.0
C      1  0.5117110000000  0.5546330000000  0.5333030000000 1.0
C      1  0.6068900000000  0.5085980000000  0.5393320000000 1.0
C      1  0.4398590000000  0.4795170000000  0.5314100000000 1.0
C      1  0.4372060000000  0.5662930000000  0.5194690000000 1.0
C      1  0.4447470000000  0.5179410000000  0.5035350000000 1.0
C      1  0.6038430000000  0.4899230000000  0.5190940000000 1.0
C      1  0.6088080000000  0.4959220000000  0.5640490000000 1.0
C      1  0.4722720000000  0.5228450000000  0.4898600000000 1.0
C      1  0.5312100000000  0.4782850000000  0.4954230000000 1.0
C      1  0.5136850000000  0.4457140000000  0.5911560000000 1.0
C      1  0.6077980000000  0.5374620000000  0.4898540000000 1.0
C      1  0.5033620000000  0.5093250000000  0.4859490000000 1.0
C      1  0.5446510000000  0.5077710000000  0.4143160000000 1.0
C      1  0.5717450000000  0.5690720000000  0.5004390000000 1.0
C      1  0.4296600000000  0.4554650000000  0.5157630000000 1.0
C      1  0.4657740000000  0.3787120000000  0.4797570000000 1.0
C      1  0.5524810000000  0.5663160000000  0.5255290000000 1.0
C      1  0.4722830000000  0.5923230000000  0.5729610000000 1.0
C      1  0.4717480000000  0.5286420000000  0.6012340000000 1.0
C      1  0.4546360000000  0.5908460000000  0.4507270000000 1.0
C      1  0.4643380000000  0.5099910000000  0.4288440000000 1.0
C      1  0.4843200000000  0.4877120000000  0.5541590000000 1.0
C      1  0.5353740000000  0.4195340000000  0.5181650000000 1.0
END
