TITL C-2847944-5688-141 129.966619177137 125000 -972.871476095102 0 0 179 (C1) n - 1
REM
REM in /home/bkarasulu/work/CARBON/AIRSS/Generating-Clusters/AIREBO/with-SteepDescent/Only-C1/SD-CG-opt/Try1-1.4A-POS3A/HFTN-CG
REM
REM
REM
REM
REM
REM ./C.cell (11c1c37f851c82e70ff6c80c92926a4b)
REM
REM compiler GCC version 9.2.1 20190827 (Red Hat 9.2.1-1)
REM options -cpp -mtune=generic -march=x86-64 -g -O0 -fpre-include=/usr/include/finclude/math-vector-fortran.h
REM seed 207611014 1168741598 -2082308604 -997606214 1154044198 56685267 1396922521 1735105425 -768333129 -279418233 1361643131 -1559217138 -712285822 316628044 -368205678 -701805749 400514457 -834432839 1216273862 985988638 2042147575 -1283498248 -1411901487 1600896323 375771678 -1930561736 1987972847 1777812775 -886964794 -2133228558 -133767294 -1178922321 388638996
REM
CELL 1.54180   50.00000   50.00000   50.00000   90.00000   90.00000   90.00000
LATT -1
SFAC C  
C      1  0.4919270000000  0.6078740000000  0.5171260000000 1.0
C      1  0.5505620000000  0.4568030000000  0.5793830000000 1.0
C      1  0.4575670000000  0.4275200000000  0.4059290000000 1.0
C      1  0.4339180000000  0.5293380000000  0.5780230000000 1.0
C      1  0.5731470000000  0.5871950000000  0.5318170000000 1.0
C      1  0.6132300000000  0.4489790000000  0.4991830000000 1.0
C      1  0.5665760000000  0.5272660000000  0.5000550000000 1.0
C      1  0.5435210000000  0.5704080000000  0.4544830000000 1.0
C      1  0.5565620000000  0.5372140000000  0.5919450000000 1.0
C      1  0.5572480000000  0.4602950000000  0.4534100000000 1.0
C      1  0.4794090000000  0.4696110000000  0.5475410000000 1.0
C      1  0.4667370000000  0.5749040000000  0.4544280000000 1.0
C      1  0.5101970000000  0.4659730000000  0.5512980000000 1.0
C      1  0.5200000000000  0.5123740000000  0.4261280000000 1.0
C      1  0.4588050000000  0.5604900000000  0.5051370000000 1.0
C      1  0.5837120000000  0.4844940000000  0.5084430000000 1.0
C      1  0.5607600000000  0.4968780000000  0.4866170000000 1.0
C      1  0.4368740000000  0.5504710000000  0.5564260000000 1.0
C      1  0.4853960000000  0.5195810000000  0.5383550000000 1.0
C      1  0.4836760000000  0.5278300000000  0.3985610000000 1.0
C      1  0.4622370000000  0.5126540000000  0.5867800000000 1.0
C      1  0.5067330000000  0.4429160000000  0.4386950000000 1.0
C      1  0.4087630000000  0.5825280000000  0.5290080000000 1.0
C      1  0.4656970000000  0.5407220000000  0.4340780000000 1.0
C      1  0.5981100000000  0.5146180000000  0.4984570000000 1.0
C      1  0.5452720000000  0.3954790000000  0.4834210000000 1.0
C      1  0.3923610000000  0.5378890000000  0.4792360000000 1.0
C      1  0.5812500000000  0.5350370000000  0.5363450000000 1.0
C      1  0.4926790000000  0.3988810000000  0.5656390000000 1.0
C      1  0.5589360000000  0.6209000000000  0.4601980000000 1.0
C      1  0.4509540000000  0.5124140000000  0.5169430000000 1.0
C      1  0.4731110000000  0.4994830000000  0.4773380000000 1.0
C      1  0.5733910000000  0.4223710000000  0.5246870000000 1.0
C      1  0.4916280000000  0.5590480000000  0.5782510000000 1.0
C      1  0.4875180000000  0.5477000000000  0.4922500000000 1.0
C      1  0.5252230000000  0.4611640000000  0.5966870000000 1.0
C      1  0.4878670000000  0.4341200000000  0.5244410000000 1.0
C      1  0.5448210000000  0.5379670000000  0.4438460000000 1.0
C      1  0.4260520000000  0.4800980000000  0.4906280000000 1.0
C      1  0.4822180000000  0.5584960000000  0.5297430000000 1.0
C      1  0.3703560000000  0.4971660000000  0.5371310000000 1.0
C      1  0.5336970000000  0.5001860000000  0.5249080000000 1.0
C      1  0.5932450000000  0.5219880000000  0.4425980000000 1.0
C      1  0.5673950000000  0.4114510000000  0.4431480000000 1.0
C      1  0.4001600000000  0.5199780000000  0.4588720000000 1.0
C      1  0.5638930000000  0.4341390000000  0.4682310000000 1.0
C      1  0.5713830000000  0.5052580000000  0.4225410000000 1.0
C      1  0.5122450000000  0.5710320000000  0.4917620000000 1.0
C      1  0.5745190000000  0.5417910000000  0.4517870000000 1.0
C      1  0.6076830000000  0.5249850000000  0.5293950000000 1.0
C      1  0.3884920000000  0.5153660000000  0.5466770000000 1.0
C      1  0.5116630000000  0.5047440000000  0.5003460000000 1.0
C      1  0.4214540000000  0.5083390000000  0.4179490000000 1.0
C      1  0.4821770000000  0.5177390000000  0.5045520000000 1.0
C      1  0.4031190000000  0.4459470000000  0.5313420000000 1.0
C      1  0.5433890000000  0.5764640000000  0.4959380000000 1.0
C      1  0.5357870000000  0.5318620000000  0.5702730000000 1.0
C      1  0.3974340000000  0.5355440000000  0.5298710000000 1.0
C      1  0.4099320000000  0.4323390000000  0.4077800000000 1.0
C      1  0.5791820000000  0.4768760000000  0.4122910000000 1.0
C      1  0.4990730000000  0.5525760000000  0.6108060000000 1.0
C      1  0.4927730000000  0.5586400000000  0.4442060000000 1.0
C      1  0.5771160000000  0.4851420000000  0.5419240000000 1.0
C      1  0.4914490000000  0.4711670000000  0.4498370000000 1.0
C      1  0.4885880000000  0.5169200000000  0.4292930000000 1.0
C      1  0.5008970000000  0.4379450000000  0.5914340000000 1.0
C      1  0.4624460000000  0.4693480000000  0.4535240000000 1.0
C      1  0.4847850000000  0.4250210000000  0.5732230000000 1.0
C      1  0.4345100000000  0.4335130000000  0.4201990000000 1.0
C      1  0.5856240000000  0.4760400000000  0.4635600000000 1.0
C      1  0.4739890000000  0.4155830000000  0.4897180000000 1.0
C      1  0.5976890000000  0.5673580000000  0.4896640000000 1.0
C      1  0.5130280000000  0.5049120000000  0.5873980000000 1.0
C      1  0.4692570000000  0.4964890000000  0.6158720000000 1.0
C      1  0.5404920000000  0.4004390000000  0.4562640000000 1.0
C      1  0.5581120000000  0.4181700000000  0.5480900000000 1.0
C      1  0.3818390000000  0.4753080000000  0.5146410000000 1.0
C      1  0.4098150000000  0.5568720000000  0.5417080000000 1.0
C      1  0.5308950000000  0.5104950000000  0.4582830000000 1.0
C      1  0.5328500000000  0.4917700000000  0.6097360000000 1.0
C      1  0.5309750000000  0.4759860000000  0.4572630000000 1.0
C      1  0.4731420000000  0.4987230000000  0.5580060000000 1.0
C      1  0.4574640000000  0.5383300000000  0.5382260000000 1.0
C      1  0.4398620000000  0.5294230000000  0.4148950000000 1.0
C      1  0.5786860000000  0.6053050000000  0.5795200000000 1.0
C      1  0.4228710000000  0.4730680000000  0.4575070000000 1.0
C      1  0.5243550000000  0.5302140000000  0.4852020000000 1.0
C      1  0.5627140000000  0.5109140000000  0.5296180000000 1.0
C      1  0.4852200000000  0.4192340000000  0.4618420000000 1.0
C      1  0.6051210000000  0.4866620000000  0.5557110000000 1.0
C      1  0.4987460000000  0.4762660000000  0.5816200000000 1.0
C      1  0.5699510000000  0.5864770000000  0.5618580000000 1.0
C      1  0.4004540000000  0.4508090000000  0.4996660000000 1.0
C      1  0.5140330000000  0.4807670000000  0.4281720000000 1.0
C      1  0.6029030000000  0.4507980000000  0.4717370000000 1.0
C      1  0.4395580000000  0.5347220000000  0.4939380000000 1.0
C      1  0.5304100000000  0.4149150000000  0.5420970000000 1.0
C      1  0.4475400000000  0.5793790000000  0.5603300000000 1.0
C      1  0.5038440000000  0.5557390000000  0.5510000000000 1.0
C      1  0.4843300000000  0.4425140000000  0.4135890000000 1.0
C      1  0.5820780000000  0.4507240000000  0.5080390000000 1.0
C      1  0.4324060000000  0.5248820000000  0.4544160000000 1.0
C      1  0.5073970000000  0.4426190000000  0.4726960000000 1.0
C      1  0.4172470000000  0.5553270000000  0.4523100000000 1.0
C      1  0.4370420000000  0.5945540000000  0.5380910000000 1.0
C      1  0.5575070000000  0.5934230000000  0.4717540000000 1.0
C      1  0.5945000000000  0.4245610000000  0.4592070000000 1.0
C      1  0.4314500000000  0.4242110000000  0.5134180000000 1.0
C      1  0.6146760000000  0.5434740000000  0.4914090000000 1.0
C      1  0.4689610000000  0.4836950000000  0.5208640000000 1.0
C      1  0.4729240000000  0.5644500000000  0.4101470000000 1.0
C      1  0.4360730000000  0.4452640000000  0.5397240000000 1.0
C      1  0.4649670000000  0.3865520000000  0.5011910000000 1.0
C      1  0.4683970000000  0.4395240000000  0.5489260000000 1.0
C      1  0.5134880000000  0.5250650000000  0.5487700000000 1.0
C      1  0.5206420000000  0.4319470000000  0.4974570000000 1.0
C      1  0.5400840000000  0.5471980000000  0.5076180000000 1.0
C      1  0.5627010000000  0.4324610000000  0.5722560000000 1.0
C      1  0.4710350000000  0.4747070000000  0.5957790000000 1.0
C      1  0.4042400000000  0.4765600000000  0.5401220000000 1.0
C      1  0.4536790000000  0.5469530000000  0.4654320000000 1.0
C      1  0.4442170000000  0.4705020000000  0.5872190000000 1.0
C      1  0.4873700000000  0.4621260000000  0.5060410000000 1.0
C      1  0.5479840000000  0.5719440000000  0.4235980000000 1.0
C      1  0.5600820000000  0.6443860000000  0.4502920000000 1.0
C      1  0.4077880000000  0.5262180000000  0.5029900000000 1.0
C      1  0.4590290000000  0.4072320000000  0.3874970000000 1.0
C      1  0.4120160000000  0.5070540000000  0.5646180000000 1.0
C      1  0.4975550000000  0.5026200000000  0.4573140000000 1.0
C      1  0.5546120000000  0.5187470000000  0.6114600000000 1.0
C      1  0.4894350000000  0.4805860000000  0.4046760000000 1.0
C      1  0.5668960000000  0.4554790000000  0.4234930000000 1.0
C      1  0.5078240000000  0.3979860000000  0.5418570000000 1.0
C      1  0.5538710000000  0.4247940000000  0.4966270000000 1.0
C      1  0.4038570000000  0.4957590000000  0.5025680000000 1.0
C      1  0.5036510000000  0.5501920000000  0.4131180000000 1.0
C      1  0.4930170000000  0.5821800000000  0.5126240000000 1.0
C      1  0.4070010000000  0.4976080000000  0.4401110000000 1.0
C      1  0.4417910000000  0.5847820000000  0.5076040000000 1.0
C      1  0.4599950000000  0.5806890000000  0.3952190000000 1.0
C      1  0.5494660000000  0.4528620000000  0.5153150000000 1.0
C      1  0.5403260000000  0.4774470000000  0.5019140000000 1.0
C      1  0.5147740000000  0.5549420000000  0.4639020000000 1.0
C      1  0.5260940000000  0.4947450000000  0.5576000000000 1.0
C      1  0.5628380000000  0.4995190000000  0.4542540000000 1.0
C      1  0.3949430000000  0.4568820000000  0.4681950000000 1.0
C      1  0.5348130000000  0.5463830000000  0.4124510000000 1.0
C      1  0.4457770000000  0.4982130000000  0.4568220000000 1.0
C      1  0.4617050000000  0.4424220000000  0.4955610000000 1.0
C      1  0.5656110000000  0.4288380000000  0.4172310000000 1.0
C      1  0.4121360000000  0.5813720000000  0.4971360000000 1.0
C      1  0.4262330000000  0.4993960000000  0.5363360000000 1.0
C      1  0.5111150000000  0.4741740000000  0.4848180000000 1.0
C      1  0.4552730000000  0.4713240000000  0.4844350000000 1.0
C      1  0.4295510000000  0.4407280000000  0.4845860000000 1.0
C      1  0.5551750000000  0.4978000000000  0.6346620000000 1.0
C      1  0.4903910000000  0.4025420000000  0.5167270000000 1.0
C      1  0.5506230000000  0.5624560000000  0.5695590000000 1.0
C      1  0.6005170000000  0.5047440000000  0.4659470000000 1.0
C      1  0.4901420000000  0.5278990000000  0.5918160000000 1.0
C      1  0.5282290000000  0.4858540000000  0.3976820000000 1.0
C      1  0.4020000000000  0.5662460000000  0.4758750000000 1.0
C      1  0.4578120000000  0.5298210000000  0.3916200000000 1.0
C      1  0.4318140000000  0.4520220000000  0.5720760000000 1.0
C      1  0.4673110000000  0.4381450000000  0.4430870000000 1.0
C      1  0.5350900000000  0.5572030000000  0.5397440000000 1.0
C      1  0.5455680000000  0.5141660000000  0.4068480000000 1.0
C      1  0.5162010000000  0.4119700000000  0.4491520000000 1.0
C      1  0.4301520000000  0.4972820000000  0.5895770000000 1.0
C      1  0.5678970000000  0.5579590000000  0.5340620000000 1.0
C      1  0.6206050000000  0.5076690000000  0.5470900000000 1.0
C      1  0.5548830000000  0.4792820000000  0.5630870000000 1.0
C      1  0.4343880000000  0.4417350000000  0.4509470000000 1.0
C      1  0.5774910000000  0.5488130000000  0.4778980000000 1.0
C      1  0.5754950000000  0.5872680000000  0.4999490000000 1.0
C      1  0.4690720000000  0.5804630000000  0.5765380000000 1.0
C      1  0.5202450000000  0.4430760000000  0.5296940000000 1.0
C      1  0.4390450000000  0.4735610000000  0.5208030000000 1.0
C      1  0.5104570000000  0.4566110000000  0.3969170000000 1.0
END
