TITL C-2848507-1641-536 0.000238984418141574 125000 -188.22810761958 0 0 34 (C1) n - 1
REM
REM in /home/bkarasulu/work/CARBON/AIRSS/Generating-Clusters/AIREBO/with-SteepDescent/Only-C1/SD-CG-opt/Try1-1.4A-POS3A/HFTN-CG
REM
REM
REM
REM
REM
REM ./C.cell (11c1c37f851c82e70ff6c80c92926a4b)
REM
REM compiler GCC version 9.2.1 20190827 (Red Hat 9.2.1-1)
REM options -cpp -mtune=generic -march=x86-64 -g -O0 -fpre-include=/usr/include/finclude/math-vector-fortran.h
REM seed -1638747707 -664582702 -937036156 2069050643 2057461270 1667196861 1258382690 1357749915 -982669056 121552818 1014725516 -1716263087 1818251931 -1255792022 -433324985 1052291119 1912404292 126649598 -1768090154 -1017374566 -844519558 -708875506 -122171390 -1966067610 1100741267 -354465226 -478246426 -1952594714 71361381 1854503982 1538102922 -1615151812 999084164
REM
CELL 1.54180   50.00000   50.00000   50.00000   90.00000   90.00000   90.00000
LATT -1
SFAC C  
C      1  0.4736910000000  0.4996480000000  0.5489090000000 1.0
C      1  0.5186050000000  0.4319220000000  0.4938750000000 1.0
C      1  0.5402300000000  0.4720460000000  0.5409590000000 1.0
C      1  0.5127520000000  0.4803250000000  0.5528910000000 1.0
C      1  0.5258380000000  0.4490770000000  0.5166220000000 1.0
C      1  0.4765930000000  0.5268700000000  0.5554310000000 1.0
C      1  0.4926830000000  0.5579600000000  0.5193040000000 1.0
C      1  0.5094420000000  0.4517450000000  0.4724850000000 1.0
C      1  0.4729560000000  0.5466900000000  0.4724550000000 1.0
C      1  0.5236370000000  0.4755930000000  0.4659720000000 1.0
C      1  0.4414480000000  0.4666260000000  0.5320130000000 1.0
C      1  0.4530330000000  0.5347100000000  0.5149660000000 1.0
C      1  0.5184000000000  0.5480460000000  0.5007550000000 1.0
C      1  0.5324370000000  0.5151210000000  0.4406020000000 1.0
C      1  0.4789360000000  0.5317510000000  0.4482890000000 1.0
C      1  0.5426910000000  0.4762760000000  0.5099430000000 1.0
C      1  0.4648310000000  0.4807840000000  0.5303520000000 1.0
C      1  0.5432160000000  0.5598640000000  0.5040250000000 1.0
C      1  0.4893140000000  0.5057500000000  0.4557910000000 1.0
C      1  0.4729600000000  0.4285310000000  0.4928810000000 1.0
C      1  0.5181740000000  0.5177590000000  0.4906730000000 1.0
C      1  0.5335730000000  0.5331710000000  0.4669060000000 1.0
C      1  0.4966010000000  0.4133320000000  0.4981860000000 1.0
C      1  0.5568680000000  0.5362470000000  0.4446610000000 1.0
C      1  0.5135900000000  0.4944160000000  0.4464830000000 1.0
C      1  0.4831060000000  0.5358260000000  0.5799300000000 1.0
C      1  0.4818000000000  0.4548810000000  0.4845070000000 1.0
C      1  0.5028690000000  0.4691200000000  0.5274560000000 1.0
C      1  0.5330410000000  0.4902770000000  0.4888550000000 1.0
C      1  0.4912220000000  0.5629170000000  0.4871720000000 1.0
C      1  0.4824000000000  0.4784120000000  0.5040880000000 1.0
C      1  0.4632850000000  0.5258910000000  0.4904980000000 1.0
C      1  0.4868770000000  0.5044770000000  0.4890450000000 1.0
C      1  0.4728990000000  0.5439380000000  0.5330210000000 1.0
END
