TITL C-2847947-6848-562 0.000685392068150919 125000 -888.205677490914 0 0 162 (C1) n - 1
REM
REM in /home/bkarasulu/work/CARBON/AIRSS/Generating-Clusters/AIREBO/with-SteepDescent/Only-C1/SD-CG-opt/Try1-1.4A-POS3A/HFTN-CG
REM
REM
REM
REM
REM
REM ./C.cell (11c1c37f851c82e70ff6c80c92926a4b)
REM
REM compiler GCC version 9.2.1 20190827 (Red Hat 9.2.1-1)
REM options -cpp -mtune=generic -march=x86-64 -g -O0 -fpre-include=/usr/include/finclude/math-vector-fortran.h
REM seed 312173315 535524085 2031065927 -2048438561 1327141539 -1262984098 1449933049 -1858362489 1942971627 -495431731 2034557814 -728731992 1936934855 108661496 -1075784448 1470163951 -1445013926 -1789517152 1483850243 1504585635 -418374779 1581182089 -1040925553 25279313 814237272 1870267881 -826284185 -922834258 979134080 -1182255196 1946690644 -1349821330 -314891532
REM
CELL 1.54180   50.00000   50.00000   50.00000   90.00000   90.00000   90.00000
LATT -1
SFAC C  
C      1  0.6026870000000  0.4748930000000  0.5119600000000 1.0
C      1  0.4925420000000  0.4502220000000  0.5650660000000 1.0
C      1  0.5489210000000  0.5399510000000  0.5231300000000 1.0
C      1  0.5195490000000  0.5210220000000  0.5550710000000 1.0
C      1  0.4227020000000  0.5474140000000  0.4531090000000 1.0
C      1  0.5621700000000  0.4893930000000  0.5330990000000 1.0
C      1  0.4181950000000  0.5653800000000  0.5293950000000 1.0
C      1  0.4604370000000  0.4138550000000  0.4550950000000 1.0
C      1  0.4881080000000  0.4695940000000  0.4658640000000 1.0
C      1  0.4812180000000  0.4909990000000  0.5066120000000 1.0
C      1  0.4871990000000  0.4155250000000  0.4927040000000 1.0
C      1  0.5148700000000  0.5681210000000  0.4735110000000 1.0
C      1  0.4781830000000  0.5881910000000  0.4642000000000 1.0
C      1  0.5019630000000  0.4994700000000  0.4567910000000 1.0
C      1  0.4908470000000  0.5645910000000  0.5441930000000 1.0
C      1  0.4622940000000  0.5106560000000  0.5357820000000 1.0
C      1  0.4913740000000  0.5389840000000  0.5915660000000 1.0
C      1  0.5356060000000  0.4108810000000  0.4997400000000 1.0
C      1  0.4330010000000  0.5027270000000  0.4236970000000 1.0
C      1  0.5604430000000  0.4531080000000  0.4251090000000 1.0
C      1  0.5422110000000  0.5297540000000  0.4755750000000 1.0
C      1  0.5626740000000  0.4522350000000  0.4574200000000 1.0
C      1  0.4678200000000  0.5601740000000  0.5195360000000 1.0
C      1  0.4828430000000  0.5056450000000  0.5584690000000 1.0
C      1  0.5208980000000  0.4088080000000  0.4690600000000 1.0
C      1  0.4435350000000  0.4174420000000  0.5212470000000 1.0
C      1  0.4360790000000  0.4567900000000  0.4354340000000 1.0
C      1  0.5029390000000  0.5023020000000  0.5242130000000 1.0
C      1  0.4020440000000  0.5357070000000  0.5333360000000 1.0
C      1  0.4803210000000  0.4365280000000  0.4674510000000 1.0
C      1  0.4032490000000  0.4883050000000  0.4595280000000 1.0
C      1  0.4802890000000  0.5210650000000  0.4419500000000 1.0
C      1  0.5773320000000  0.4911180000000  0.5698950000000 1.0
C      1  0.5121980000000  0.5532810000000  0.4368390000000 1.0
C      1  0.5871260000000  0.4677300000000  0.5393650000000 1.0
C      1  0.4970050000000  0.4727950000000  0.5400320000000 1.0
C      1  0.4944540000000  0.5241970000000  0.6215580000000 1.0
C      1  0.5958090000000  0.5214000000000  0.4459090000000 1.0
C      1  0.5436200000000  0.5621790000000  0.4463460000000 1.0
C      1  0.4991030000000  0.5299300000000  0.4930780000000 1.0
C      1  0.4076980000000  0.5130750000000  0.5140500000000 1.0
C      1  0.5487940000000  0.3828110000000  0.4350430000000 1.0
C      1  0.4599260000000  0.4788450000000  0.4753740000000 1.0
C      1  0.4976120000000  0.5873300000000  0.4906590000000 1.0
C      1  0.5143240000000  0.4720330000000  0.3998860000000 1.0
C      1  0.4457300000000  0.5071270000000  0.4699610000000 1.0
C      1  0.5118510000000  0.6171550000000  0.4986430000000 1.0
C      1  0.4999770000000  0.4022530000000  0.5359740000000 1.0
C      1  0.5606380000000  0.5072880000000  0.4578990000000 1.0
C      1  0.4540590000000  0.6053860000000  0.5151650000000 1.0
C      1  0.4742280000000  0.4275450000000  0.5191130000000 1.0
C      1  0.5552020000000  0.5058070000000  0.5734710000000 1.0
C      1  0.6023320000000  0.5290730000000  0.5459190000000 1.0
C      1  0.5377760000000  0.5959220000000  0.5028400000000 1.0
C      1  0.4890580000000  0.3976870000000  0.4646880000000 1.0
C      1  0.5149320000000  0.4531860000000  0.4243680000000 1.0
C      1  0.5126150000000  0.4902230000000  0.5642320000000 1.0
C      1  0.4401940000000  0.4787270000000  0.5614290000000 1.0
C      1  0.5310450000000  0.4552370000000  0.4519290000000 1.0
C      1  0.5302360000000  0.6132520000000  0.4395920000000 1.0
C      1  0.5952050000000  0.5430340000000  0.5686390000000 1.0
C      1  0.5632620000000  0.4802400000000  0.4149800000000 1.0
C      1  0.4187080000000  0.5617580000000  0.4836890000000 1.0
C      1  0.5644040000000  0.5543190000000  0.5694710000000 1.0
C      1  0.5164980000000  0.5702380000000  0.5658600000000 1.0
C      1  0.4783810000000  0.5096800000000  0.3880680000000 1.0
C      1  0.4737620000000  0.4578960000000  0.5088100000000 1.0
C      1  0.5333940000000  0.5040150000000  0.5290600000000 1.0
C      1  0.4634190000000  0.5513030000000  0.4759900000000 1.0
C      1  0.4542300000000  0.4963410000000  0.4060460000000 1.0
C      1  0.5995400000000  0.5036530000000  0.5019680000000 1.0
C      1  0.5042970000000  0.4590420000000  0.4938620000000 1.0
C      1  0.5438790000000  0.5620200000000  0.4862980000000 1.0
C      1  0.5218340000000  0.5477080000000  0.5071650000000 1.0
C      1  0.5503740000000  0.5296540000000  0.5544660000000 1.0
C      1  0.4289500000000  0.4940820000000  0.4954880000000 1.0
C      1  0.5924290000000  0.5012340000000  0.5431400000000 1.0
C      1  0.5990360000000  0.5460570000000  0.5210780000000 1.0
C      1  0.5328650000000  0.5522730000000  0.5820760000000 1.0
C      1  0.6089420000000  0.4650830000000  0.4651170000000 1.0
C      1  0.4650370000000  0.5220640000000  0.6043670000000 1.0
C      1  0.5684300000000  0.4471150000000  0.4893010000000 1.0
C      1  0.4061650000000  0.4710030000000  0.4860630000000 1.0
C      1  0.4810500000000  0.4249100000000  0.5525620000000 1.0
C      1  0.4848660000000  0.5310030000000  0.5234330000000 1.0
C      1  0.4496910000000  0.5886930000000  0.4757290000000 1.0
C      1  0.4859300000000  0.4787540000000  0.3868060000000 1.0
C      1  0.4798940000000  0.6097860000000  0.5090420000000 1.0
C      1  0.4324950000000  0.5278460000000  0.5824850000000 1.0
C      1  0.4043820000000  0.5301980000000  0.5639910000000 1.0
C      1  0.5369820000000  0.4069150000000  0.4411230000000 1.0
C      1  0.5349770000000  0.4361290000000  0.5436440000000 1.0
C      1  0.4846080000000  0.3758890000000  0.4890740000000 1.0
C      1  0.5308100000000  0.5945670000000  0.5584660000000 1.0
C      1  0.4504740000000  0.5493850000000  0.4191760000000 1.0
C      1  0.5739820000000  0.5552960000000  0.5359670000000 1.0
C      1  0.5424010000000  0.4682120000000  0.5792140000000 1.0
C      1  0.4821000000000  0.4594030000000  0.6025150000000 1.0
C      1  0.4493560000000  0.4887530000000  0.5157060000000 1.0
C      1  0.4769290000000  0.4778880000000  0.5772130000000 1.0
C      1  0.5784750000000  0.4791080000000  0.4645380000000 1.0
C      1  0.4259520000000  0.5475830000000  0.6325820000000 1.0
C      1  0.4924520000000  0.5447100000000  0.4631860000000 1.0
C      1  0.5234560000000  0.4133240000000  0.5258960000000 1.0
C      1  0.4468790000000  0.5649960000000  0.4557560000000 1.0
C      1  0.5386400000000  0.5963920000000  0.5323680000000 1.0
C      1  0.4130570000000  0.5295090000000  0.4872160000000 1.0
C      1  0.5718830000000  0.4917450000000  0.4929210000000 1.0
C      1  0.5900720000000  0.5392140000000  0.4684390000000 1.0
C      1  0.4655650000000  0.4608520000000  0.3915500000000 1.0
C      1  0.4208520000000  0.4812050000000  0.4379030000000 1.0
C      1  0.4859030000000  0.3897340000000  0.5148420000000 1.0
C      1  0.5286770000000  0.4803200000000  0.4879760000000 1.0
C      1  0.5524540000000  0.5139700000000  0.5031910000000 1.0
C      1  0.4378210000000  0.4376960000000  0.4590160000000 1.0
C      1  0.5627110000000  0.4202370000000  0.5013730000000 1.0
C      1  0.4484010000000  0.4259750000000  0.5493450000000 1.0
C      1  0.4385590000000  0.5390660000000  0.6120710000000 1.0
C      1  0.5304650000000  0.4984690000000  0.5893530000000 1.0
C      1  0.4117740000000  0.4915690000000  0.5478160000000 1.0
C      1  0.4464330000000  0.5375410000000  0.5307150000000 1.0
C      1  0.4772930000000  0.5566110000000  0.4177010000000 1.0
C      1  0.5508810000000  0.4695740000000  0.5078840000000 1.0
C      1  0.5782320000000  0.4998780000000  0.4303760000000 1.0
C      1  0.4778040000000  0.4922670000000  0.4240270000000 1.0
C      1  0.5094250000000  0.5730570000000  0.5191680000000 1.0
C      1  0.5425020000000  0.4896180000000  0.3985230000000 1.0
C      1  0.5392490000000  0.4844470000000  0.4594240000000 1.0
C      1  0.5174460000000  0.5077790000000  0.4833240000000 1.0
C      1  0.4866930000000  0.4630840000000  0.4334200000000 1.0
C      1  0.4688140000000  0.5146730000000  0.4906580000000 1.0
C      1  0.4516500000000  0.4998230000000  0.5823190000000 1.0
C      1  0.5649020000000  0.4348290000000  0.5470120000000 1.0
C      1  0.5265930000000  0.5883580000000  0.4491430000000 1.0
C      1  0.5232160000000  0.5247150000000  0.4478230000000 1.0
C      1  0.4480560000000  0.4529980000000  0.4869090000000 1.0
C      1  0.4097840000000  0.4598590000000  0.5436720000000 1.0
C      1  0.6001320000000  0.5316260000000  0.4960730000000 1.0
C      1  0.5735520000000  0.4587970000000  0.5692600000000 1.0
C      1  0.5214800000000  0.5261670000000  0.6008130000000 1.0
C      1  0.5193360000000  0.4388080000000  0.4742080000000 1.0
C      1  0.4290440000000  0.4289490000000  0.5016320000000 1.0
C      1  0.5685350000000  0.5571680000000  0.4635470000000 1.0
C      1  0.4322510000000  0.4461970000000  0.5576460000000 1.0
C      1  0.4320010000000  0.5486800000000  0.5556230000000 1.0
C      1  0.5234640000000  0.4513980000000  0.5677890000000 1.0
C      1  0.5980860000000  0.4567780000000  0.4912300000000 1.0
C      1  0.5752390000000  0.4187130000000  0.5274320000000 1.0
C      1  0.4405590000000  0.5756170000000  0.5057780000000 1.0
C      1  0.4465420000000  0.5253800000000  0.4429400000000 1.0
C      1  0.4871430000000  0.5761560000000  0.4393400000000 1.0
C      1  0.4938110000000  0.5376580000000  0.5617800000000 1.0
C      1  0.4928610000000  0.5295020000000  0.4114880000000 1.0
C      1  0.5131030000000  0.5056780000000  0.3994140000000 1.0
C      1  0.3994630000000  0.4803180000000  0.5181830000000 1.0
C      1  0.4447600000000  0.5355210000000  0.4980210000000 1.0
C      1  0.4110040000000  0.4418240000000  0.4795610000000 1.0
C      1  0.3955300000000  0.5144340000000  0.4651140000000 1.0
C      1  0.5390320000000  0.4291250000000  0.4231500000000 1.0
C      1  0.4630530000000  0.4709570000000  0.5392910000000 1.0
C      1  0.5220020000000  0.4571940000000  0.5228400000000 1.0
C      1  0.4589390000000  0.4568110000000  0.4190990000000 1.0
END
