TITL C-2848496-4490-601 699.556832655004 125000 -641.993433162284 0 0 123 (C1) n - 1
REM
REM in /home/bkarasulu/work/CARBON/AIRSS/Generating-Clusters/AIREBO/with-SteepDescent/Only-C1/SD-CG-opt/Try1-1.4A-POS3A/HFTN-CG
REM
REM
REM
REM
REM
REM ./C.cell (11c1c37f851c82e70ff6c80c92926a4b)
REM
REM compiler GCC version 9.2.1 20190827 (Red Hat 9.2.1-1)
REM options -cpp -mtune=generic -march=x86-64 -g -O0 -fpre-include=/usr/include/finclude/math-vector-fortran.h
REM seed 1530541782 -1733768210 -1521124474 -115284068 -613712208 1058256812 1998454229 1495937582 -271884168 -909847468 -1546376003 -927106273 -756573003 -265502422 -1411737876 2086007536 1234462995 -1397538765 -566490846 -1593421395 2063785297 -240025903 162054221 1804378558 1664325155 1640630838 1605266540 -1885086636 86163586 610203983 2084045245 766015926 456863712
REM
CELL 1.54180   50.00000   50.00000   50.00000   90.00000   90.00000   90.00000
LATT -1
SFAC C  
C      1  0.4923880000000  0.5170000000000  0.4594360000000 1.0
C      1  0.4100450000000  0.5249960000000  0.5278330000000 1.0
C      1  0.5031620000000  0.4328960000000  0.5826960000000 1.0
C      1  0.4599590000000  0.4042380000000  0.4450240000000 1.0
C      1  0.4205730000000  0.5647640000000  0.5524190000000 1.0
C      1  0.4733800000000  0.4779060000000  0.4620930000000 1.0
C      1  0.4751060000000  0.5508770000000  0.5379060000000 1.0
C      1  0.5093310000000  0.4705060000000  0.4848390000000 1.0
C      1  0.4949910000000  0.5667750000000  0.4986820000000 1.0
C      1  0.5087470000000  0.4607870000000  0.5364870000000 1.0
C      1  0.4711760000000  0.3961350000000  0.4921180000000 1.0
C      1  0.5606700000000  0.5249630000000  0.5434610000000 1.0
C      1  0.5151420000000  0.5422730000000  0.4627220000000 1.0
C      1  0.4221830000000  0.5137940000000  0.4824150000000 1.0
C      1  0.4916730000000  0.5968210000000  0.5142460000000 1.0
C      1  0.4437340000000  0.5474620000000  0.4375720000000 1.0
C      1  0.5334500000000  0.4825360000000  0.5278930000000 1.0
C      1  0.5524870000000  0.4913270000000  0.5011200000000 1.0
C      1  0.4786930000000  0.4863280000000  0.5181290000000 1.0
C      1  0.4296060000000  0.5590170000000  0.4949470000000 1.0
C      1  0.4941600000000  0.4791950000000  0.5618970000000 1.0
C      1  0.5866560000000  0.5246300000000  0.4734870000000 1.0
C      1  0.4247320000000  0.4955670000000  0.5199700000000 1.0
C      1  0.4557440000000  0.5274250000000  0.5463190000000 1.0
C      1  0.4369490000000  0.4374930000000  0.4220140000000 1.0
C      1  0.5121460000000  0.5026840000000  0.5451380000000 1.0
C      1  0.5755610000000  0.5394580000000  0.5212400000000 1.0
C      1  0.4944050000000  0.5689580000000  0.4588160000000 1.0
C      1  0.5162540000000  0.4927930000000  0.4602380000000 1.0
C      1  0.5328470000000  0.5134260000000  0.4905830000000 1.0
C      1  0.5550200000000  0.4862630000000  0.4036440000000 1.0
C      1  0.5175510000000  0.5238460000000  0.4134510000000 1.0
C      1  0.4734810000000  0.4237720000000  0.4773960000000 1.0
C      1  0.4693200000000  0.5763680000000  0.4687180000000 1.0
C      1  0.5441610000000  0.5527080000000  0.5201420000000 1.0
C      1  0.4741960000000  0.4953360000000  0.4876110000000 1.0
C      1  0.4938520000000  0.5214370000000  0.4931320000000 1.0
C      1  0.5566070000000  0.5948990000000  0.5386600000000 1.0
C      1  0.5704760000000  0.5935750000000  0.5167660000000 1.0
C      1  0.4587290000000  0.5756390000000  0.5213080000000 1.0
C      1  0.5636030000000  0.4185420000000  0.4955350000000 1.0
C      1  0.4310990000000  0.4990890000000  0.5806420000000 1.0
C      1  0.5095600000000  0.4942310000000  0.5062560000000 1.0
C      1  0.4635840000000  0.5180450000000  0.4118430000000 1.0
C      1  0.5292110000000  0.5183680000000  0.4444380000000 1.0
C      1  0.5326240000000  0.4510230000000  0.4379360000000 1.0
C      1  0.4390250000000  0.5112360000000  0.4337270000000 1.0
C      1  0.5172220000000  0.5796920000000  0.4761400000000 1.0
C      1  0.5244920000000  0.3984510000000  0.4831470000000 1.0
C      1  0.5073540000000  0.4260880000000  0.4792770000000 1.0
C      1  0.5930900000000  0.5232640000000  0.5054000000000 1.0
C      1  0.5412350000000  0.5794060000000  0.4642340000000 1.0
C      1  0.4250130000000  0.5373570000000  0.5483510000000 1.0
C      1  0.5560580000000  0.4777240000000  0.5528530000000 1.0
C      1  0.5320540000000  0.5232100000000  0.5319540000000 1.0
C      1  0.4884190000000  0.4802880000000  0.4344860000000 1.0
C      1  0.5205950000000  0.4493490000000  0.5651070000000 1.0
C      1  0.5493860000000  0.5127190000000  0.4179660000000 1.0
C      1  0.4973450000000  0.4976790000000  0.5902570000000 1.0
C      1  0.5431090000000  0.4504290000000  0.5204170000000 1.0
C      1  0.5502240000000  0.5629170000000  0.5831360000000 1.0
C      1  0.4811090000000  0.4491860000000  0.5711430000000 1.0
C      1  0.5665600000000  0.5055780000000  0.5606630000000 1.0
C      1  0.4280160000000  0.4703170000000  0.5617600000000 1.0
C      1  0.4786470000000  0.5228770000000  0.5826350000000 1.0
C      1  0.4601920000000  0.5018670000000  0.3884970000000 1.0
C      1  0.4816240000000  0.4559090000000  0.4850090000000 1.0
C      1  0.4479450000000  0.5192820000000  0.5174490000000 1.0
C      1  0.5379690000000  0.5437520000000  0.4879200000000 1.0
C      1  0.4563500000000  0.4457430000000  0.5057770000000 1.0
C      1  0.4456630000000  0.4787480000000  0.4558800000000 1.0
C      1  0.4672700000000  0.4227010000000  0.5283160000000 1.0
C      1  0.5810810000000  0.4957650000000  0.4909970000000 1.0
C      1  0.5126190000000  0.4070870000000  0.5139210000000 1.0
C      1  0.5445990000000  0.4181460000000  0.5194740000000 1.0
C      1  0.4533460000000  0.4838580000000  0.5342190000000 1.0
C      1  0.5521200000000  0.3983530000000  0.4782780000000 1.0
C      1  0.5916790000000  0.5238920000000  0.4430570000000 1.0
C      1  0.4318680000000  0.5832150000000  0.5355380000000 1.0
C      1  0.4667440000000  0.5946990000000  0.4942850000000 1.0
C      1  0.4141540000000  0.5355560000000  0.5003910000000 1.0
C      1  0.4523760000000  0.4759280000000  0.5824850000000 1.0
C      1  0.4926590000000  0.5238630000000  0.5270320000000 1.0
C      1  0.5382020000000  0.4756750000000  0.6007820000000 1.0
C      1  0.4446950000000  0.5237200000000  0.5845500000000 1.0
C      1  0.5418190000000  0.4613650000000  0.4892790000000 1.0
C      1  0.4556890000000  0.4326300000000  0.4429340000000 1.0
C      1  0.5076310000000  0.4347610000000  0.4480520000000 1.0
C      1  0.4823730000000  0.4016160000000  0.5171990000000 1.0
C      1  0.5397430000000  0.4713500000000  0.4585420000000 1.0
C      1  0.5902470000000  0.4656010000000  0.4851290000000 1.0
C      1  0.5221260000000  0.5536300000000  0.5729860000000 1.0
C      1  0.4458930000000  0.4432770000000  0.4734390000000 1.0
C      1  0.5664910000000  0.5499820000000  0.4738290000000 1.0
C      1  0.4806800000000  0.5718310000000  0.5721480000000 1.0
C      1  0.5155100000000  0.4895340000000  0.6080400000000 1.0
C      1  0.4908130000000  0.5114990000000  0.4259090000000 1.0
C      1  0.4640430000000  0.4361780000000  0.5543400000000 1.0
C      1  0.5707450000000  0.4457930000000  0.4863080000000 1.0
C      1  0.4617580000000  0.5473150000000  0.4045250000000 1.0
C      1  0.4159980000000  0.4859560000000  0.4911290000000 1.0
C      1  0.4546790000000  0.5231360000000  0.4860070000000 1.0
C      1  0.4838660000000  0.5835970000000  0.5427820000000 1.0
C      1  0.4953180000000  0.5494910000000  0.5782010000000 1.0
C      1  0.5698880000000  0.5329640000000  0.4284540000000 1.0
C      1  0.4437260000000  0.4537040000000  0.5365910000000 1.0
C      1  0.5778040000000  0.4613290000000  0.5446900000000 1.0
C      1  0.4191470000000  0.4638190000000  0.4690570000000 1.0
C      1  0.5125570000000  0.4397450000000  0.5100060000000 1.0
C      1  0.5351350000000  0.5500310000000  0.4186130000000 1.0
C      1  0.4191600000000  0.4882190000000  0.4445890000000 1.0
C      1  0.5655850000000  0.3833530000000  0.4606670000000 1.0
C      1  0.4663020000000  0.4990260000000  0.5617610000000 1.0
C      1  0.5557190000000  0.5584440000000  0.4433010000000 1.0
C      1  0.5668580000000  0.5693820000000  0.5010380000000 1.0
C      1  0.5100920000000  0.4646270000000  0.4163070000000 1.0
C      1  0.5406100000000  0.4651460000000  0.5750080000000 1.0
C      1  0.5410860000000  0.4639110000000  0.4087010000000 1.0
C      1  0.4825830000000  0.4470150000000  0.4384500000000 1.0
C      1  0.4605140000000  0.5268200000000  0.4549780000000 1.0
C      1  0.5427480000000  0.5684030000000  0.5503260000000 1.0
C      1  0.5105670000000  0.5488920000000  0.5165280000000 1.0
C      1  0.4633680000000  0.5549280000000  0.4944270000000 1.0
END
