TITL C-2847951-7423-518 -0.0011634356907859 125000 -611.386396631119 0 0 111 (C1) n - 1
REM
REM in /home/bkarasulu/work/CARBON/AIRSS/Generating-Clusters/AIREBO/with-SteepDescent/Only-C1/SD-CG-opt/Try1-1.4A-POS3A/HFTN-CG
REM
REM
REM
REM
REM
REM ./C.cell (11c1c37f851c82e70ff6c80c92926a4b)
REM
REM compiler GCC version 9.2.1 20190827 (Red Hat 9.2.1-1)
REM options -cpp -mtune=generic -march=x86-64 -g -O0 -fpre-include=/usr/include/finclude/math-vector-fortran.h
REM seed 661702387 -942907693 -570915970 -1665642972 158571820 -211240698 -598806701 1176787184 -146679734 -1588343855 -141855940 -1795305147 2085399472 -287291357 -820156674 -1597462059 1700277935 -1705728834 -1046866506 -1753485201 -2084528973 1200085360 1017363793 1092458163 -901142384 2093985203 -1871421012 595164030 1919382721 -891976509 1193182362 2101438174 1084274780
REM
CELL 1.54180   50.00000   50.00000   50.00000   90.00000   90.00000   90.00000
LATT -1
SFAC C  
C      1  0.5183860000000  0.5436540000000  0.4951740000000 1.0
C      1  0.4945120000000  0.5649100000000  0.4430370000000 1.0
C      1  0.5194810000000  0.5837180000000  0.4414430000000 1.0
C      1  0.4336050000000  0.4802110000000  0.5327710000000 1.0
C      1  0.5573880000000  0.5666500000000  0.5014880000000 1.0
C      1  0.4358620000000  0.5303020000000  0.4750350000000 1.0
C      1  0.5303010000000  0.5563340000000  0.4244280000000 1.0
C      1  0.4977460000000  0.5199230000000  0.5782580000000 1.0
C      1  0.4671560000000  0.5673950000000  0.4485470000000 1.0
C      1  0.4359290000000  0.4483000000000  0.5213280000000 1.0
C      1  0.4351940000000  0.5396440000000  0.5482120000000 1.0
C      1  0.5689740000000  0.4590440000000  0.4697400000000 1.0
C      1  0.5280920000000  0.4587150000000  0.4841050000000 1.0
C      1  0.5240620000000  0.4574220000000  0.4214630000000 1.0
C      1  0.4693280000000  0.4713460000000  0.5566650000000 1.0
C      1  0.5768380000000  0.5803080000000  0.4907710000000 1.0
C      1  0.5275890000000  0.5730930000000  0.4999140000000 1.0
C      1  0.4718220000000  0.4609280000000  0.5248000000000 1.0
C      1  0.5175660000000  0.5705690000000  0.5586630000000 1.0
C      1  0.5081790000000  0.4769800000000  0.5275500000000 1.0
C      1  0.5004890000000  0.4487870000000  0.5111300000000 1.0
C      1  0.5012160000000  0.5932940000000  0.5034350000000 1.0
C      1  0.5319920000000  0.5393280000000  0.4645500000000 1.0
C      1  0.5224060000000  0.4170240000000  0.4514260000000 1.0
C      1  0.5381020000000  0.4677670000000  0.5704930000000 1.0
C      1  0.4051530000000  0.4971140000000  0.4872950000000 1.0
C      1  0.5789860000000  0.4632850000000  0.5353160000000 1.0
C      1  0.4918680000000  0.5143590000000  0.4403120000000 1.0
C      1  0.5314490000000  0.5250260000000  0.5163560000000 1.0
C      1  0.5544160000000  0.5365080000000  0.4391330000000 1.0
C      1  0.4606160000000  0.4684780000000  0.4701560000000 1.0
C      1  0.5594800000000  0.5438540000000  0.5581350000000 1.0
C      1  0.4187180000000  0.4881510000000  0.4233320000000 1.0
C      1  0.5707290000000  0.4381920000000  0.5203830000000 1.0
C      1  0.5692320000000  0.4728260000000  0.5597690000000 1.0
C      1  0.5392890000000  0.5228640000000  0.5677750000000 1.0
C      1  0.5600290000000  0.5385480000000  0.5106580000000 1.0
C      1  0.5462240000000  0.5693970000000  0.5596140000000 1.0
C      1  0.4656410000000  0.5222110000000  0.5884300000000 1.0
C      1  0.4373920000000  0.4503410000000  0.4878470000000 1.0
C      1  0.4552180000000  0.4562640000000  0.5789650000000 1.0
C      1  0.5742850000000  0.5161330000000  0.4435750000000 1.0
C      1  0.5048840000000  0.5526460000000  0.5748840000000 1.0
C      1  0.4697660000000  0.5943650000000  0.4965240000000 1.0
C      1  0.4931600000000  0.5086800000000  0.5464990000000 1.0
C      1  0.4738920000000  0.4098730000000  0.4785030000000 1.0
C      1  0.4692290000000  0.5828530000000  0.5248860000000 1.0
C      1  0.4662700000000  0.5358050000000  0.5571730000000 1.0
C      1  0.5234800000000  0.4126890000000  0.4851330000000 1.0
C      1  0.5170550000000  0.5291190000000  0.5444730000000 1.0
C      1  0.4623570000000  0.5177880000000  0.4459700000000 1.0
C      1  0.5090390000000  0.4408970000000  0.5661700000000 1.0
C      1  0.4878040000000  0.4124000000000  0.5375440000000 1.0
C      1  0.4338070000000  0.4922640000000  0.5006920000000 1.0
C      1  0.5611550000000  0.5112790000000  0.4935350000000 1.0
C      1  0.5008270000000  0.5771970000000  0.5334360000000 1.0
C      1  0.4839970000000  0.4374170000000  0.4297690000000 1.0
C      1  0.5449920000000  0.4961540000000  0.5547990000000 1.0
C      1  0.4676780000000  0.4371360000000  0.4655470000000 1.0
C      1  0.4531150000000  0.5010160000000  0.4740720000000 1.0
C      1  0.5399120000000  0.4556590000000  0.5387600000000 1.0
C      1  0.5077840000000  0.5395720000000  0.4049480000000 1.0
C      1  0.4615610000000  0.5783270000000  0.4756900000000 1.0
C      1  0.4464050000000  0.5018630000000  0.5909230000000 1.0
C      1  0.5038630000000  0.4775300000000  0.4226890000000 1.0
C      1  0.4524090000000  0.4218970000000  0.4988880000000 1.0
C      1  0.5605890000000  0.4871690000000  0.4524320000000 1.0
C      1  0.4131120000000  0.4676880000000  0.4771250000000 1.0
C      1  0.5074610000000  0.5039700000000  0.4674090000000 1.0
C      1  0.5729160000000  0.4875570000000  0.5122920000000 1.0
C      1  0.5327730000000  0.4960140000000  0.5273490000000 1.0
C      1  0.4816460000000  0.4680170000000  0.4444280000000 1.0
C      1  0.4526980000000  0.4424660000000  0.4351850000000 1.0
C      1  0.4987160000000  0.4008020000000  0.4705240000000 1.0
C      1  0.4514030000000  0.5125010000000  0.5177140000000 1.0
C      1  0.5109430000000  0.4318910000000  0.4260200000000 1.0
C      1  0.4528670000000  0.5433270000000  0.4411820000000 1.0
C      1  0.4797250000000  0.4937690000000  0.5194970000000 1.0
C      1  0.4950330000000  0.4511200000000  0.4801380000000 1.0
C      1  0.5462210000000  0.4610900000000  0.4382500000000 1.0
C      1  0.5749800000000  0.5339800000000  0.5365190000000 1.0
C      1  0.5085980000000  0.4745630000000  0.4622910000000 1.0
C      1  0.4636360000000  0.4297780000000  0.5283160000000 1.0
C      1  0.5002950000000  0.4697410000000  0.5584240000000 1.0
C      1  0.4281520000000  0.4866280000000  0.4559810000000 1.0
C      1  0.5263460000000  0.5163510000000  0.5975040000000 1.0
C      1  0.5190060000000  0.5934850000000  0.4742620000000 1.0
C      1  0.4374100000000  0.4643770000000  0.4319940000000 1.0
C      1  0.4831820000000  0.5076300000000  0.4886720000000 1.0
C      1  0.5299100000000  0.5223270000000  0.4247050000000 1.0
C      1  0.4511620000000  0.5622080000000  0.5312120000000 1.0
C      1  0.5435940000000  0.4391680000000  0.4629130000000 1.0
C      1  0.5895300000000  0.5103230000000  0.5313730000000 1.0
C      1  0.4091260000000  0.5239740000000  0.4769440000000 1.0
C      1  0.5116460000000  0.4220100000000  0.5468110000000 1.0
C      1  0.4342340000000  0.4881420000000  0.5658750000000 1.0
C      1  0.5217560000000  0.4265520000000  0.5085640000000 1.0
C      1  0.5786090000000  0.4583380000000  0.4957280000000 1.0
C      1  0.5425170000000  0.5716280000000  0.4630480000000 1.0
C      1  0.5433520000000  0.4709170000000  0.5096970000000 1.0
C      1  0.5045760000000  0.5398640000000  0.4500650000000 1.0
C      1  0.4876110000000  0.5379020000000  0.5015000000000 1.0
C      1  0.5048580000000  0.5062940000000  0.4112910000000 1.0
C      1  0.5425090000000  0.4238150000000  0.5326520000000 1.0
C      1  0.4247390000000  0.5126840000000  0.5376720000000 1.0
C      1  0.4894780000000  0.5463700000000  0.5344870000000 1.0
C      1  0.4491300000000  0.5414050000000  0.5109320000000 1.0
C      1  0.5411780000000  0.5073250000000  0.4706450000000 1.0
C      1  0.5141640000000  0.4901600000000  0.5795580000000 1.0
C      1  0.4622680000000  0.5021390000000  0.5543740000000 1.0
C      1  0.4609590000000  0.5489200000000  0.4834610000000 1.0
END
