TITL C-2847958-8115-93 0.00067954851813445 125000 -876.578658962725 0 0 162 (C1) n - 1
REM
REM in /home/bkarasulu/work/CARBON/AIRSS/Generating-Clusters/AIREBO/with-SteepDescent/Only-C1/SD-CG-opt/Try1-1.4A-POS3A/HFTN-CG
REM
REM
REM
REM
REM
REM ./C.cell (11c1c37f851c82e70ff6c80c92926a4b)
REM
REM compiler GCC version 9.2.1 20190827 (Red Hat 9.2.1-1)
REM options -cpp -mtune=generic -march=x86-64 -g -O0 -fpre-include=/usr/include/finclude/math-vector-fortran.h
REM seed 1064660082 689385149 311691219 1460864088 719803465 582112281 -450324267 956537520 -610286710 -791484398 -1346182362 -1780806036 2125750378 -1485812646 -1010091790 -1215020382 1892891306 -134567655 717102226 -1841797292 631966844 697643385 -36528458 1435130975 -1881898795 676931552 1374243684 722183889 1209987767 -1004150094 -2077784506 -2068222145 -1165300162
REM
CELL 1.54180   50.00000   50.00000   50.00000   90.00000   90.00000   90.00000
LATT -1
SFAC C  
C      1  0.5748930000000  0.5378220000000  0.5259260000000 1.0
C      1  0.5220760000000  0.5190000000000  0.4664310000000 1.0
C      1  0.4405110000000  0.5154570000000  0.4795140000000 1.0
C      1  0.4592110000000  0.3986950000000  0.5266520000000 1.0
C      1  0.4398740000000  0.4129610000000  0.4679140000000 1.0
C      1  0.5365640000000  0.4895690000000  0.4435430000000 1.0
C      1  0.4217340000000  0.4365390000000  0.5171740000000 1.0
C      1  0.4711450000000  0.5017150000000  0.4741170000000 1.0
C      1  0.4984110000000  0.5644550000000  0.5903900000000 1.0
C      1  0.4885790000000  0.3854160000000  0.5264750000000 1.0
C      1  0.5684740000000  0.5830870000000  0.4962850000000 1.0
C      1  0.5041590000000  0.4937500000000  0.4722790000000 1.0
C      1  0.5067880000000  0.4477990000000  0.4531690000000 1.0
C      1  0.4077710000000  0.4386910000000  0.4941000000000 1.0
C      1  0.5469570000000  0.5217480000000  0.4471260000000 1.0
C      1  0.5856830000000  0.4267510000000  0.5016450000000 1.0
C      1  0.5150960000000  0.4862090000000  0.5966440000000 1.0
C      1  0.5278760000000  0.5120860000000  0.6050460000000 1.0
C      1  0.4012840000000  0.4908220000000  0.5097170000000 1.0
C      1  0.5348540000000  0.4332690000000  0.5358440000000 1.0
C      1  0.4627920000000  0.5556830000000  0.4442780000000 1.0
C      1  0.4780390000000  0.5301460000000  0.4567880000000 1.0
C      1  0.4654100000000  0.5323090000000  0.5225800000000 1.0
C      1  0.5729900000000  0.4676820000000  0.4048940000000 1.0
C      1  0.4580620000000  0.4985980000000  0.4293320000000 1.0
C      1  0.4104910000000  0.5358870000000  0.4419990000000 1.0
C      1  0.5755910000000  0.4137380000000  0.4772120000000 1.0
C      1  0.5074090000000  0.4534100000000  0.4098750000000 1.0
C      1  0.6041950000000  0.4965630000000  0.5594730000000 1.0
C      1  0.3965420000000  0.5226200000000  0.4691220000000 1.0
C      1  0.5052470000000  0.5572130000000  0.4190560000000 1.0
C      1  0.4658430000000  0.4768500000000  0.3969440000000 1.0
C      1  0.4564700000000  0.4661380000000  0.5243970000000 1.0
C      1  0.4848730000000  0.4565560000000  0.4748160000000 1.0
C      1  0.4895960000000  0.6002740000000  0.4637920000000 1.0
C      1  0.5196250000000  0.5309370000000  0.5307800000000 1.0
C      1  0.5200490000000  0.5622000000000  0.5556270000000 1.0
C      1  0.5872340000000  0.4880920000000  0.4467760000000 1.0
C      1  0.5204130000000  0.4722160000000  0.3934690000000 1.0
C      1  0.5173790000000  0.5410990000000  0.5907540000000 1.0
C      1  0.5073280000000  0.3897380000000  0.5452820000000 1.0
C      1  0.4418100000000  0.4716970000000  0.4187580000000 1.0
C      1  0.5172630000000  0.6071590000000  0.4600610000000 1.0
C      1  0.5596430000000  0.4699960000000  0.4444110000000 1.0
C      1  0.4952780000000  0.5262740000000  0.5074930000000 1.0
C      1  0.4500840000000  0.4073160000000  0.4950550000000 1.0
C      1  0.4574320000000  0.4692110000000  0.5810050000000 1.0
C      1  0.5426950000000  0.4552650000000  0.4688350000000 1.0
C      1  0.5605690000000  0.5053280000000  0.5440090000000 1.0
C      1  0.5948810000000  0.4529050000000  0.5167260000000 1.0
C      1  0.4955480000000  0.4299250000000  0.4293140000000 1.0
C      1  0.5070930000000  0.5959150000000  0.5213300000000 1.0
C      1  0.4797900000000  0.4964660000000  0.5128090000000 1.0
C      1  0.5186810000000  0.5696130000000  0.4845780000000 1.0
C      1  0.4005360000000  0.4787520000000  0.4520690000000 1.0
C      1  0.4148560000000  0.4635120000000  0.4349820000000 1.0
C      1  0.4796730000000  0.4459140000000  0.5830910000000 1.0
C      1  0.4783270000000  0.5699560000000  0.5731280000000 1.0
C      1  0.4575760000000  0.5057280000000  0.5374710000000 1.0
C      1  0.5058190000000  0.4802020000000  0.4428670000000 1.0
C      1  0.4807560000000  0.4327440000000  0.4955940000000 1.0
C      1  0.5025570000000  0.4769610000000  0.5471300000000 1.0
C      1  0.5501290000000  0.4706230000000  0.5606460000000 1.0
C      1  0.4297480000000  0.5708500000000  0.5802450000000 1.0
C      1  0.4823760000000  0.4809890000000  0.6010650000000 1.0
C      1  0.4411990000000  0.5683190000000  0.4658120000000 1.0
C      1  0.5936120000000  0.4708970000000  0.5643370000000 1.0
C      1  0.4860880000000  0.4983940000000  0.4008960000000 1.0
C      1  0.5274810000000  0.4655810000000  0.5088070000000 1.0
C      1  0.4843590000000  0.5380430000000  0.4024910000000 1.0
C      1  0.4535670000000  0.4373250000000  0.5106600000000 1.0
C      1  0.5114090000000  0.5642040000000  0.4517660000000 1.0
C      1  0.5170230000000  0.5265930000000  0.4219230000000 1.0
C      1  0.5214220000000  0.5228460000000  0.5623210000000 1.0
C      1  0.5701520000000  0.4522330000000  0.4857630000000 1.0
C      1  0.4306960000000  0.4849470000000  0.5361550000000 1.0
C      1  0.5103770000000  0.4390390000000  0.5804430000000 1.0
C      1  0.5307190000000  0.4792980000000  0.5367160000000 1.0
C      1  0.4422870000000  0.4428140000000  0.4366300000000 1.0
C      1  0.5386410000000  0.5063570000000  0.5231490000000 1.0
C      1  0.5973650000000  0.5245060000000  0.4808300000000 1.0
C      1  0.5827910000000  0.5846320000000  0.5420210000000 1.0
C      1  0.5884590000000  0.5141590000000  0.5442620000000 1.0
C      1  0.5445440000000  0.5505110000000  0.5205240000000 1.0
C      1  0.5694010000000  0.5276540000000  0.4939390000000 1.0
C      1  0.5472240000000  0.5027420000000  0.5715060000000 1.0
C      1  0.4905370000000  0.5223240000000  0.5677540000000 1.0
C      1  0.5184510000000  0.4364420000000  0.4830360000000 1.0
C      1  0.4754850000000  0.5463250000000  0.4866810000000 1.0
C      1  0.4015450000000  0.5291240000000  0.4988380000000 1.0
C      1  0.5600610000000  0.5728690000000  0.4494850000000 1.0
C      1  0.4370890000000  0.5447060000000  0.4249060000000 1.0
C      1  0.4310430000000  0.5415990000000  0.4640250000000 1.0
C      1  0.4924710000000  0.5684930000000  0.5062110000000 1.0
C      1  0.4960830000000  0.5546450000000  0.5371180000000 1.0
C      1  0.4721670000000  0.6032770000000  0.4841910000000 1.0
C      1  0.4922310000000  0.5875230000000  0.4116460000000 1.0
C      1  0.4325860000000  0.4687170000000  0.4812800000000 1.0
C      1  0.6055680000000  0.5489810000000  0.4722930000000 1.0
C      1  0.5500960000000  0.5046940000000  0.4962870000000 1.0
C      1  0.6031880000000  0.4722270000000  0.4961620000000 1.0
C      1  0.5819740000000  0.5706090000000  0.4726860000000 1.0
C      1  0.5455450000000  0.4389840000000  0.5051280000000 1.0
C      1  0.5804720000000  0.5968320000000  0.5174160000000 1.0
C      1  0.4556030000000  0.4187490000000  0.5469450000000 1.0
C      1  0.5934470000000  0.4617340000000  0.4664350000000 1.0
C      1  0.4211110000000  0.5150850000000  0.5229230000000 1.0
C      1  0.4683560000000  0.5439150000000  0.5536710000000 1.0
C      1  0.6025780000000  0.4983510000000  0.4743860000000 1.0
C      1  0.5020000000000  0.5189650000000  0.3843240000000 1.0
C      1  0.5120880000000  0.4192020000000  0.5539420000000 1.0
C      1  0.4902940000000  0.5088260000000  0.4330000000000 1.0
C      1  0.4674770000000  0.4759580000000  0.4529000000000 1.0
C      1  0.5610630000000  0.4332520000000  0.5527710000000 1.0
C      1  0.4201920000000  0.5515450000000  0.5065390000000 1.0
C      1  0.4821140000000  0.5790800000000  0.4425650000000 1.0
C      1  0.4467080000000  0.5400600000000  0.5004050000000 1.0
C      1  0.3975310000000  0.4894970000000  0.5421460000000 1.0
C      1  0.5593400000000  0.4307260000000  0.4518800000000 1.0
C      1  0.4809760000000  0.4664530000000  0.4241330000000 1.0
C      1  0.4601110000000  0.5014720000000  0.6165870000000 1.0
C      1  0.4843980000000  0.6081780000000  0.5382770000000 1.0
C      1  0.4602380000000  0.5283070000000  0.4152510000000 1.0
C      1  0.4684040000000  0.5914210000000  0.5133870000000 1.0
C      1  0.4062760000000  0.4631050000000  0.5784080000000 1.0
C      1  0.4259610000000  0.4416600000000  0.4664750000000 1.0
C      1  0.5500250000000  0.5319450000000  0.5881980000000 1.0
C      1  0.4512320000000  0.5177150000000  0.5671260000000 1.0
C      1  0.4322270000000  0.4626320000000  0.5617760000000 1.0
C      1  0.5741810000000  0.4612100000000  0.5384650000000 1.0
C      1  0.5661420000000  0.5420800000000  0.4630920000000 1.0
C      1  0.5817410000000  0.4429950000000  0.5728060000000 1.0
C      1  0.4686260000000  0.4232540000000  0.4303150000000 1.0
C      1  0.5141690000000  0.5384150000000  0.4821150000000 1.0
C      1  0.5707810000000  0.5611460000000  0.5484850000000 1.0
C      1  0.5740090000000  0.4938000000000  0.4159470000000 1.0
C      1  0.5438330000000  0.5708610000000  0.5014460000000 1.0
C      1  0.5472490000000  0.5130030000000  0.4142510000000 1.0
C      1  0.5356390000000  0.5852280000000  0.4520420000000 1.0
C      1  0.5652820000000  0.3972610000000  0.4528170000000 1.0
C      1  0.5520360000000  0.5815280000000  0.5885150000000 1.0
C      1  0.4626830000000  0.5833220000000  0.5460560000000 1.0
C      1  0.4811220000000  0.4324070000000  0.5544370000000 1.0
C      1  0.4576820000000  0.4781420000000  0.4945980000000 1.0
C      1  0.5252240000000  0.5004850000000  0.3929790000000 1.0
C      1  0.4133740000000  0.4948270000000  0.4791400000000 1.0
C      1  0.4189530000000  0.5330780000000  0.5503620000000 1.0
C      1  0.3957900000000  0.5153260000000  0.5552070000000 1.0
C      1  0.5078480000000  0.4313970000000  0.5152510000000 1.0
C      1  0.4385420000000  0.5606700000000  0.5538310000000 1.0
C      1  0.4873030000000  0.4534450000000  0.5310450000000 1.0
C      1  0.4205070000000  0.5696750000000  0.5266180000000 1.0
C      1  0.4947220000000  0.4918590000000  0.5715690000000 1.0
C      1  0.5638260000000  0.4464930000000  0.4225830000000 1.0
C      1  0.4503650000000  0.5004820000000  0.5881720000000 1.0
C      1  0.4505990000000  0.4045220000000  0.4446350000000 1.0
C      1  0.5289280000000  0.4608030000000  0.5841860000000 1.0
C      1  0.5486330000000  0.5596300000000  0.5701350000000 1.0
C      1  0.4830400000000  0.3992970000000  0.4982680000000 1.0
C      1  0.4958110000000  0.4691180000000  0.5022590000000 1.0
C      1  0.4332900000000  0.4357350000000  0.5449880000000 1.0
C      1  0.5322740000000  0.4841210000000  0.4829270000000 1.0
END
