TITL C-2847953-8112-501 0.000577265669114219 125000 -938.193179836757 0 0 171 (C1) n - 1
REM
REM in /home/bkarasulu/work/CARBON/AIRSS/Generating-Clusters/AIREBO/with-SteepDescent/Only-C1/SD-CG-opt/Try1-1.4A-POS3A/HFTN-CG
REM
REM
REM
REM
REM
REM ./C.cell (11c1c37f851c82e70ff6c80c92926a4b)
REM
REM compiler GCC version 9.2.1 20190827 (Red Hat 9.2.1-1)
REM options -cpp -mtune=generic -march=x86-64 -g -O0 -fpre-include=/usr/include/finclude/math-vector-fortran.h
REM seed 1853582814 1809394603 -83830533 -228402420 1645555569 482562754 -1154671073 372445078 42506290 359489884 -1032159457 125944711 1363089640 -829686891 1133770422 -1579700004 1662808653 358124138 1652698989 197796867 -1789693610 524781271 1861283253 -816918964 -864514172 2136519642 -565962271 995308368 1464696009 1136473142 1529784097 -1974960459 1252888887
REM
CELL 1.54180   50.00000   50.00000   50.00000   90.00000   90.00000   90.00000
LATT -1
SFAC C  
C      1  0.4942690000000  0.5606960000000  0.5926870000000 1.0
C      1  0.5245950000000  0.4226640000000  0.5743300000000 1.0
C      1  0.5801600000000  0.4935030000000  0.4547080000000 1.0
C      1  0.4860290000000  0.4071510000000  0.4281700000000 1.0
C      1  0.4274640000000  0.5574060000000  0.5388060000000 1.0
C      1  0.5244820000000  0.4068570000000  0.4570140000000 1.0
C      1  0.5512350000000  0.4639970000000  0.4256490000000 1.0
C      1  0.4380540000000  0.5220620000000  0.4361540000000 1.0
C      1  0.4983050000000  0.4179150000000  0.5826170000000 1.0
C      1  0.5034600000000  0.4226590000000  0.5006480000000 1.0
C      1  0.4686300000000  0.5443060000000  0.5978990000000 1.0
C      1  0.5176990000000  0.3962300000000  0.5325240000000 1.0
C      1  0.5333530000000  0.4445000000000  0.5322570000000 1.0
C      1  0.6019790000000  0.4607080000000  0.4825870000000 1.0
C      1  0.5315190000000  0.5257660000000  0.4583850000000 1.0
C      1  0.5712320000000  0.4351530000000  0.4825410000000 1.0
C      1  0.4824840000000  0.5098330000000  0.5548000000000 1.0
C      1  0.5073870000000  0.4783410000000  0.4301730000000 1.0
C      1  0.5054980000000  0.4490570000000  0.5511430000000 1.0
C      1  0.4856780000000  0.5565410000000  0.4491440000000 1.0
C      1  0.5601170000000  0.5039810000000  0.3971840000000 1.0
C      1  0.5550330000000  0.5964460000000  0.4939330000000 1.0
C      1  0.4984460000000  0.6115300000000  0.4909100000000 1.0
C      1  0.4950530000000  0.4953010000000  0.4999840000000 1.0
C      1  0.4902350000000  0.5029930000000  0.6218770000000 1.0
C      1  0.5348490000000  0.4718500000000  0.4869480000000 1.0
C      1  0.4534080000000  0.5074060000000  0.4134830000000 1.0
C      1  0.4580090000000  0.5716710000000  0.4623590000000 1.0
C      1  0.4063900000000  0.5361540000000  0.5247160000000 1.0
C      1  0.4489350000000  0.5453750000000  0.5523570000000 1.0
C      1  0.5969170000000  0.4675890000000  0.4555840000000 1.0
C      1  0.5229540000000  0.4507260000000  0.4180050000000 1.0
C      1  0.5034970000000  0.4963160000000  0.4015550000000 1.0
C      1  0.4738530000000  0.4752420000000  0.4253300000000 1.0
C      1  0.4936400000000  0.5988700000000  0.5387390000000 1.0
C      1  0.5633910000000  0.4532710000000  0.5301990000000 1.0
C      1  0.5606810000000  0.5749660000000  0.5275020000000 1.0
C      1  0.4498360000000  0.5147470000000  0.5466600000000 1.0
C      1  0.4743680000000  0.4626400000000  0.4819420000000 1.0
C      1  0.4966500000000  0.5305560000000  0.4308820000000 1.0
C      1  0.5566070000000  0.4493580000000  0.5002560000000 1.0
C      1  0.4368690000000  0.5246080000000  0.5180890000000 1.0
C      1  0.4621930000000  0.5593260000000  0.4247050000000 1.0
C      1  0.4792520000000  0.4704310000000  0.5883270000000 1.0
C      1  0.5448390000000  0.4954250000000  0.5103990000000 1.0
C      1  0.5465040000000  0.5492190000000  0.4741170000000 1.0
C      1  0.4038810000000  0.4947330000000  0.4709550000000 1.0
C      1  0.4440660000000  0.4783110000000  0.4090060000000 1.0
C      1  0.5253210000000  0.5587850000000  0.3994760000000 1.0
C      1  0.4822040000000  0.5473290000000  0.4977910000000 1.0
C      1  0.4254420000000  0.4721490000000  0.4302800000000 1.0
C      1  0.6002500000000  0.4315880000000  0.4892030000000 1.0
C      1  0.4403690000000  0.5796800000000  0.5205650000000 1.0
C      1  0.5247490000000  0.5488090000000  0.5947290000000 1.0
C      1  0.5318730000000  0.4680590000000  0.6011840000000 1.0
C      1  0.5711890000000  0.4856800000000  0.5295590000000 1.0
C      1  0.5206620000000  0.4925780000000  0.5342210000000 1.0
C      1  0.5964180000000  0.5185510000000  0.4648460000000 1.0
C      1  0.5433800000000  0.4339140000000  0.4011210000000 1.0
C      1  0.5986590000000  0.5427870000000  0.4448870000000 1.0
C      1  0.4675370000000  0.5186950000000  0.5840410000000 1.0
C      1  0.4341110000000  0.4487860000000  0.4610000000000 1.0
C      1  0.5103030000000  0.5185590000000  0.6007760000000 1.0
C      1  0.4273290000000  0.5722260000000  0.4721060000000 1.0
C      1  0.5150860000000  0.6029100000000  0.4622830000000 1.0
C      1  0.5940600000000  0.4817460000000  0.5036880000000 1.0
C      1  0.4819340000000  0.5210050000000  0.4031850000000 1.0
C      1  0.4448470000000  0.4216500000000  0.5022000000000 1.0
C      1  0.4025500000000  0.4535250000000  0.5475880000000 1.0
C      1  0.5863740000000  0.4458510000000  0.4366310000000 1.0
C      1  0.4369840000000  0.4233920000000  0.5666800000000 1.0
C      1  0.4920290000000  0.4469950000000  0.4574340000000 1.0
C      1  0.4584750000000  0.4056320000000  0.4294720000000 1.0
C      1  0.4799300000000  0.5550480000000  0.4027650000000 1.0
C      1  0.5837150000000  0.5168550000000  0.5348300000000 1.0
C      1  0.5436940000000  0.5800190000000  0.5617800000000 1.0
C      1  0.4948770000000  0.4779360000000  0.3820120000000 1.0
C      1  0.5415140000000  0.5145310000000  0.4153080000000 1.0
C      1  0.5428210000000  0.5161120000000  0.5574440000000 1.0
C      1  0.4856250000000  0.5611680000000  0.5280730000000 1.0
C      1  0.5262980000000  0.4738990000000  0.5620780000000 1.0
C      1  0.3934990000000  0.5555920000000  0.5035870000000 1.0
C      1  0.5517570000000  0.4751310000000  0.4576030000000 1.0
C      1  0.4989850000000  0.5064770000000  0.4710130000000 1.0
C      1  0.4822220000000  0.5951820000000  0.4582190000000 1.0
C      1  0.5642960000000  0.5232050000000  0.4496430000000 1.0
C      1  0.5308950000000  0.3914900000000  0.4789220000000 1.0
C      1  0.5361180000000  0.4471930000000  0.5815630000000 1.0
C      1  0.5458780000000  0.5966190000000  0.4669110000000 1.0
C      1  0.4805280000000  0.4415420000000  0.5947580000000 1.0
C      1  0.4642150000000  0.4523370000000  0.5289060000000 1.0
C      1  0.5158800000000  0.4510690000000  0.5060700000000 1.0
C      1  0.4735690000000  0.4639200000000  0.3932610000000 1.0
C      1  0.3995530000000  0.5045590000000  0.5255500000000 1.0
C      1  0.4056240000000  0.4567990000000  0.4878440000000 1.0
C      1  0.5839480000000  0.4352280000000  0.5430840000000 1.0
C      1  0.5045450000000  0.5858970000000  0.5615730000000 1.0
C      1  0.4774010000000  0.5780070000000  0.4871890000000 1.0
C      1  0.4640890000000  0.4750060000000  0.5617110000000 1.0
C      1  0.5233560000000  0.5583970000000  0.4937260000000 1.0
C      1  0.6069730000000  0.5112510000000  0.4927920000000 1.0
C      1  0.4749820000000  0.5166440000000  0.5090470000000 1.0
C      1  0.4052570000000  0.5546090000000  0.4776310000000 1.0
C      1  0.4274770000000  0.4495330000000  0.5658180000000 1.0
C      1  0.4692060000000  0.4917270000000  0.4698520000000 1.0
C      1  0.4476440000000  0.5046580000000  0.4927450000000 1.0
C      1  0.4027200000000  0.5286860000000  0.4672000000000 1.0
C      1  0.4901150000000  0.3948270000000  0.5394960000000 1.0
C      1  0.4682710000000  0.5853660000000  0.5315380000000 1.0
C      1  0.5036290000000  0.5827050000000  0.4369120000000 1.0
C      1  0.5732460000000  0.5075680000000  0.4961890000000 1.0
C      1  0.4457740000000  0.4266230000000  0.4394940000000 1.0
C      1  0.4450960000000  0.4995730000000  0.5923440000000 1.0
C      1  0.5691820000000  0.5626710000000  0.5580590000000 1.0
C      1  0.5089830000000  0.4869310000000  0.5882900000000 1.0
C      1  0.5208540000000  0.3996980000000  0.5036460000000 1.0
C      1  0.4056650000000  0.4658280000000  0.4551070000000 1.0
C      1  0.4464990000000  0.4511790000000  0.4889970000000 1.0
C      1  0.5642790000000  0.5383570000000  0.4969200000000 1.0
C      1  0.5831780000000  0.4960880000000  0.5764910000000 1.0
C      1  0.4402510000000  0.5918050000000  0.4919930000000 1.0
C      1  0.5744020000000  0.4470010000000  0.4073650000000 1.0
C      1  0.4657580000000  0.3822340000000  0.5312920000000 1.0
C      1  0.4066800000000  0.4871480000000  0.5017750000000 1.0
C      1  0.4805120000000  0.4271360000000  0.5439550000000 1.0
C      1  0.5055710000000  0.5527190000000  0.5541750000000 1.0
C      1  0.5960420000000  0.5138870000000  0.5622860000000 1.0
C      1  0.4376070000000  0.5486780000000  0.4310980000000 1.0
C      1  0.4059810000000  0.4295160000000  0.5308410000000 1.0
C      1  0.5235740000000  0.5340880000000  0.4124470000000 1.0
C      1  0.5029980000000  0.4208430000000  0.4461250000000 1.0
C      1  0.4308920000000  0.5127260000000  0.4642210000000 1.0
C      1  0.5813170000000  0.5860240000000  0.5045740000000 1.0
C      1  0.4769550000000  0.4195870000000  0.5109840000000 1.0
C      1  0.5334620000000  0.4978070000000  0.4400630000000 1.0
C      1  0.5992740000000  0.5315180000000  0.5148660000000 1.0
C      1  0.5299800000000  0.4168410000000  0.5474370000000 1.0
C      1  0.4738170000000  0.5539420000000  0.5663200000000 1.0
C      1  0.5722800000000  0.5548440000000  0.4411520000000 1.0
C      1  0.4914570000000  0.4789970000000  0.5432200000000 1.0
C      1  0.5018660000000  0.5205200000000  0.5295080000000 1.0
C      1  0.5649550000000  0.4437900000000  0.4571880000000 1.0
C      1  0.5488990000000  0.5256990000000  0.5253900000000 1.0
C      1  0.5574160000000  0.4875200000000  0.5606100000000 1.0
C      1  0.4438070000000  0.3989860000000  0.5251930000000 1.0
C      1  0.5883390000000  0.5575330000000  0.5045770000000 1.0
C      1  0.5322300000000  0.5826010000000  0.5104150000000 1.0
C      1  0.5548750000000  0.5727110000000  0.4552440000000 1.0
C      1  0.5099800000000  0.4751770000000  0.4639530000000 1.0
C      1  0.4132940000000  0.4342920000000  0.5031730000000 1.0
C      1  0.5358940000000  0.5543600000000  0.5383290000000 1.0
C      1  0.4321330000000  0.4992850000000  0.5663830000000 1.0
C      1  0.4745890000000  0.5061340000000  0.4395220000000 1.0
C      1  0.4691660000000  0.4892810000000  0.6107840000000 1.0
C      1  0.5022020000000  0.5729600000000  0.4067340000000 1.0
C      1  0.4096210000000  0.4863850000000  0.5482560000000 1.0
C      1  0.5111640000000  0.5222420000000  0.5682290000000 1.0
C      1  0.4497890000000  0.5503850000000  0.5065320000000 1.0
C      1  0.5099550000000  0.6022640000000  0.5151970000000 1.0
C      1  0.4667470000000  0.6100110000000  0.4914910000000 1.0
C      1  0.4250730000000  0.4100070000000  0.5441240000000 1.0
C      1  0.4635880000000  0.4533880000000  0.4446600000000 1.0
C      1  0.4883610000000  0.4674130000000  0.5113820000000 1.0
C      1  0.4364700000000  0.4756070000000  0.5067220000000 1.0
C      1  0.4659970000000  0.4217660000000  0.5724280000000 1.0
C      1  0.5260320000000  0.5812570000000  0.5846160000000 1.0
C      1  0.4382440000000  0.4698710000000  0.5402190000000 1.0
C      1  0.5667910000000  0.4789210000000  0.4013600000000 1.0
C      1  0.5039450000000  0.5400810000000  0.4726460000000 1.0
C      1  0.5206590000000  0.5306910000000  0.5076590000000 1.0
C      1  0.5491230000000  0.5425130000000  0.5741090000000 1.0
END
