TITL C-2848494-1720-374 0.00116301889746064 125000 -184.096197257249 0 0 34 (C1) n - 1
REM
REM in /home/bkarasulu/work/CARBON/AIRSS/Generating-Clusters/AIREBO/with-SteepDescent/Only-C1/SD-CG-opt/Try1-1.4A-POS3A/HFTN-CG
REM
REM
REM
REM
REM
REM ./C.cell (11c1c37f851c82e70ff6c80c92926a4b)
REM
REM compiler GCC version 9.2.1 20190827 (Red Hat 9.2.1-1)
REM options -cpp -mtune=generic -march=x86-64 -g -O0 -fpre-include=/usr/include/finclude/math-vector-fortran.h
REM seed -233171866 1425329414 -2111103459 -746022866 -1721757811 781241490 -54665864 -970773045 -65651425 219359614 1875654238 580139014 1560423180 -321823112 -1517287489 1443566515 -1331237351 929638035 936670014 1281646271 -521085707 -831740575 -1730356556 -516248591 -1432911406 1032173730 -384344964 -132870497 -685467257 -2123042482 -322727510 -1903513528 -2094573391
REM
CELL 1.54180   50.00000   50.00000   50.00000   90.00000   90.00000   90.00000
LATT -1
SFAC C  
C      1  0.4914060000000  0.4944480000000  0.5682630000000 1.0
C      1  0.5235550000000  0.4435660000000  0.5232750000000 1.0
C      1  0.5137940000000  0.4786920000000  0.4588980000000 1.0
C      1  0.5122970000000  0.5037660000000  0.4818130000000 1.0
C      1  0.4254750000000  0.5338080000000  0.5347640000000 1.0
C      1  0.4979770000000  0.5602870000000  0.5321560000000 1.0
C      1  0.5016520000000  0.4591670000000  0.5323590000000 1.0
C      1  0.5088900000000  0.4809330000000  0.5491080000000 1.0
C      1  0.5118110000000  0.5294420000000  0.5322230000000 1.0
C      1  0.4842930000000  0.5112170000000  0.5404410000000 1.0
C      1  0.5305610000000  0.4944310000000  0.5022100000000 1.0
C      1  0.5230530000000  0.5422340000000  0.4838480000000 1.0
C      1  0.4803260000000  0.5444790000000  0.5130660000000 1.0
C      1  0.5579950000000  0.5194450000000  0.5165950000000 1.0
C      1  0.4783830000000  0.4635350000000  0.5172680000000 1.0
C      1  0.5084400000000  0.5346350000000  0.4568900000000 1.0
C      1  0.5104640000000  0.4501080000000  0.4429370000000 1.0
C      1  0.4569430000000  0.4926340000000  0.4702380000000 1.0
C      1  0.4622050000000  0.4915130000000  0.5249070000000 1.0
C      1  0.5538460000000  0.4560020000000  0.5191140000000 1.0
C      1  0.4647790000000  0.5126330000000  0.4530850000000 1.0
C      1  0.5276000000000  0.4508160000000  0.4695090000000 1.0
C      1  0.4995910000000  0.4359200000000  0.4232830000000 1.0
C      1  0.4802710000000  0.5365980000000  0.4503530000000 1.0
C      1  0.5206500000000  0.5085070000000  0.4485970000000 1.0
C      1  0.5362020000000  0.4457010000000  0.4940310000000 1.0
C      1  0.5350740000000  0.5332380000000  0.5103340000000 1.0
C      1  0.4343590000000  0.5042690000000  0.5326210000000 1.0
C      1  0.5266870000000  0.5003000000000  0.5349520000000 1.0
C      1  0.4634260000000  0.4806670000000  0.4939940000000 1.0
C      1  0.4949690000000  0.5302810000000  0.4942150000000 1.0
C      1  0.4586180000000  0.5307080000000  0.5294840000000 1.0
C      1  0.4692140000000  0.5599080000000  0.4424550000000 1.0
C      1  0.5551930000000  0.4861130000000  0.5227140000000 1.0
END
