TITL C-2847945-6269-72 0.00127515848145611 125000 -191.748826645721 0 0 36 (C1) n - 1
REM
REM in /home/bkarasulu/work/CARBON/AIRSS/Generating-Clusters/AIREBO/with-SteepDescent/Only-C1/SD-CG-opt/Try1-1.4A-POS3A/HFTN-CG
REM
REM
REM
REM
REM
REM ./C.cell (11c1c37f851c82e70ff6c80c92926a4b)
REM
REM compiler GCC version 9.2.1 20190827 (Red Hat 9.2.1-1)
REM options -cpp -mtune=generic -march=x86-64 -g -O0 -fpre-include=/usr/include/finclude/math-vector-fortran.h
REM seed -54943040 -1982714123 587894057 1845644501 1585951749 969982001 -1347402532 904743076 -780515444 1656586244 896432182 363357220 -396932537 -299104880 -1559747218 649089996 42730137 784006127 1589049321 867441480 1862483214 -812639271 -2044916379 652948396 -1052703377 570235572 375760710 -2071056305 1456234048 -527739247 -1955512599 -1176119471 -1749299009
REM
CELL 1.54180   50.00000   50.00000   50.00000   90.00000   90.00000   90.00000
LATT -1
SFAC C  
C      1  0.5401120000000  0.4780780000000  0.4351670000000 1.0
C      1  0.4934050000000  0.4558260000000  0.4657940000000 1.0
C      1  0.5728290000000  0.5206230000000  0.4909200000000 1.0
C      1  0.5248690000000  0.4960040000000  0.4847400000000 1.0
C      1  0.5031200000000  0.4609460000000  0.5649610000000 1.0
C      1  0.4594430000000  0.4607160000000  0.4327820000000 1.0
C      1  0.5701320000000  0.5084370000000  0.4687850000000 1.0
C      1  0.4787370000000  0.5011160000000  0.4499770000000 1.0
C      1  0.4699860000000  0.5554460000000  0.5380320000000 1.0
C      1  0.4687620000000  0.5275040000000  0.5368820000000 1.0
C      1  0.4236390000000  0.5113070000000  0.4894360000000 1.0
C      1  0.5286170000000  0.5462960000000  0.5008840000000 1.0
C      1  0.4765490000000  0.5181210000000  0.4739500000000 1.0
C      1  0.5350090000000  0.4626370000000  0.5218170000000 1.0
C      1  0.5482030000000  0.5216620000000  0.5088750000000 1.0
C      1  0.5223250000000  0.5206530000000  0.5309060000000 1.0
C      1  0.5434170000000  0.4968870000000  0.4619460000000 1.0
C      1  0.4970550000000  0.4412570000000  0.5823580000000 1.0
C      1  0.4698100000000  0.5102550000000  0.5577570000000 1.0
C      1  0.4773270000000  0.4723610000000  0.4495120000000 1.0
C      1  0.5392920000000  0.4890440000000  0.5138130000000 1.0
C      1  0.4810890000000  0.5139620000000  0.4259610000000 1.0
C      1  0.5037980000000  0.5668010000000  0.5044230000000 1.0
C      1  0.5111680000000  0.4403290000000  0.4800500000000 1.0
C      1  0.5296260000000  0.4438130000000  0.5006330000000 1.0
C      1  0.3979640000000  0.5062060000000  0.4881380000000 1.0
C      1  0.4876310000000  0.5729300000000  0.5261580000000 1.0
C      1  0.5331730000000  0.5058480000000  0.4278120000000 1.0
C      1  0.5050520000000  0.4751550000000  0.4985410000000 1.0
C      1  0.4493900000000  0.5138260000000  0.4906130000000 1.0
C      1  0.5062230000000  0.5138070000000  0.5058200000000 1.0
C      1  0.4978730000000  0.5391660000000  0.4871550000000 1.0
C      1  0.4876300000000  0.4834580000000  0.5621890000000 1.0
C      1  0.4746350000000  0.5163760000000  0.5102620000000 1.0
C      1  0.5250240000000  0.4587230000000  0.5476300000000 1.0
C      1  0.4670850000000  0.4944280000000  0.5853190000000 1.0
END
