TITL C-2848508-1660-269 0.00279582392061893 125000 -716.625805249256 0 0 134 (C1) n - 1
REM
REM in /home/bkarasulu/work/CARBON/AIRSS/Generating-Clusters/AIREBO/with-SteepDescent/Only-C1/SD-CG-opt/Try1-1.4A-POS3A/HFTN-CG
REM
REM
REM
REM
REM
REM ./C.cell (11c1c37f851c82e70ff6c80c92926a4b)
REM
REM compiler GCC version 9.2.1 20190827 (Red Hat 9.2.1-1)
REM options -cpp -mtune=generic -march=x86-64 -g -O0 -fpre-include=/usr/include/finclude/math-vector-fortran.h
REM seed 660147514 -1790246044 1000209390 -1395341450 786398403 1418199873 -848432014 -1022454159 -1224827062 -1748679678 -258325128 327534360 -1366926356 1489736920 -117279761 -564988859 -731211661 -1356415145 -1772234924 -151467242 -1358922586 -1012196098 446018227 161721 -293185007 744945736 1162334756 -1438385025 255829112 -382407139 -829836527 -1120101927 -1045893663
REM
CELL 1.54180   50.00000   50.00000   50.00000   90.00000   90.00000   90.00000
LATT -1
SFAC C  
C      1  0.4404770000000  0.4898320000000  0.4679110000000 1.0
C      1  0.4426380000000  0.5755670000000  0.4895990000000 1.0
C      1  0.4843860000000  0.4489640000000  0.4601380000000 1.0
C      1  0.5327240000000  0.4753470000000  0.4635550000000 1.0
C      1  0.4783240000000  0.5007630000000  0.5470850000000 1.0
C      1  0.4966050000000  0.4701550000000  0.4254880000000 1.0
C      1  0.5224900000000  0.4064710000000  0.5425700000000 1.0
C      1  0.4655010000000  0.5148210000000  0.5968510000000 1.0
C      1  0.4642050000000  0.5122460000000  0.4582310000000 1.0
C      1  0.5439100000000  0.5894260000000  0.5320580000000 1.0
C      1  0.4228340000000  0.4441950000000  0.5465230000000 1.0
C      1  0.5048950000000  0.4028700000000  0.5010620000000 1.0
C      1  0.4840020000000  0.5572040000000  0.5803960000000 1.0
C      1  0.5245860000000  0.5175530000000  0.4184840000000 1.0
C      1  0.5394180000000  0.5680100000000  0.5094560000000 1.0
C      1  0.5561030000000  0.5751820000000  0.4832250000000 1.0
C      1  0.4865050000000  0.5145850000000  0.4964890000000 1.0
C      1  0.4442220000000  0.5272120000000  0.4813230000000 1.0
C      1  0.5742410000000  0.4433960000000  0.5327720000000 1.0
C      1  0.5220820000000  0.6036210000000  0.5109830000000 1.0
C      1  0.5765140000000  0.5573830000000  0.5037870000000 1.0
C      1  0.4532860000000  0.4387660000000  0.5520880000000 1.0
C      1  0.5666440000000  0.5127070000000  0.4450140000000 1.0
C      1  0.5567530000000  0.4519410000000  0.4600960000000 1.0
C      1  0.4575990000000  0.5239470000000  0.4279800000000 1.0
C      1  0.5737240000000  0.4572540000000  0.5922930000000 1.0
C      1  0.4884080000000  0.4234450000000  0.4443740000000 1.0
C      1  0.5897480000000  0.5520570000000  0.4546570000000 1.0
C      1  0.4868990000000  0.5850230000000  0.5148830000000 1.0
C      1  0.4722380000000  0.5438560000000  0.4866720000000 1.0
C      1  0.4523150000000  0.4497930000000  0.4109420000000 1.0
C      1  0.4314270000000  0.5538560000000  0.4289100000000 1.0
C      1  0.4380130000000  0.4922700000000  0.4995050000000 1.0
C      1  0.5659500000000  0.5652530000000  0.4569460000000 1.0
C      1  0.5410700000000  0.4382030000000  0.5581900000000 1.0
C      1  0.5407520000000  0.5044410000000  0.5547860000000 1.0
C      1  0.4703300000000  0.4207220000000  0.5332420000000 1.0
C      1  0.4769740000000  0.3988280000000  0.4574940000000 1.0
C      1  0.5263580000000  0.5916680000000  0.4803930000000 1.0
C      1  0.5280260000000  0.4740420000000  0.5463850000000 1.0
C      1  0.5136650000000  0.4927960000000  0.4067130000000 1.0
C      1  0.5636370000000  0.5421730000000  0.5285490000000 1.0
C      1  0.4272930000000  0.5516510000000  0.4947580000000 1.0
C      1  0.5008130000000  0.4233400000000  0.5469310000000 1.0
C      1  0.4239270000000  0.5224690000000  0.4325260000000 1.0
C      1  0.4316670000000  0.5368300000000  0.5722980000000 1.0
C      1  0.4846990000000  0.4958280000000  0.3973850000000 1.0
C      1  0.4556830000000  0.5705890000000  0.5370920000000 1.0
C      1  0.5510590000000  0.4195420000000  0.4964690000000 1.0
C      1  0.4547100000000  0.5150550000000  0.5113010000000 1.0
C      1  0.5051670000000  0.5545860000000  0.5332040000000 1.0
C      1  0.5128270000000  0.4224390000000  0.4312670000000 1.0
C      1  0.4306200000000  0.4638490000000  0.4573250000000 1.0
C      1  0.4674930000000  0.5703020000000  0.4682450000000 1.0
C      1  0.4980390000000  0.4826240000000  0.6029680000000 1.0
C      1  0.5657410000000  0.4999630000000  0.4934200000000 1.0
C      1  0.4469420000000  0.4656800000000  0.5143270000000 1.0
C      1  0.5203600000000  0.4478580000000  0.4228560000000 1.0
C      1  0.4198210000000  0.5145770000000  0.4612830000000 1.0
C      1  0.6007560000000  0.5431230000000  0.5136830000000 1.0
C      1  0.5091290000000  0.5148010000000  0.6075630000000 1.0
C      1  0.5537540000000  0.5281490000000  0.4247420000000 1.0
C      1  0.5560410000000  0.4179870000000  0.4627200000000 1.0
C      1  0.5858230000000  0.4998160000000  0.5350940000000 1.0
C      1  0.4071780000000  0.5008240000000  0.4889920000000 1.0
C      1  0.4538580000000  0.5238040000000  0.5419220000000 1.0
C      1  0.4939570000000  0.5228880000000  0.5286080000000 1.0
C      1  0.5895930000000  0.5237220000000  0.4573050000000 1.0
C      1  0.4992880000000  0.4806150000000  0.5294340000000 1.0
C      1  0.4878580000000  0.5015720000000  0.5766330000000 1.0
C      1  0.4908820000000  0.4273540000000  0.5084140000000 1.0
C      1  0.4995710000000  0.4575590000000  0.5044470000000 1.0
C      1  0.5212070000000  0.5278570000000  0.5443100000000 1.0
C      1  0.4096040000000  0.4536920000000  0.4759670000000 1.0
C      1  0.4584200000000  0.5517550000000  0.5607580000000 1.0
C      1  0.5613840000000  0.4561460000000  0.5681050000000 1.0
C      1  0.5214750000000  0.5044290000000  0.5808840000000 1.0
C      1  0.4614770000000  0.5555860000000  0.4398190000000 1.0
C      1  0.4645140000000  0.4599270000000  0.4854880000000 1.0
C      1  0.4352900000000  0.4435300000000  0.4913070000000 1.0
C      1  0.5492100000000  0.4201360000000  0.5303600000000 1.0
C      1  0.4723360000000  0.4603940000000  0.5340370000000 1.0
C      1  0.4630570000000  0.4615890000000  0.5724710000000 1.0
C      1  0.4595680000000  0.4233600000000  0.5006740000000 1.0
C      1  0.5123040000000  0.4513640000000  0.4763600000000 1.0
C      1  0.4265790000000  0.5101630000000  0.5551100000000 1.0
C      1  0.5102170000000  0.4504810000000  0.5620960000000 1.0
C      1  0.5419880000000  0.5546330000000  0.4399980000000 1.0
C      1  0.4099660000000  0.5057990000000  0.5283340000000 1.0
C      1  0.4530660000000  0.5896310000000  0.5122000000000 1.0
C      1  0.5298690000000  0.5522650000000  0.5642410000000 1.0
C      1  0.3927370000000  0.4734960000000  0.4844680000000 1.0
C      1  0.4721980000000  0.5550480000000  0.5139380000000 1.0
C      1  0.5988470000000  0.5255560000000  0.5372590000000 1.0
C      1  0.4614840000000  0.5399450000000  0.5986780000000 1.0
C      1  0.5196280000000  0.5184150000000  0.4898320000000 1.0
C      1  0.5550400000000  0.5094450000000  0.5243190000000 1.0
C      1  0.4940610000000  0.5119830000000  0.4573120000000 1.0
C      1  0.5624610000000  0.4680120000000  0.4891610000000 1.0
C      1  0.4984730000000  0.5834070000000  0.4623200000000 1.0
C      1  0.5010080000000  0.5379000000000  0.4181360000000 1.0
C      1  0.5045860000000  0.5718260000000  0.5630030000000 1.0
C      1  0.5077630000000  0.3984340000000  0.4688130000000 1.0
C      1  0.5237870000000  0.5272670000000  0.4510630000000 1.0
C      1  0.5099600000000  0.5473330000000  0.4747800000000 1.0
C      1  0.5520080000000  0.5650280000000  0.5469960000000 1.0
C      1  0.5052240000000  0.5941360000000  0.5389580000000 1.0
C      1  0.4446580000000  0.4925050000000  0.4283730000000 1.0
C      1  0.5096380000000  0.5629850000000  0.5024540000000 1.0
C      1  0.4665950000000  0.4711740000000  0.4414970000000 1.0
C      1  0.5434400000000  0.5055500000000  0.4683570000000 1.0
C      1  0.4897130000000  0.4616640000000  0.5818810000000 1.0
C      1  0.4715520000000  0.4673510000000  0.4020760000000 1.0
C      1  0.4951460000000  0.5543810000000  0.4449130000000 1.0
C      1  0.4786490000000  0.5225810000000  0.4070340000000 1.0
C      1  0.5460750000000  0.4711510000000  0.5177130000000 1.0
C      1  0.5038070000000  0.4833520000000  0.4545570000000 1.0
C      1  0.5820690000000  0.5410510000000  0.5571140000000 1.0
C      1  0.5245900000000  0.4978150000000  0.5145640000000 1.0
C      1  0.4493850000000  0.4849520000000  0.5557160000000 1.0
C      1  0.5454630000000  0.4561380000000  0.4297650000000 1.0
C      1  0.4891220000000  0.4829120000000  0.4843220000000 1.0
C      1  0.5694470000000  0.4738760000000  0.5422960000000 1.0
C      1  0.5565920000000  0.5317120000000  0.5686500000000 1.0
C      1  0.4559060000000  0.4193560000000  0.4671030000000 1.0
C      1  0.4486880000000  0.4423660000000  0.4439430000000 1.0
C      1  0.5262120000000  0.4258670000000  0.4767900000000 1.0
C      1  0.5004960000000  0.5417700000000  0.6059050000000 1.0
C      1  0.4099120000000  0.5289920000000  0.5071130000000 1.0
C      1  0.5698650000000  0.4420290000000  0.5040970000000 1.0
C      1  0.4229130000000  0.4753860000000  0.5363420000000 1.0
C      1  0.5935030000000  0.5101530000000  0.4820960000000 1.0
C      1  0.5292260000000  0.5821760000000  0.4478660000000 1.0
C      1  0.5315190000000  0.4035490000000  0.4445970000000 1.0
END
