TITL C-2847944-5688-251 -0.000105861565782815 125000 -1029.9775558414 0 0 197 (C1) n - 1
REM
REM in /home/bkarasulu/work/CARBON/AIRSS/Generating-Clusters/AIREBO/with-SteepDescent/Only-C1/SD-CG-opt/Try1-1.4A-POS3A/HFTN-CG
REM
REM
REM
REM
REM
REM ./C.cell (11c1c37f851c82e70ff6c80c92926a4b)
REM
REM compiler GCC version 9.2.1 20190827 (Red Hat 9.2.1-1)
REM options -cpp -mtune=generic -march=x86-64 -g -O0 -fpre-include=/usr/include/finclude/math-vector-fortran.h
REM seed -540637601 -364473758 -1729194794 1083400377 1226073047 -58407103 2099375013 1147839978 434403914 1271893129 -1162925661 1826066960 -1546961772 588392080 -955481702 -815113117 580697072 1427783182 1127831459 1242696049 1418823505 624897215 1491555781 1238605801 -1744256549 -355500235 1642442507 379549201 1688205833 -776365452 -349744146 273806691 1726060550
REM
CELL 1.54180   50.00000   50.00000   50.00000   90.00000   90.00000   90.00000
LATT -1
SFAC C  
C      1  0.5067590000000  0.4428680000000  0.3980340000000 1.0
C      1  0.5591130000000  0.5981980000000  0.4737990000000 1.0
C      1  0.4763070000000  0.5137510000000  0.5124400000000 1.0
C      1  0.4630690000000  0.4186560000000  0.5694750000000 1.0
C      1  0.4623890000000  0.5064480000000  0.4822650000000 1.0
C      1  0.5322920000000  0.5936680000000  0.5572780000000 1.0
C      1  0.5125840000000  0.5895490000000  0.4259080000000 1.0
C      1  0.4597410000000  0.4776990000000  0.4775840000000 1.0
C      1  0.5861610000000  0.5442910000000  0.4932320000000 1.0
C      1  0.4856860000000  0.3911390000000  0.4883990000000 1.0
C      1  0.6004670000000  0.4458840000000  0.5765420000000 1.0
C      1  0.3839090000000  0.4998620000000  0.5481000000000 1.0
C      1  0.4829310000000  0.4312510000000  0.5371860000000 1.0
C      1  0.5444800000000  0.6052690000000  0.5040320000000 1.0
C      1  0.5551350000000  0.5514630000000  0.5051980000000 1.0
C      1  0.4775680000000  0.5020360000000  0.5443400000000 1.0
C      1  0.5536240000000  0.4991730000000  0.4106090000000 1.0
C      1  0.6033330000000  0.5060040000000  0.4669550000000 1.0
C      1  0.5828290000000  0.4215120000000  0.5278000000000 1.0
C      1  0.4986980000000  0.4942550000000  0.4958540000000 1.0
C      1  0.5467280000000  0.4204420000000  0.4254860000000 1.0
C      1  0.5665760000000  0.5042830000000  0.4818690000000 1.0
C      1  0.6200700000000  0.4786760000000  0.4783740000000 1.0
C      1  0.4920750000000  0.5584560000000  0.5562280000000 1.0
C      1  0.5081230000000  0.4886380000000  0.4009490000000 1.0
C      1  0.4790660000000  0.5559660000000  0.4349720000000 1.0
C      1  0.4657480000000  0.5627140000000  0.4627430000000 1.0
C      1  0.4783410000000  0.4893460000000  0.5743040000000 1.0
C      1  0.5441160000000  0.5518190000000  0.5877600000000 1.0
C      1  0.4509000000000  0.4955160000000  0.3975800000000 1.0
C      1  0.5706470000000  0.4844920000000  0.5487540000000 1.0
C      1  0.3800650000000  0.5265000000000  0.4872570000000 1.0
C      1  0.4447620000000  0.4996900000000  0.5452830000000 1.0
C      1  0.4857150000000  0.5059150000000  0.4455710000000 1.0
C      1  0.5546870000000  0.5189670000000  0.5098350000000 1.0
C      1  0.4775020000000  0.5760630000000  0.3917410000000 1.0
C      1  0.4339050000000  0.4439610000000  0.4854030000000 1.0
C      1  0.6080000000000  0.4811370000000  0.5372790000000 1.0
C      1  0.5190630000000  0.5535020000000  0.5982910000000 1.0
C      1  0.4418370000000  0.5876180000000  0.4828210000000 1.0
C      1  0.4003420000000  0.4646350000000  0.5857640000000 1.0
C      1  0.5747460000000  0.4606070000000  0.4655810000000 1.0
C      1  0.4957760000000  0.4349850000000  0.4363370000000 1.0
C      1  0.5641010000000  0.5153990000000  0.5397020000000 1.0
C      1  0.5604020000000  0.3858700000000  0.4923350000000 1.0
C      1  0.5298050000000  0.4780600000000  0.4600750000000 1.0
C      1  0.5219140000000  0.5425910000000  0.4053990000000 1.0
C      1  0.4906770000000  0.4369950000000  0.5697950000000 1.0
C      1  0.4601010000000  0.4370590000000  0.4648450000000 1.0
C      1  0.5377180000000  0.4361840000000  0.5163310000000 1.0
C      1  0.5814320000000  0.4266110000000  0.4950770000000 1.0
C      1  0.5249730000000  0.5147430000000  0.4337140000000 1.0
C      1  0.4563500000000  0.4862840000000  0.5162660000000 1.0
C      1  0.5338960000000  0.5138520000000  0.5538510000000 1.0
C      1  0.4586240000000  0.4036380000000  0.4936400000000 1.0
C      1  0.4877960000000  0.5796130000000  0.4180410000000 1.0
C      1  0.4765860000000  0.4129230000000  0.4319590000000 1.0
C      1  0.5405730000000  0.5223810000000  0.3977110000000 1.0
C      1  0.4502950000000  0.4017860000000  0.5269710000000 1.0
C      1  0.5020260000000  0.4487560000000  0.5961960000000 1.0
C      1  0.5822060000000  0.4288750000000  0.4611320000000 1.0
C      1  0.5103960000000  0.5671780000000  0.4785500000000 1.0
C      1  0.5997740000000  0.4540360000000  0.4862180000000 1.0
C      1  0.4831230000000  0.5805940000000  0.5320190000000 1.0
C      1  0.4010810000000  0.4432020000000  0.4878480000000 1.0
C      1  0.4570750000000  0.5155450000000  0.4397970000000 1.0
C      1  0.6001740000000  0.5274880000000  0.5141140000000 1.0
C      1  0.5052620000000  0.3860510000000  0.4637510000000 1.0
C      1  0.5809080000000  0.5445830000000  0.4439820000000 1.0
C      1  0.4748200000000  0.4831310000000  0.6078900000000 1.0
C      1  0.5014740000000  0.4202910000000  0.5107380000000 1.0
C      1  0.4723520000000  0.5220730000000  0.3983500000000 1.0
C      1  0.5461500000000  0.4429070000000  0.4706280000000 1.0
C      1  0.5770390000000  0.4930020000000  0.4233500000000 1.0
C      1  0.4436280000000  0.5629440000000  0.5703370000000 1.0
C      1  0.5352990000000  0.5663550000000  0.4257050000000 1.0
C      1  0.5315800000000  0.5480440000000  0.4821600000000 1.0
C      1  0.5791870000000  0.4888560000000  0.4543050000000 1.0
C      1  0.5352820000000  0.5894350000000  0.4511860000000 1.0
C      1  0.4598000000000  0.3968430000000  0.5527460000000 1.0
C      1  0.4885670000000  0.5253610000000  0.4733220000000 1.0
C      1  0.4728280000000  0.4529030000000  0.4903460000000 1.0
C      1  0.5106530000000  0.4521800000000  0.5033340000000 1.0
C      1  0.4700540000000  0.4551120000000  0.4378030000000 1.0
C      1  0.5885820000000  0.4967510000000  0.5144030000000 1.0
C      1  0.4219300000000  0.4333720000000  0.4553870000000 1.0
C      1  0.4596430000000  0.4314470000000  0.5131980000000 1.0
C      1  0.5173710000000  0.4045240000000  0.4884700000000 1.0
C      1  0.4559110000000  0.6034520000000  0.4492360000000 1.0
C      1  0.5005170000000  0.4508410000000  0.4707170000000 1.0
C      1  0.5951110000000  0.5344290000000  0.4679160000000 1.0
C      1  0.4980190000000  0.6356050000000  0.4885740000000 1.0
C      1  0.4289830000000  0.5876220000000  0.4511380000000 1.0
C      1  0.4569030000000  0.4681260000000  0.4021680000000 1.0
C      1  0.4346470000000  0.4528440000000  0.5183600000000 1.0
C      1  0.5954860000000  0.5024270000000  0.5606990000000 1.0
C      1  0.3901690000000  0.4685050000000  0.4871680000000 1.0
C      1  0.5201530000000  0.3798890000000  0.4418060000000 1.0
C      1  0.4114360000000  0.5850020000000  0.5236100000000 1.0
C      1  0.4588030000000  0.5541500000000  0.5950190000000 1.0
C      1  0.4968180000000  0.5057910000000  0.3830470000000 1.0
C      1  0.5946820000000  0.5552710000000  0.5599000000000 1.0
C      1  0.5476060000000  0.5676770000000  0.5607170000000 1.0
C      1  0.4301760000000  0.4713720000000  0.5465690000000 1.0
C      1  0.4986070000000  0.4677290000000  0.5575880000000 1.0
C      1  0.4994020000000  0.5384600000000  0.5161090000000 1.0
C      1  0.4192260000000  0.5508680000000  0.5531650000000 1.0
C      1  0.4832790000000  0.5541650000000  0.4905960000000 1.0
C      1  0.4629340000000  0.5705890000000  0.5123510000000 1.0
C      1  0.5555820000000  0.5395680000000  0.4651940000000 1.0
C      1  0.4262600000000  0.5406830000000  0.4399850000000 1.0
C      1  0.5448290000000  0.4243400000000  0.5725850000000 1.0
C      1  0.4736470000000  0.5938460000000  0.4739100000000 1.0
C      1  0.4824690000000  0.4573060000000  0.6141270000000 1.0
C      1  0.5030240000000  0.5893800000000  0.5652130000000 1.0
C      1  0.5056470000000  0.3843930000000  0.5529880000000 1.0
C      1  0.5486270000000  0.5390760000000  0.4344690000000 1.0
C      1  0.3926460000000  0.4834580000000  0.5131810000000 1.0
C      1  0.4517820000000  0.4686300000000  0.5694650000000 1.0
C      1  0.3836170000000  0.5132910000000  0.5174310000000 1.0
C      1  0.4840790000000  0.4570320000000  0.4004350000000 1.0
C      1  0.5797100000000  0.4703750000000  0.5783420000000 1.0
C      1  0.5092060000000  0.5887150000000  0.5119790000000 1.0
C      1  0.5406210000000  0.4876330000000  0.5752380000000 1.0
C      1  0.5144570000000  0.5083510000000  0.6238990000000 1.0
C      1  0.5349530000000  0.6119710000000  0.5316760000000 1.0
C      1  0.4903800000000  0.5485680000000  0.5874250000000 1.0
C      1  0.4027840000000  0.5391520000000  0.5088240000000 1.0
C      1  0.4285440000000  0.5035430000000  0.4805880000000 1.0
C      1  0.4478560000000  0.4218860000000  0.4366250000000 1.0
C      1  0.5188530000000  0.5188340000000  0.4873640000000 1.0
C      1  0.5256170000000  0.5598860000000  0.5198650000000 1.0
C      1  0.3879810000000  0.5139050000000  0.4630940000000 1.0
C      1  0.4390720000000  0.5254770000000  0.5577820000000 1.0
C      1  0.4844530000000  0.4672890000000  0.5188780000000 1.0
C      1  0.5643620000000  0.4810110000000  0.5020370000000 1.0
C      1  0.4122010000000  0.4633840000000  0.4427130000000 1.0
C      1  0.5331600000000  0.3958960000000  0.4239410000000 1.0
C      1  0.5459910000000  0.4566770000000  0.5621340000000 1.0
C      1  0.4323690000000  0.5576120000000  0.4668100000000 1.0
C      1  0.4541660000000  0.5403530000000  0.4205180000000 1.0
C      1  0.4027080000000  0.4737990000000  0.5597070000000 1.0
C      1  0.4231610000000  0.4988370000000  0.4037420000000 1.0
C      1  0.4870160000000  0.4796110000000  0.4256920000000 1.0
C      1  0.5234240000000  0.5461260000000  0.5501710000000 1.0
C      1  0.5939190000000  0.5296120000000  0.5448020000000 1.0
C      1  0.5248080000000  0.4642700000000  0.5948110000000 1.0
C      1  0.5553390000000  0.4561620000000  0.5948310000000 1.0
C      1  0.5614240000000  0.5314350000000  0.5931800000000 1.0
C      1  0.5668340000000  0.5826610000000  0.5031050000000 1.0
C      1  0.4614340000000  0.5482870000000  0.5454970000000 1.0
C      1  0.4014510000000  0.5717010000000  0.4683220000000 1.0
C      1  0.5015960000000  0.6094730000000  0.5378200000000 1.0
C      1  0.5281610000000  0.4479350000000  0.4209380000000 1.0
C      1  0.4869310000000  0.5077140000000  0.6196590000000 1.0
C      1  0.5399810000000  0.5093100000000  0.4625030000000 1.0
C      1  0.4772530000000  0.5190460000000  0.5908400000000 1.0
C      1  0.5326930000000  0.5019060000000  0.6050760000000 1.0
C      1  0.4460720000000  0.5259790000000  0.5873460000000 1.0
C      1  0.5619300000000  0.4552200000000  0.5231520000000 1.0
C      1  0.5295130000000  0.4817200000000  0.4262660000000 1.0
C      1  0.3957540000000  0.5293830000000  0.4418990000000 1.0
C      1  0.6187510000000  0.5021630000000  0.5009590000000 1.0
C      1  0.4292250000000  0.5354000000000  0.4925800000000 1.0
C      1  0.5228610000000  0.5142820000000  0.5208610000000 1.0
C      1  0.5742170000000  0.4411110000000  0.5512840000000 1.0
C      1  0.4527850000000  0.4439440000000  0.5805090000000 1.0
C      1  0.5718570000000  0.4199190000000  0.4381010000000 1.0
C      1  0.4162090000000  0.4919620000000  0.4292670000000 1.0
C      1  0.4793930000000  0.3766330000000  0.5561020000000 1.0
C      1  0.5112500000000  0.4837540000000  0.5303610000000 1.0
C      1  0.4738310000000  0.5509250000000  0.3804120000000 1.0
C      1  0.5699860000000  0.5024840000000  0.5838750000000 1.0
C      1  0.6434250000000  0.4714040000000  0.4651990000000 1.0
C      1  0.4984390000000  0.4831020000000  0.4673400000000 1.0
C      1  0.4537150000000  0.5391420000000  0.5135890000000 1.0
C      1  0.5107070000000  0.4122570000000  0.5420700000000 1.0
C      1  0.4345590000000  0.4065920000000  0.4721030000000 1.0
C      1  0.5198310000000  0.4448100000000  0.5439360000000 1.0
C      1  0.4070570000000  0.5592620000000  0.5305320000000 1.0
C      1  0.4859460000000  0.6087000000000  0.4972710000000 1.0
C      1  0.4960790000000  0.5290820000000  0.4229250000000 1.0
C      1  0.5761990000000  0.5734020000000  0.5528570000000 1.0
C      1  0.4621740000000  0.6133210000000  0.5176620000000 1.0
C      1  0.4297170000000  0.5093730000000  0.4483520000000 1.0
C      1  0.5489340000000  0.4171330000000  0.4916920000000 1.0
C      1  0.5237090000000  0.4394040000000  0.4521420000000 1.0
C      1  0.3792790000000  0.4677880000000  0.5377710000000 1.0
C      1  0.5208580000000  0.5968470000000  0.4810730000000 1.0
C      1  0.4391950000000  0.4532470000000  0.4253840000000 1.0
C      1  0.5953370000000  0.4577300000000  0.5173380000000 1.0
C      1  0.4383210000000  0.5925340000000  0.5123210000000 1.0
C      1  0.4029910000000  0.4860490000000  0.4664870000000 1.0
C      1  0.5410710000000  0.4785790000000  0.5363370000000 1.0
C      1  0.5809630000000  0.5877090000000  0.5303360000000 1.0
C      1  0.4242280000000  0.4832510000000  0.5075300000000 1.0
C      1  0.5383050000000  0.4674550000000  0.4907260000000 1.0
END
