TITL C-2847947-6848-278 0.00117394702955412 125000 -248.669352774214 0 0 46 (C1) n - 1
REM
REM in /home/bkarasulu/work/CARBON/AIRSS/Generating-Clusters/AIREBO/with-SteepDescent/Only-C1/SD-CG-opt/Try1-1.4A-POS3A/HFTN-CG
REM
REM
REM
REM
REM
REM ./C.cell (11c1c37f851c82e70ff6c80c92926a4b)
REM
REM compiler GCC version 9.2.1 20190827 (Red Hat 9.2.1-1)
REM options -cpp -mtune=generic -march=x86-64 -g -O0 -fpre-include=/usr/include/finclude/math-vector-fortran.h
REM seed 1730686908 1197568141 891444973 -471615067 2037511647 -2053374981 -815452365 -1933995989 1152372266 1615721082 -782250124 -860077724 -1219070732 -71161035 792417879 1529800959 283108423 1679312657 -2060977719 -51975234 -442087230 947776250 366630370 2032080965 1573117770 -809924631 1376152080 2025368275 1377174411 -1342405224 -53982638 -1134692021 2053236494
REM
CELL 1.54180   50.00000   50.00000   50.00000   90.00000   90.00000   90.00000
LATT -1
SFAC C  
C      1  0.5719380000000  0.5406000000000  0.5311170000000 1.0
C      1  0.5217740000000  0.4692560000000  0.4715130000000 1.0
C      1  0.4345300000000  0.5034470000000  0.5381800000000 1.0
C      1  0.5567460000000  0.5128030000000  0.5310390000000 1.0
C      1  0.4390450000000  0.4759920000000  0.5344400000000 1.0
C      1  0.5261840000000  0.4519030000000  0.4359250000000 1.0
C      1  0.4535860000000  0.4858100000000  0.4474250000000 1.0
C      1  0.4401420000000  0.5249410000000  0.4941470000000 1.0
C      1  0.4798600000000  0.4882520000000  0.5021350000000 1.0
C      1  0.4640160000000  0.5158900000000  0.5142210000000 1.0
C      1  0.5060870000000  0.4943390000000  0.5230680000000 1.0
C      1  0.5121530000000  0.5500020000000  0.5202190000000 1.0
C      1  0.5093120000000  0.5716330000000  0.4569680000000 1.0
C      1  0.5495390000000  0.4861420000000  0.5599440000000 1.0
C      1  0.5580480000000  0.4406110000000  0.4831340000000 1.0
C      1  0.5651080000000  0.5102920000000  0.5639110000000 1.0
C      1  0.4927030000000  0.4583460000000  0.4369270000000 1.0
C      1  0.4479370000000  0.5281580000000  0.4682310000000 1.0
C      1  0.5249050000000  0.5208150000000  0.5297840000000 1.0
C      1  0.4537380000000  0.5485750000000  0.5347720000000 1.0
C      1  0.4372960000000  0.5099660000000  0.4492170000000 1.0
C      1  0.5407500000000  0.4480170000000  0.4619590000000 1.0
C      1  0.4677890000000  0.5493610000000  0.5095640000000 1.0
C      1  0.4220290000000  0.5175200000000  0.5165510000000 1.0
C      1  0.5259960000000  0.4740850000000  0.5169830000000 1.0
C      1  0.4931320000000  0.5566730000000  0.5012080000000 1.0
C      1  0.5011050000000  0.4951330000000  0.5545180000000 1.0
C      1  0.4982900000000  0.5076780000000  0.4511870000000 1.0
C      1  0.5616610000000  0.5120880000000  0.4975830000000 1.0
C      1  0.4640850000000  0.4673120000000  0.4308880000000 1.0
C      1  0.4954170000000  0.5548340000000  0.4733330000000 1.0
C      1  0.5505210000000  0.5112160000000  0.4757310000000 1.0
C      1  0.5147330000000  0.4834670000000  0.4346830000000 1.0
C      1  0.5049300000000  0.5396440000000  0.5498900000000 1.0
C      1  0.5547860000000  0.4775690000000  0.5305700000000 1.0
C      1  0.5273590000000  0.4984970000000  0.4622820000000 1.0
C      1  0.4913390000000  0.4440880000000  0.4652890000000 1.0
C      1  0.5148840000000  0.4432060000000  0.5134640000000 1.0
C      1  0.4798090000000  0.5317840000000  0.4634860000000 1.0
C      1  0.4566690000000  0.4678680000000  0.5151070000000 1.0
C      1  0.4871290000000  0.5191330000000  0.5602810000000 1.0
C      1  0.4981620000000  0.4616670000000  0.4912850000000 1.0
C      1  0.4737470000000  0.4977040000000  0.4700140000000 1.0
C      1  0.5227770000000  0.4838090000000  0.5686090000000 1.0
C      1  0.5484220000000  0.4500100000000  0.5111690000000 1.0
C      1  0.4598310000000  0.5198640000000  0.5480480000000 1.0
END
