TITL C-2847950-6905-177 -0.00640873850837527 125000 -1030.56707897126 0 0 186 (C1) n - 1
REM
REM in /home/bkarasulu/work/CARBON/AIRSS/Generating-Clusters/AIREBO/with-SteepDescent/Only-C1/SD-CG-opt/Try1-1.4A-POS3A/HFTN-CG
REM
REM
REM
REM
REM
REM ./C.cell (11c1c37f851c82e70ff6c80c92926a4b)
REM
REM compiler GCC version 9.2.1 20190827 (Red Hat 9.2.1-1)
REM options -cpp -mtune=generic -march=x86-64 -g -O0 -fpre-include=/usr/include/finclude/math-vector-fortran.h
REM seed 1561232825 1149157279 257033739 628564132 -1075069938 -281492195 525374185 1234340075 -1893307638 -1351144124 -1511479770 -478545129 -519620063 459896857 298655978 1732946896 781485867 -764352298 -80185228 754792675 1758730421 372019603 -354561520 2037692485 499312828 -293477276 -120320418 -1934186104 659624736 71342685 661266351 794688265 1232522061
REM
CELL 1.54180   50.00000   50.00000   50.00000   90.00000   90.00000   90.00000
LATT -1
SFAC C  
C      1  0.5702780000000  0.4752330000000  0.5928600000000 1.0
C      1  0.4332580000000  0.5665470000000  0.5082160000000 1.0
C      1  0.5736550000000  0.5064140000000  0.4869000000000 1.0
C      1  0.4172180000000  0.5262500000000  0.5369690000000 1.0
C      1  0.5584680000000  0.4094020000000  0.5451940000000 1.0
C      1  0.5238300000000  0.4938430000000  0.5326600000000 1.0
C      1  0.4611230000000  0.5531200000000  0.5481410000000 1.0
C      1  0.5083660000000  0.5494260000000  0.5348800000000 1.0
C      1  0.4676200000000  0.4426490000000  0.4057260000000 1.0
C      1  0.4587420000000  0.3995740000000  0.5246480000000 1.0
C      1  0.5539030000000  0.4590690000000  0.4579010000000 1.0
C      1  0.5492090000000  0.4280180000000  0.5112390000000 1.0
C      1  0.4608640000000  0.5040670000000  0.5707100000000 1.0
C      1  0.4466350000000  0.4279630000000  0.5672290000000 1.0
C      1  0.5096580000000  0.4344080000000  0.5961110000000 1.0
C      1  0.5250040000000  0.4805610000000  0.5767530000000 1.0
C      1  0.4645460000000  0.5884500000000  0.4703390000000 1.0
C      1  0.4043310000000  0.5185370000000  0.5062650000000 1.0
C      1  0.4828730000000  0.3871850000000  0.5140720000000 1.0
C      1  0.4464890000000  0.5411990000000  0.4613180000000 1.0
C      1  0.4429190000000  0.4937810000000  0.4453960000000 1.0
C      1  0.5858890000000  0.5039520000000  0.5401940000000 1.0
C      1  0.4571260000000  0.4329250000000  0.4842200000000 1.0
C      1  0.4640230000000  0.5723500000000  0.5215420000000 1.0
C      1  0.5877780000000  0.4590500000000  0.4548820000000 1.0
C      1  0.4113940000000  0.5577150000000  0.4511070000000 1.0
C      1  0.5574790000000  0.5756740000000  0.4363920000000 1.0
C      1  0.4073780000000  0.5304950000000  0.4516110000000 1.0
C      1  0.5235780000000  0.5668290000000  0.4634490000000 1.0
C      1  0.4109170000000  0.5129020000000  0.5741400000000 1.0
C      1  0.4446750000000  0.5145460000000  0.5106120000000 1.0
C      1  0.5116850000000  0.5852990000000  0.4900840000000 1.0
C      1  0.4074930000000  0.4641700000000  0.5303760000000 1.0
C      1  0.3986920000000  0.5133670000000  0.4725510000000 1.0
C      1  0.5552310000000  0.5566120000000  0.5131640000000 1.0
C      1  0.5652510000000  0.5234260000000  0.5683110000000 1.0
C      1  0.4466890000000  0.4663060000000  0.5229060000000 1.0
C      1  0.3972230000000  0.4857820000000  0.4622750000000 1.0
C      1  0.4928030000000  0.4924300000000  0.5669730000000 1.0
C      1  0.4953490000000  0.4105030000000  0.5944560000000 1.0
C      1  0.5160220000000  0.4939200000000  0.4197360000000 1.0
C      1  0.5115240000000  0.5916100000000  0.4435220000000 1.0
C      1  0.4155100000000  0.4374820000000  0.5331020000000 1.0
C      1  0.4947430000000  0.5120320000000  0.4554010000000 1.0
C      1  0.5050180000000  0.6020760000000  0.5539760000000 1.0
C      1  0.5225610000000  0.4383180000000  0.4385770000000 1.0
C      1  0.4708130000000  0.4612480000000  0.5984750000000 1.0
C      1  0.4836640000000  0.5107030000000  0.5025500000000 1.0
C      1  0.4572870000000  0.4398740000000  0.5143930000000 1.0
C      1  0.4603620000000  0.5783180000000  0.4070510000000 1.0
C      1  0.5926220000000  0.5343880000000  0.5515180000000 1.0
C      1  0.5014280000000  0.5536890000000  0.5981910000000 1.0
C      1  0.4322090000000  0.4870500000000  0.5069610000000 1.0
C      1  0.5974000000000  0.4842720000000  0.4376040000000 1.0
C      1  0.6015590000000  0.4468870000000  0.5151140000000 1.0
C      1  0.5130060000000  0.4125990000000  0.4895150000000 1.0
C      1  0.4448930000000  0.5503830000000  0.5778920000000 1.0
C      1  0.4199000000000  0.4330740000000  0.5608220000000 1.0
C      1  0.4502620000000  0.5212560000000  0.5433370000000 1.0
C      1  0.6157890000000  0.4628370000000  0.5317060000000 1.0
C      1  0.4351230000000  0.4826270000000  0.5648240000000 1.0
C      1  0.4673880000000  0.4061500000000  0.4717390000000 1.0
C      1  0.4419980000000  0.5715730000000  0.4565400000000 1.0
C      1  0.5146230000000  0.5218640000000  0.4332190000000 1.0
C      1  0.4286050000000  0.5784980000000  0.5390050000000 1.0
C      1  0.5495680000000  0.4031360000000  0.4713970000000 1.0
C      1  0.5926750000000  0.5286380000000  0.4590140000000 1.0
C      1  0.4943200000000  0.5768870000000  0.5349830000000 1.0
C      1  0.4635680000000  0.4736580000000  0.4306160000000 1.0
C      1  0.4693130000000  0.5296840000000  0.4151580000000 1.0
C      1  0.4719710000000  0.4137160000000  0.4432300000000 1.0
C      1  0.5362510000000  0.4807070000000  0.4773100000000 1.0
C      1  0.4628130000000  0.4714970000000  0.5485250000000 1.0
C      1  0.5453510000000  0.4636800000000  0.5953010000000 1.0
C      1  0.4686560000000  0.4888970000000  0.4908880000000 1.0
C      1  0.6251690000000  0.4898420000000  0.5721150000000 1.0
C      1  0.5494500000000  0.5418370000000  0.5893570000000 1.0
C      1  0.5373130000000  0.5280820000000  0.5519810000000 1.0
C      1  0.5788260000000  0.5611550000000  0.4228280000000 1.0
C      1  0.5446140000000  0.3907270000000  0.5266740000000 1.0
C      1  0.5154190000000  0.5994230000000  0.5208310000000 1.0
C      1  0.5399440000000  0.4477240000000  0.4128640000000 1.0
C      1  0.4888570000000  0.6103150000000  0.4933260000000 1.0
C      1  0.5285700000000  0.5905730000000  0.5737090000000 1.0
C      1  0.5191240000000  0.4441060000000  0.4904320000000 1.0
C      1  0.3902030000000  0.4680360000000  0.4846890000000 1.0
C      1  0.5633940000000  0.4631320000000  0.5235970000000 1.0
C      1  0.5036580000000  0.5223070000000  0.5548530000000 1.0
C      1  0.5349340000000  0.5431010000000  0.4418720000000 1.0
C      1  0.4240710000000  0.5761620000000  0.4286070000000 1.0
C      1  0.5190320000000  0.4207350000000  0.5221250000000 1.0
C      1  0.5492480000000  0.5157430000000  0.3925200000000 1.0
C      1  0.5371670000000  0.5866930000000  0.5436700000000 1.0
C      1  0.4869210000000  0.4666990000000  0.4870470000000 1.0
C      1  0.5748990000000  0.4888700000000  0.4214060000000 1.0
C      1  0.4966570000000  0.4543910000000  0.5138230000000 1.0
C      1  0.3998660000000  0.4857650000000  0.5084620000000 1.0
C      1  0.5618200000000  0.5778270000000  0.4964310000000 1.0
C      1  0.4036420000000  0.5508160000000  0.5087470000000 1.0
C      1  0.5799760000000  0.4779630000000  0.5023320000000 1.0
C      1  0.5034160000000  0.4427590000000  0.5514450000000 1.0
C      1  0.4150570000000  0.4583850000000  0.5751450000000 1.0
C      1  0.5163470000000  0.5166280000000  0.5091430000000 1.0
C      1  0.4287010000000  0.4423030000000  0.4492180000000 1.0
C      1  0.5935020000000  0.5485640000000  0.5062910000000 1.0
C      1  0.4778940000000  0.5337840000000  0.4837370000000 1.0
C      1  0.4671520000000  0.4823500000000  0.4038280000000 1.0
C      1  0.5261520000000  0.5328080000000  0.6066210000000 1.0
C      1  0.5343620000000  0.5122540000000  0.4858110000000 1.0
C      1  0.4938780000000  0.5581280000000  0.4313030000000 1.0
C      1  0.5436760000000  0.5356340000000  0.4098430000000 1.0
C      1  0.5204350000000  0.4704450000000  0.4392790000000 1.0
C      1  0.4874350000000  0.3947840000000  0.4868510000000 1.0
C      1  0.4212740000000  0.4588050000000  0.4793320000000 1.0
C      1  0.5841470000000  0.5511290000000  0.4769760000000 1.0
C      1  0.5983250000000  0.4582400000000  0.4832100000000 1.0
C      1  0.5663860000000  0.5372520000000  0.4425560000000 1.0
C      1  0.4812030000000  0.5188040000000  0.5311630000000 1.0
C      1  0.5253610000000  0.4639330000000  0.3949790000000 1.0
C      1  0.4557770000000  0.5061770000000  0.3972900000000 1.0
C      1  0.5671420000000  0.4481870000000  0.4285310000000 1.0
C      1  0.4883160000000  0.4728490000000  0.4477810000000 1.0
C      1  0.4683380000000  0.5592640000000  0.5982950000000 1.0
C      1  0.5570530000000  0.5105220000000  0.4606790000000 1.0
C      1  0.4877000000000  0.6074890000000  0.4592920000000 1.0
C      1  0.4660070000000  0.4651210000000  0.6245990000000 1.0
C      1  0.4361950000000  0.5214710000000  0.5817940000000 1.0
C      1  0.5322210000000  0.5790720000000  0.4246860000000 1.0
C      1  0.4420800000000  0.4838450000000  0.4762310000000 1.0
C      1  0.4800140000000  0.4452770000000  0.4661820000000 1.0
C      1  0.4492820000000  0.5535470000000  0.4055300000000 1.0
C      1  0.4160630000000  0.4733700000000  0.4427170000000 1.0
C      1  0.4224800000000  0.5940870000000  0.4932280000000 1.0
C      1  0.5167320000000  0.5544700000000  0.4082930000000 1.0
C      1  0.5389380000000  0.5577510000000  0.5373380000000 1.0
C      1  0.4448680000000  0.6036720000000  0.5371370000000 1.0
C      1  0.5105840000000  0.3892970000000  0.5274770000000 1.0
C      1  0.5354180000000  0.4919980000000  0.3850700000000 1.0
C      1  0.4312290000000  0.5247630000000  0.4054810000000 1.0
C      1  0.4974720000000  0.4606680000000  0.5782740000000 1.0
C      1  0.6029230000000  0.5513440000000  0.5329400000000 1.0
C      1  0.5767760000000  0.4323140000000  0.5288580000000 1.0
C      1  0.4475130000000  0.5395080000000  0.4932460000000 1.0
C      1  0.5008060000000  0.5466230000000  0.5041900000000 1.0
C      1  0.5496480000000  0.4878930000000  0.4403720000000 1.0
C      1  0.4219040000000  0.5550830000000  0.5545300000000 1.0
C      1  0.5020710000000  0.4958260000000  0.3899270000000 1.0
C      1  0.4638970000000  0.5205420000000  0.4454570000000 1.0
C      1  0.6085820000000  0.5082860000000  0.4476860000000 1.0
C      1  0.4913950000000  0.4636440000000  0.3933360000000 1.0
C      1  0.4554780000000  0.4337280000000  0.4300630000000 1.0
C      1  0.5059830000000  0.4878560000000  0.4722080000000 1.0
C      1  0.5689240000000  0.4896870000000  0.5657100000000 1.0
C      1  0.4258340000000  0.4263560000000  0.4791270000000 1.0
C      1  0.5572850000000  0.5696180000000  0.4671180000000 1.0
C      1  0.5390890000000  0.4316090000000  0.4659060000000 1.0
C      1  0.4376100000000  0.6056300000000  0.4766250000000 1.0
C      1  0.4607980000000  0.4713690000000  0.6495090000000 1.0
C      1  0.4807550000000  0.5716080000000  0.4926270000000 1.0
C      1  0.5730220000000  0.6023820000000  0.5013260000000 1.0
C      1  0.4588620000000  0.4519730000000  0.5735950000000 1.0
C      1  0.4796580000000  0.5879300000000  0.4322490000000 1.0
C      1  0.4655530000000  0.4098860000000  0.5535740000000 1.0
C      1  0.5674450000000  0.5283210000000  0.5077710000000 1.0
C      1  0.5460590000000  0.4581160000000  0.4970690000000 1.0
C      1  0.4839060000000  0.5442210000000  0.5717590000000 1.0
C      1  0.5474960000000  0.4230570000000  0.5694400000000 1.0
C      1  0.5524860000000  0.3990240000000  0.4979350000000 1.0
C      1  0.4104350000000  0.4941900000000  0.5460720000000 1.0
C      1  0.5441600000000  0.4726270000000  0.5497920000000 1.0
C      1  0.5299450000000  0.5679320000000  0.5889500000000 1.0
C      1  0.5334910000000  0.4405650000000  0.5457190000000 1.0
C      1  0.4326800000000  0.4174820000000  0.5115800000000 1.0
C      1  0.4217900000000  0.5165060000000  0.4314960000000 1.0
C      1  0.5995060000000  0.5036500000000  0.5090580000000 1.0
C      1  0.5011760000000  0.4226120000000  0.4584420000000 1.0
C      1  0.6189030000000  0.4820790000000  0.4963220000000 1.0
C      1  0.4971880000000  0.5456320000000  0.4600440000000 1.0
C      1  0.5380340000000  0.4360450000000  0.5931540000000 1.0
C      1  0.4980740000000  0.5261950000000  0.4052970000000 1.0
C      1  0.6118150000000  0.4844500000000  0.5488600000000 1.0
C      1  0.4937400000000  0.4783160000000  0.5360410000000 1.0
C      1  0.4836270000000  0.3961620000000  0.5743120000000 1.0
C      1  0.5538860000000  0.5096690000000  0.5301980000000 1.0
C      1  0.4694060000000  0.6054850000000  0.5160850000000 1.0
C      1  0.4805640000000  0.4318040000000  0.5335220000000 1.0
END
