TITL C-2848508-1660-536 0.000771560709041126 125000 -208.299497827248 0 0 44 (C1) n - 1
REM
REM in /home/bkarasulu/work/CARBON/AIRSS/Generating-Clusters/AIREBO/with-SteepDescent/Only-C1/SD-CG-opt/Try1-1.4A-POS3A/HFTN-CG
REM
REM
REM
REM
REM
REM ./C.cell (11c1c37f851c82e70ff6c80c92926a4b)
REM
REM compiler GCC version 9.2.1 20190827 (Red Hat 9.2.1-1)
REM options -cpp -mtune=generic -march=x86-64 -g -O0 -fpre-include=/usr/include/finclude/math-vector-fortran.h
REM seed -1935088259 1780402688 -216708188 -1679817855 -1480829564 -1391746241 -1633260378 -306167868 -642515315 809983730 -732765965 -1336337872 -421910299 1816245033 1361603475 1719797003 1583857175 -1217097071 -1710711199 -374769531 743581951 -1003128801 -559482477 -819966511 1321205869 1939880431 -1558323095 -1805149324 -724677268 1957908580 -1147796866 -721883082 -586434572
REM
CELL 1.54180   50.00000   50.00000   50.00000   90.00000   90.00000   90.00000
LATT -1
SFAC C  
C      1  0.4663090000000  0.4841140000000  0.5020380000000 1.0
C      1  0.5188170000000  0.5427660000000  0.4626400000000 1.0
C      1  0.4267650000000  0.5225930000000  0.4935700000000 1.0
C      1  0.5242840000000  0.4590810000000  0.5363900000000 1.0
C      1  0.4912670000000  0.5235710000000  0.5322020000000 1.0
C      1  0.5680140000000  0.5566060000000  0.4644150000000 1.0
C      1  0.4726700000000  0.5228340000000  0.4564890000000 1.0
C      1  0.4711250000000  0.5500150000000  0.5250450000000 1.0
C      1  0.4818380000000  0.4200170000000  0.5572860000000 1.0
C      1  0.5516510000000  0.5392900000000  0.5081640000000 1.0
C      1  0.5077570000000  0.4574330000000  0.4813870000000 1.0
C      1  0.5028030000000  0.4353220000000  0.5352260000000 1.0
C      1  0.5534740000000  0.5168620000000  0.5297100000000 1.0
C      1  0.4934170000000  0.5296100000000  0.4996910000000 1.0
C      1  0.5105870000000  0.4889740000000  0.5344280000000 1.0
C      1  0.5228290000000  0.5191060000000  0.5443440000000 1.0
C      1  0.4519150000000  0.5413290000000  0.5010740000000 1.0
C      1  0.5055260000000  0.5562480000000  0.5142260000000 1.0
C      1  0.4799690000000  0.5694420000000  0.4982210000000 1.0
C      1  0.4348320000000  0.4768070000000  0.5126370000000 1.0
C      1  0.5554990000000  0.4631050000000  0.5427940000000 1.0
C      1  0.5291200000000  0.5478270000000  0.5275990000000 1.0
C      1  0.4587420000000  0.4523750000000  0.5116470000000 1.0
C      1  0.5002510000000  0.4648730000000  0.4490670000000 1.0
C      1  0.5531150000000  0.4706500000000  0.5112320000000 1.0
C      1  0.5457240000000  0.5097930000000  0.4678760000000 1.0
C      1  0.4578910000000  0.4337230000000  0.4849110000000 1.0
C      1  0.5030650000000  0.5222020000000  0.4387710000000 1.0
C      1  0.4566120000000  0.5115820000000  0.4842760000000 1.0
C      1  0.5268230000000  0.4838680000000  0.4715920000000 1.0
C      1  0.4771930000000  0.4935960000000  0.5328370000000 1.0
C      1  0.4581890000000  0.4894220000000  0.5559650000000 1.0
C      1  0.5171160000000  0.4438200000000  0.5066860000000 1.0
C      1  0.4671400000000  0.5513290000000  0.4724620000000 1.0
C      1  0.5126820000000  0.4915370000000  0.4416330000000 1.0
C      1  0.5661740000000  0.4920370000000  0.5310430000000 1.0
C      1  0.4981000000000  0.5647380000000  0.4696470000000 1.0
C      1  0.4608310000000  0.4676640000000  0.4503420000000 1.0
C      1  0.4744100000000  0.4614480000000  0.4760250000000 1.0
C      1  0.5263510000000  0.4835400000000  0.5051130000000 1.0
C      1  0.5019190000000  0.5150510000000  0.4719900000000 1.0
C      1  0.5483670000000  0.5409750000000  0.4769490000000 1.0
C      1  0.4980360000000  0.4948130000000  0.4969660000000 1.0
C      1  0.4708060000000  0.4380070000000  0.5333950000000 1.0
END
