TITL C-2847948-6138-220 -0.00340318162207894 125000 -807.96770412066 0 0 150 (C1) n - 1
REM
REM in /home/bkarasulu/work/CARBON/AIRSS/Generating-Clusters/AIREBO/with-SteepDescent/Only-C1/SD-CG-opt/Try1-1.4A-POS3A/HFTN-CG
REM
REM
REM
REM
REM
REM ./C.cell (11c1c37f851c82e70ff6c80c92926a4b)
REM
REM compiler GCC version 9.2.1 20190827 (Red Hat 9.2.1-1)
REM options -cpp -mtune=generic -march=x86-64 -g -O0 -fpre-include=/usr/include/finclude/math-vector-fortran.h
REM seed 260298868 857757339 1350328560 889440905 -23583521 2003899626 1533012374 -909527574 1528542690 878716185 1170407358 -447521800 -688675658 1599659824 -1620366679 -1121730596 1821965123 -560096993 1493294849 -243515352 46788059 -1653803991 -1505460929 28950131 -53640951 1887132577 -4993870 -2015823619 1167917665 -766510459 1290191247 -1335371821 -1744622652
REM
CELL 1.54180   50.00000   50.00000   50.00000   90.00000   90.00000   90.00000
LATT -1
SFAC C  
C      1  0.5395100000000  0.4745080000000  0.5146430000000 1.0
C      1  0.5082490000000  0.4282050000000  0.5588220000000 1.0
C      1  0.5228620000000  0.4473890000000  0.4912030000000 1.0
C      1  0.4355260000000  0.5314380000000  0.4264680000000 1.0
C      1  0.5695410000000  0.4399360000000  0.4467160000000 1.0
C      1  0.5817880000000  0.5466710000000  0.4572330000000 1.0
C      1  0.4901160000000  0.5020450000000  0.5299040000000 1.0
C      1  0.5895470000000  0.4548030000000  0.5482520000000 1.0
C      1  0.5561240000000  0.5653470000000  0.4526270000000 1.0
C      1  0.4951710000000  0.5222630000000  0.6035010000000 1.0
C      1  0.4546620000000  0.4417750000000  0.5701830000000 1.0
C      1  0.4681340000000  0.4839390000000  0.4273130000000 1.0
C      1  0.4573800000000  0.5299570000000  0.5183900000000 1.0
C      1  0.4334540000000  0.4382240000000  0.4895520000000 1.0
C      1  0.4957050000000  0.4033880000000  0.5479150000000 1.0
C      1  0.4565550000000  0.4059150000000  0.4888640000000 1.0
C      1  0.5616410000000  0.5865720000000  0.5270750000000 1.0
C      1  0.4856290000000  0.5467980000000  0.5245160000000 1.0
C      1  0.4637730000000  0.4617140000000  0.5204210000000 1.0
C      1  0.5336510000000  0.5863300000000  0.4686780000000 1.0
C      1  0.4903000000000  0.4032100000000  0.5216060000000 1.0
C      1  0.5991670000000  0.5152510000000  0.5296720000000 1.0
C      1  0.5608910000000  0.4309990000000  0.4783890000000 1.0
C      1  0.4857520000000  0.5680960000000  0.4369600000000 1.0
C      1  0.5480960000000  0.4967810000000  0.4489230000000 1.0
C      1  0.4742490000000  0.5581890000000  0.4957790000000 1.0
C      1  0.4106460000000  0.5008440000000  0.5567100000000 1.0
C      1  0.4385890000000  0.4196680000000  0.4633840000000 1.0
C      1  0.4225010000000  0.5133750000000  0.4633050000000 1.0
C      1  0.4691040000000  0.4442240000000  0.4300620000000 1.0
C      1  0.4724900000000  0.5880760000000  0.5221730000000 1.0
C      1  0.4094300000000  0.4952950000000  0.4889660000000 1.0
C      1  0.4611680000000  0.5407740000000  0.4213910000000 1.0
C      1  0.5106410000000  0.4765340000000  0.4982380000000 1.0
C      1  0.5076230000000  0.5293130000000  0.4140550000000 1.0
C      1  0.5595180000000  0.4408760000000  0.5422680000000 1.0
C      1  0.3940510000000  0.5415760000000  0.4901670000000 1.0
C      1  0.4389820000000  0.4702760000000  0.4324950000000 1.0
C      1  0.4395620000000  0.5705460000000  0.4562860000000 1.0
C      1  0.4960580000000  0.5826800000000  0.5383300000000 1.0
C      1  0.4649500000000  0.5002570000000  0.5101560000000 1.0
C      1  0.4634650000000  0.5835970000000  0.4465380000000 1.0
C      1  0.4536700000000  0.5228880000000  0.4639440000000 1.0
C      1  0.4429840000000  0.4636020000000  0.5472740000000 1.0
C      1  0.5396430000000  0.5260950000000  0.4181520000000 1.0
C      1  0.4499360000000  0.4568920000000  0.4713750000000 1.0
C      1  0.4431100000000  0.5683290000000  0.4869500000000 1.0
C      1  0.5488380000000  0.4002810000000  0.4868070000000 1.0
C      1  0.5147480000000  0.5630580000000  0.5177740000000 1.0
C      1  0.5698790000000  0.4708890000000  0.5182040000000 1.0
C      1  0.5519230000000  0.5029460000000  0.5030580000000 1.0
C      1  0.5247540000000  0.5340180000000  0.5619880000000 1.0
C      1  0.4864360000000  0.4138220000000  0.4665780000000 1.0
C      1  0.5207370000000  0.3990470000000  0.4960530000000 1.0
C      1  0.5314710000000  0.5926730000000  0.5184110000000 1.0
C      1  0.4178700000000  0.5321930000000  0.5126000000000 1.0
C      1  0.4125600000000  0.4872620000000  0.4438840000000 1.0
C      1  0.5322550000000  0.5074200000000  0.5471840000000 1.0
C      1  0.4383520000000  0.4832860000000  0.5135830000000 1.0
C      1  0.5590820000000  0.4678650000000  0.4630510000000 1.0
C      1  0.4104950000000  0.4956140000000  0.5288930000000 1.0
C      1  0.4032640000000  0.5384130000000  0.4637190000000 1.0
C      1  0.5713590000000  0.4046770000000  0.5059260000000 1.0
C      1  0.5533840000000  0.5905460000000  0.4942890000000 1.0
C      1  0.4709920000000  0.4361110000000  0.5417490000000 1.0
C      1  0.5659510000000  0.5235500000000  0.4378960000000 1.0
C      1  0.5713580000000  0.4376670000000  0.5105200000000 1.0
C      1  0.5328100000000  0.5565080000000  0.5458320000000 1.0
C      1  0.4453550000000  0.4947040000000  0.6019030000000 1.0
C      1  0.4714990000000  0.6036910000000  0.4654090000000 1.0
C      1  0.4277730000000  0.4453280000000  0.5223380000000 1.0
C      1  0.5290840000000  0.5404550000000  0.4967870000000 1.0
C      1  0.4811080000000  0.4473010000000  0.4617360000000 1.0
C      1  0.5995630000000  0.5447190000000  0.5124780000000 1.0
C      1  0.4816090000000  0.5911040000000  0.4914400000000 1.0
C      1  0.4946440000000  0.5051090000000  0.4281960000000 1.0
C      1  0.5003570000000  0.5162330000000  0.5717140000000 1.0
C      1  0.3905260000000  0.5133130000000  0.5078210000000 1.0
C      1  0.5314660000000  0.5540930000000  0.4343300000000 1.0
C      1  0.5303620000000  0.4656730000000  0.4295420000000 1.0
C      1  0.5322100000000  0.4805910000000  0.5666860000000 1.0
C      1  0.4765470000000  0.4950780000000  0.4803250000000 1.0
C      1  0.5263380000000  0.4247770000000  0.5089670000000 1.0
C      1  0.5091040000000  0.4364500000000  0.4457500000000 1.0
C      1  0.5122260000000  0.5252030000000  0.4603930000000 1.0
C      1  0.5154820000000  0.4881240000000  0.4447480000000 1.0
C      1  0.4534850000000  0.5719660000000  0.5533490000000 1.0
C      1  0.5893800000000  0.5557590000000  0.4885480000000 1.0
C      1  0.4497360000000  0.4943050000000  0.5607250000000 1.0
C      1  0.5525750000000  0.4873950000000  0.5872850000000 1.0
C      1  0.4321980000000  0.5234460000000  0.5613710000000 1.0
C      1  0.4817350000000  0.5290450000000  0.4457170000000 1.0
C      1  0.4406320000000  0.5371890000000  0.4908330000000 1.0
C      1  0.4228520000000  0.5499880000000  0.4450280000000 1.0
C      1  0.5419950000000  0.5177110000000  0.4750410000000 1.0
C      1  0.5560210000000  0.5580250000000  0.4856280000000 1.0
C      1  0.5283760000000  0.4484050000000  0.5307790000000 1.0
C      1  0.5889660000000  0.4779000000000  0.4660880000000 1.0
C      1  0.5758660000000  0.5203570000000  0.4763190000000 1.0
C      1  0.6025760000000  0.4615630000000  0.5178170000000 1.0
C      1  0.5903210000000  0.5036260000000  0.4507640000000 1.0
C      1  0.5059430000000  0.5087370000000  0.4894810000000 1.0
C      1  0.4104610000000  0.4663030000000  0.5040860000000 1.0
C      1  0.5164570000000  0.5649910000000  0.5858660000000 1.0
C      1  0.5786180000000  0.5003990000000  0.5756430000000 1.0
C      1  0.4596310000000  0.4704280000000  0.5828530000000 1.0
C      1  0.5259560000000  0.5349040000000  0.5959600000000 1.0
C      1  0.5160690000000  0.5186580000000  0.5194730000000 1.0
C      1  0.4330550000000  0.5034390000000  0.4240000000000 1.0
C      1  0.4793110000000  0.5294640000000  0.4852900000000 1.0
C      1  0.4846370000000  0.4581690000000  0.4937860000000 1.0
C      1  0.4502100000000  0.4198560000000  0.5202800000000 1.0
C      1  0.5595050000000  0.5114500000000  0.5325790000000 1.0
C      1  0.4788570000000  0.4947470000000  0.6078330000000 1.0
C      1  0.5402660000000  0.4345790000000  0.5663120000000 1.0
C      1  0.4987220000000  0.4557880000000  0.5420050000000 1.0
C      1  0.4825160000000  0.4644410000000  0.4062380000000 1.0
C      1  0.4730890000000  0.5146680000000  0.5536710000000 1.0
C      1  0.5601080000000  0.5630590000000  0.5423080000000 1.0
C      1  0.5992030000000  0.4789430000000  0.4926760000000 1.0
C      1  0.5592420000000  0.4586590000000  0.4244300000000 1.0
C      1  0.4848590000000  0.4795820000000  0.4567410000000 1.0
C      1  0.5338000000000  0.4448950000000  0.4632560000000 1.0
C      1  0.5325650000000  0.4980450000000  0.4001260000000 1.0
C      1  0.4772500000000  0.5482200000000  0.5574490000000 1.0
C      1  0.4995970000000  0.4850540000000  0.5581650000000 1.0
C      1  0.4450320000000  0.5684560000000  0.5210820000000 1.0
C      1  0.4708240000000  0.5371780000000  0.5884360000000 1.0
C      1  0.4403580000000  0.4365870000000  0.4384860000000 1.0
C      1  0.4338600000000  0.5411160000000  0.5379970000000 1.0
C      1  0.4157420000000  0.4958880000000  0.5852310000000 1.0
C      1  0.4892160000000  0.5503690000000  0.4127570000000 1.0
C      1  0.5071880000000  0.5581600000000  0.4578000000000 1.0
C      1  0.4468320000000  0.5232000000000  0.5882050000000 1.0
C      1  0.4909530000000  0.4722890000000  0.5891980000000 1.0
C      1  0.5120430000000  0.4783460000000  0.3966950000000 1.0
C      1  0.5098700000000  0.4484400000000  0.4141810000000 1.0
C      1  0.5828980000000  0.4889950000000  0.5438910000000 1.0
C      1  0.4773420000000  0.4286070000000  0.5030760000000 1.0
C      1  0.5034800000000  0.4044390000000  0.4423000000000 1.0
C      1  0.5769060000000  0.5402420000000  0.5356740000000 1.0
C      1  0.5089170000000  0.5754380000000  0.4866230000000 1.0
C      1  0.5264650000000  0.5869400000000  0.4379370000000 1.0
C      1  0.5152030000000  0.4543160000000  0.5783330000000 1.0
C      1  0.5003110000000  0.5708950000000  0.5653490000000 1.0
C      1  0.4266830000000  0.4744120000000  0.4702160000000 1.0
C      1  0.5519690000000  0.5184890000000  0.5866340000000 1.0
C      1  0.5861320000000  0.5047280000000  0.5022770000000 1.0
C      1  0.4878320000000  0.3925030000000  0.4904760000000 1.0
C      1  0.5579330000000  0.4905530000000  0.4169600000000 1.0
END
