TITL C-2848505-4874-234 0.00174426763195364 125000 -234.734096399325 0 0 41 (C1) n - 1
REM
REM in /home/bkarasulu/work/CARBON/AIRSS/Generating-Clusters/AIREBO/with-SteepDescent/Only-C1/SD-CG-opt/Try1-1.4A-POS3A/HFTN-CG
REM
REM
REM
REM
REM
REM ./C.cell (11c1c37f851c82e70ff6c80c92926a4b)
REM
REM compiler GCC version 9.2.1 20190827 (Red Hat 9.2.1-1)
REM options -cpp -mtune=generic -march=x86-64 -g -O0 -fpre-include=/usr/include/finclude/math-vector-fortran.h
REM seed -1742380285 -337365729 -1244674531 -1948673024 -1263694989 -600328952 -1870933952 841831951 -582905814 -1744882470 675254459 -354889676 438988726 497404553 698497943 1220053687 1824309321 1290458581 -248058052 -1549882820 1042905939 -850065613 424113336 -480392014 -1011692906 347905638 -180135846 -2009054052 1547050992 2091416417 -53392181 -784216258 -849469981
REM
CELL 1.54180   50.00000   50.00000   50.00000   90.00000   90.00000   90.00000
LATT -1
SFAC C  
C      1  0.5114130000000  0.6026880000000  0.4678750000000 1.0
C      1  0.4310060000000  0.4895480000000  0.5005610000000 1.0
C      1  0.5668610000000  0.4515890000000  0.5425170000000 1.0
C      1  0.4916260000000  0.4904910000000  0.5386860000000 1.0
C      1  0.4975120000000  0.5201100000000  0.5815720000000 1.0
C      1  0.4363470000000  0.4701220000000  0.4803270000000 1.0
C      1  0.5156660000000  0.4258960000000  0.5033520000000 1.0
C      1  0.4660710000000  0.5546910000000  0.5633480000000 1.0
C      1  0.4746780000000  0.4922880000000  0.5179770000000 1.0
C      1  0.4741740000000  0.4363040000000  0.4742950000000 1.0
C      1  0.5188350000000  0.5782290000000  0.4782240000000 1.0
C      1  0.5070130000000  0.5025220000000  0.5632930000000 1.0
C      1  0.5240100000000  0.6160010000000  0.4482730000000 1.0
C      1  0.4594580000000  0.5532770000000  0.5361270000000 1.0
C      1  0.4804110000000  0.4781280000000  0.4943540000000 1.0
C      1  0.5241920000000  0.4329100000000  0.5275840000000 1.0
C      1  0.4772870000000  0.6363610000000  0.4769440000000 1.0
C      1  0.5313200000000  0.4695380000000  0.4429450000000 1.0
C      1  0.4882810000000  0.4137860000000  0.4922690000000 1.0
C      1  0.5273160000000  0.4365650000000  0.4502750000000 1.0
C      1  0.5458180000000  0.4841540000000  0.4680920000000 1.0
C      1  0.5342090000000  0.5251840000000  0.4910090000000 1.0
C      1  0.5411890000000  0.4983080000000  0.4912110000000 1.0
C      1  0.5222840000000  0.5490940000000  0.4898870000000 1.0
C      1  0.5548550000000  0.4540020000000  0.4598150000000 1.0
C      1  0.4465460000000  0.5301210000000  0.5271210000000 1.0
C      1  0.4181010000000  0.4624520000000  0.4621090000000 1.0
C      1  0.5039150000000  0.5705590000000  0.5074720000000 1.0
C      1  0.4807220000000  0.5943010000000  0.5008720000000 1.0
C      1  0.5076490000000  0.4310180000000  0.4704710000000 1.0
C      1  0.5236230000000  0.4832200000000  0.5425260000000 1.0
C      1  0.5321160000000  0.3996670000000  0.4089060000000 1.0
C      1  0.4886270000000  0.6125020000000  0.4816650000000 1.0
C      1  0.4629820000000  0.4604290000000  0.4808570000000 1.0
C      1  0.5180630000000  0.4173440000000  0.5494800000000 1.0
C      1  0.5387650000000  0.4843140000000  0.5137930000000 1.0
C      1  0.4490520000000  0.5045730000000  0.5164870000000 1.0
C      1  0.5292740000000  0.4174310000000  0.4270110000000 1.0
C      1  0.5413260000000  0.4568650000000  0.5326500000000 1.0
C      1  0.4850360000000  0.5442280000000  0.5797870000000 1.0
C      1  0.4723710000000  0.5691900000000  0.5179790000000 1.0
END
