TITL C-2848504-8560-576 0.000367602661014828 125000 -751.833814848438 0 0 137 (C1) n - 1
REM
REM in /home/bkarasulu/work/CARBON/AIRSS/Generating-Clusters/AIREBO/with-SteepDescent/Only-C1/SD-CG-opt/Try1-1.4A-POS3A/HFTN-CG
REM
REM
REM
REM
REM
REM ./C.cell (11c1c37f851c82e70ff6c80c92926a4b)
REM
REM compiler GCC version 9.2.1 20190827 (Red Hat 9.2.1-1)
REM options -cpp -mtune=generic -march=x86-64 -g -O0 -fpre-include=/usr/include/finclude/math-vector-fortran.h
REM seed -792729017 -1535872883 -2021163341 718753139 -1235278028 -736451143 1632122795 851468204 49532722 124259355 952273097 836668680 2047682735 1688158440 1707243826 -1159806007 538809899 -1090235061 287370457 -1376516069 1149273104 -1785514083 786480878 1433911433 -1930678210 1935450460 -1375951302 -524314147 -575802060 -109621634 333918445 1698427884 -553325516
REM
CELL 1.54180   50.00000   50.00000   50.00000   90.00000   90.00000   90.00000
LATT -1
SFAC C  
C      1  0.4395380000000  0.5590890000000  0.4467850000000 1.0
C      1  0.5596380000000  0.5183120000000  0.5877500000000 1.0
C      1  0.4298780000000  0.4710030000000  0.5505180000000 1.0
C      1  0.5117310000000  0.5092690000000  0.4796760000000 1.0
C      1  0.4717710000000  0.4794780000000  0.6171920000000 1.0
C      1  0.5238850000000  0.4748020000000  0.4300650000000 1.0
C      1  0.4211170000000  0.5166290000000  0.4196590000000 1.0
C      1  0.5525300000000  0.5403180000000  0.4406170000000 1.0
C      1  0.3961740000000  0.4706080000000  0.4826560000000 1.0
C      1  0.4509980000000  0.5371810000000  0.4985600000000 1.0
C      1  0.3988080000000  0.5141280000000  0.5174040000000 1.0
C      1  0.5481140000000  0.4074460000000  0.5215150000000 1.0
C      1  0.5021950000000  0.5483280000000  0.4947960000000 1.0
C      1  0.5384440000000  0.5214100000000  0.5612380000000 1.0
C      1  0.4650630000000  0.4336160000000  0.4779550000000 1.0
C      1  0.5369390000000  0.5021270000000  0.5013460000000 1.0
C      1  0.5537260000000  0.4800250000000  0.5210150000000 1.0
C      1  0.5065160000000  0.4019700000000  0.4949740000000 1.0
C      1  0.5962200000000  0.4957580000000  0.4986540000000 1.0
C      1  0.4466940000000  0.5097930000000  0.5140740000000 1.0
C      1  0.4776100000000  0.4533380000000  0.4048840000000 1.0
C      1  0.4538930000000  0.4566500000000  0.5492680000000 1.0
C      1  0.4614880000000  0.4813220000000  0.5857040000000 1.0
C      1  0.4089730000000  0.5239150000000  0.4717580000000 1.0
C      1  0.4407060000000  0.4167330000000  0.4915710000000 1.0
C      1  0.4491660000000  0.4509760000000  0.5101350000000 1.0
C      1  0.4261690000000  0.5523690000000  0.5399830000000 1.0
C      1  0.4814560000000  0.5849430000000  0.5714310000000 1.0
C      1  0.5195020000000  0.4447700000000  0.4336260000000 1.0
C      1  0.5306600000000  0.5347790000000  0.5084810000000 1.0
C      1  0.4071040000000  0.4922570000000  0.4653910000000 1.0
C      1  0.4681820000000  0.5088020000000  0.4727160000000 1.0
C      1  0.5802850000000  0.5725670000000  0.5044220000000 1.0
C      1  0.5647210000000  0.4744510000000  0.5519750000000 1.0
C      1  0.5280460000000  0.5083910000000  0.4267800000000 1.0
C      1  0.5879940000000  0.4620720000000  0.5304940000000 1.0
C      1  0.5335560000000  0.5672250000000  0.5105530000000 1.0
C      1  0.5306560000000  0.4633260000000  0.4787740000000 1.0
C      1  0.4685000000000  0.5057690000000  0.5526710000000 1.0
C      1  0.4813470000000  0.4906030000000  0.4496960000000 1.0
C      1  0.5175210000000  0.5263850000000  0.4536720000000 1.0
C      1  0.5396050000000  0.4357790000000  0.5714580000000 1.0
C      1  0.5603780000000  0.5413900000000  0.5468070000000 1.0
C      1  0.5678850000000  0.4221380000000  0.5047680000000 1.0
C      1  0.5829170000000  0.5423730000000  0.4553830000000 1.0
C      1  0.4782420000000  0.5432170000000  0.5163350000000 1.0
C      1  0.5301380000000  0.4944440000000  0.5474390000000 1.0
C      1  0.5579050000000  0.5803160000000  0.5212670000000 1.0
C      1  0.5098540000000  0.4875610000000  0.4555480000000 1.0
C      1  0.4376880000000  0.5078960000000  0.4630730000000 1.0
C      1  0.4492580000000  0.4302600000000  0.5371220000000 1.0
C      1  0.4717720000000  0.4915130000000  0.5017940000000 1.0
C      1  0.5491070000000  0.5685940000000  0.5473120000000 1.0
C      1  0.4238010000000  0.4396240000000  0.4737320000000 1.0
C      1  0.4774280000000  0.4778760000000  0.3991380000000 1.0
C      1  0.4428610000000  0.5397290000000  0.4250510000000 1.0
C      1  0.4615910000000  0.5790430000000  0.5258030000000 1.0
C      1  0.5371760000000  0.4227820000000  0.5465370000000 1.0
C      1  0.5617570000000  0.5131850000000  0.4827550000000 1.0
C      1  0.3961210000000  0.5331740000000  0.4975020000000 1.0
C      1  0.4888490000000  0.5889570000000  0.5243770000000 1.0
C      1  0.6061600000000  0.4482170000000  0.4863290000000 1.0
C      1  0.4468100000000  0.5007780000000  0.4326790000000 1.0
C      1  0.4697870000000  0.5316280000000  0.4211240000000 1.0
C      1  0.4767230000000  0.5081260000000  0.5989640000000 1.0
C      1  0.5691840000000  0.4410710000000  0.4550330000000 1.0
C      1  0.5472800000000  0.5672910000000  0.4703870000000 1.0
C      1  0.5814170000000  0.4673680000000  0.4730200000000 1.0
C      1  0.4814570000000  0.4425960000000  0.5171300000000 1.0
C      1  0.5242100000000  0.5494090000000  0.4239450000000 1.0
C      1  0.4022770000000  0.5593410000000  0.5031740000000 1.0
C      1  0.4862730000000  0.4110950000000  0.5118300000000 1.0
C      1  0.4845610000000  0.4792640000000  0.5625370000000 1.0
C      1  0.5612560000000  0.4666580000000  0.4151750000000 1.0
C      1  0.5577810000000  0.4683940000000  0.4915470000000 1.0
C      1  0.5822530000000  0.4285230000000  0.4814190000000 1.0
C      1  0.4866280000000  0.4413150000000  0.4326900000000 1.0
C      1  0.4681280000000  0.4629140000000  0.4515270000000 1.0
C      1  0.5635270000000  0.5332630000000  0.5170790000000 1.0
C      1  0.4934170000000  0.5433520000000  0.4370800000000 1.0
C      1  0.4680040000000  0.5676890000000  0.4605010000000 1.0
C      1  0.4390750000000  0.5372820000000  0.5682990000000 1.0
C      1  0.4151640000000  0.4645450000000  0.5262200000000 1.0
C      1  0.5842420000000  0.5006080000000  0.5464300000000 1.0
C      1  0.4827420000000  0.4220820000000  0.4582990000000 1.0
C      1  0.4351760000000  0.5649380000000  0.5096870000000 1.0
C      1  0.4409160000000  0.5778350000000  0.4784010000000 1.0
C      1  0.4795850000000  0.4638750000000  0.4835510000000 1.0
C      1  0.5260370000000  0.4368720000000  0.4630400000000 1.0
C      1  0.4825390000000  0.5381430000000  0.4689740000000 1.0
C      1  0.5391430000000  0.4228140000000  0.5950280000000 1.0
C      1  0.4574920000000  0.4106450000000  0.5168390000000 1.0
C      1  0.4983930000000  0.5098660000000  0.5085460000000 1.0
C      1  0.4754140000000  0.4732980000000  0.5304330000000 1.0
C      1  0.5848640000000  0.5105780000000  0.5192830000000 1.0
C      1  0.4929270000000  0.5240940000000  0.5389400000000 1.0
C      1  0.5531690000000  0.4455840000000  0.4327730000000 1.0
C      1  0.5182380000000  0.5558640000000  0.4657790000000 1.0
C      1  0.5438520000000  0.5729700000000  0.4367970000000 1.0
C      1  0.5294690000000  0.3915340000000  0.5074420000000 1.0
C      1  0.5599950000000  0.5121490000000  0.6137880000000 1.0
C      1  0.5060330000000  0.5813510000000  0.5019640000000 1.0
C      1  0.5030040000000  0.5112950000000  0.5849410000000 1.0
C      1  0.5688900000000  0.5462740000000  0.4861140000000 1.0
C      1  0.5231970000000  0.5925990000000  0.4510580000000 1.0
C      1  0.5219990000000  0.4877860000000  0.4000100000000 1.0
C      1  0.5270440000000  0.4413870000000  0.5227780000000 1.0
C      1  0.5146390000000  0.4827840000000  0.5724300000000 1.0
C      1  0.4839540000000  0.5539480000000  0.5788820000000 1.0
C      1  0.4349820000000  0.5002020000000  0.5548020000000 1.0
C      1  0.4161070000000  0.5204210000000  0.5407990000000 1.0
C      1  0.4457590000000  0.5114610000000  0.5850200000000 1.0
C      1  0.6018910000000  0.4695780000000  0.5073090000000 1.0
C      1  0.5638860000000  0.5093430000000  0.4435970000000 1.0
C      1  0.5144830000000  0.4865750000000  0.5216350000000 1.0
C      1  0.4737870000000  0.5006310000000  0.4193380000000 1.0
C      1  0.4312390000000  0.5454130000000  0.4750570000000 1.0
C      1  0.4367570000000  0.4661570000000  0.4562000000000 1.0
C      1  0.4637930000000  0.5620920000000  0.5530330000000 1.0
C      1  0.5080570000000  0.4159570000000  0.4702670000000 1.0
C      1  0.4213190000000  0.4932230000000  0.5120190000000 1.0
C      1  0.4181360000000  0.4861510000000  0.4358470000000 1.0
C      1  0.4185560000000  0.4362490000000  0.5084490000000 1.0
C      1  0.5070780000000  0.4601270000000  0.5032400000000 1.0
C      1  0.4295020000000  0.4693320000000  0.4892870000000 1.0
C      1  0.5570850000000  0.4931700000000  0.4177200000000 1.0
C      1  0.5780980000000  0.5216900000000  0.5641420000000 1.0
C      1  0.5282520000000  0.5930730000000  0.4817590000000 1.0
C      1  0.4541310000000  0.5331000000000  0.5380830000000 1.0
C      1  0.5597350000000  0.4465930000000  0.5239660000000 1.0
C      1  0.5224400000000  0.5683400000000  0.5547970000000 1.0
C      1  0.5017960000000  0.5878690000000  0.5500400000000 1.0
C      1  0.5428280000000  0.4910660000000  0.4631220000000 1.0
C      1  0.5097240000000  0.5380290000000  0.5650230000000 1.0
C      1  0.5863420000000  0.4977830000000  0.4661830000000 1.0
C      1  0.5420860000000  0.4640190000000  0.5694610000000 1.0
C      1  0.4959820000000  0.5782800000000  0.4562750000000 1.0
END
