TITL C-2848504-8560-376 -0.00144134496530931 125000 -902.419429179421 0 0 167 (C1) n - 1
REM
REM in /home/bkarasulu/work/CARBON/AIRSS/Generating-Clusters/AIREBO/with-SteepDescent/Only-C1/SD-CG-opt/Try1-1.4A-POS3A/HFTN-CG
REM
REM
REM
REM
REM
REM ./C.cell (11c1c37f851c82e70ff6c80c92926a4b)
REM
REM compiler GCC version 9.2.1 20190827 (Red Hat 9.2.1-1)
REM options -cpp -mtune=generic -march=x86-64 -g -O0 -fpre-include=/usr/include/finclude/math-vector-fortran.h
REM seed -742393192 -1207246163 1012766082 2102830567 1117295643 -1216501527 -926577422 -2083445344 37487386 -1817641262 725543424 1694212182 1608825920 863957332 515861715 788324218 997382905 -674496617 -815317890 -1826581943 984107046 742490300 1633866093 -1339147808 2014668224 -1700838427 -1264046115 1339650903 -1478581484 -165732956 -902641470 490545675 -2140039615
REM
CELL 1.54180   50.00000   50.00000   50.00000   90.00000   90.00000   90.00000
LATT -1
SFAC C  
C      1  0.4367920000000  0.4573150000000  0.5875950000000 1.0
C      1  0.5871650000000  0.5557340000000  0.5525810000000 1.0
C      1  0.5347150000000  0.5099240000000  0.5936750000000 1.0
C      1  0.5909700000000  0.4871920000000  0.4818910000000 1.0
C      1  0.4952110000000  0.5299840000000  0.5151470000000 1.0
C      1  0.4303820000000  0.5050710000000  0.5642850000000 1.0
C      1  0.5724030000000  0.5722570000000  0.5082660000000 1.0
C      1  0.4250400000000  0.4301910000000  0.4779830000000 1.0
C      1  0.4120720000000  0.4802840000000  0.4460690000000 1.0
C      1  0.6139540000000  0.5041040000000  0.5252190000000 1.0
C      1  0.4725900000000  0.5539570000000  0.4131430000000 1.0
C      1  0.5935770000000  0.4476530000000  0.4780670000000 1.0
C      1  0.6100980000000  0.4784470000000  0.5054810000000 1.0
C      1  0.5198490000000  0.5718220000000  0.4307990000000 1.0
C      1  0.5829490000000  0.5280370000000  0.5355200000000 1.0
C      1  0.4355080000000  0.5636820000000  0.5325990000000 1.0
C      1  0.5303830000000  0.5388970000000  0.4558400000000 1.0
C      1  0.5647210000000  0.4535150000000  0.4856660000000 1.0
C      1  0.5557800000000  0.5024520000000  0.4465790000000 1.0
C      1  0.4082950000000  0.5098940000000  0.4492900000000 1.0
C      1  0.5569480000000  0.5641210000000  0.4801940000000 1.0
C      1  0.5278260000000  0.4356780000000  0.4218120000000 1.0
C      1  0.4055680000000  0.4495300000000  0.5236320000000 1.0
C      1  0.5526150000000  0.4369230000000  0.5090210000000 1.0
C      1  0.5394000000000  0.4658890000000  0.5641340000000 1.0
C      1  0.4855170000000  0.3902270000000  0.4830190000000 1.0
C      1  0.4737150000000  0.4883310000000  0.4547170000000 1.0
C      1  0.4014500000000  0.5580400000000  0.4897250000000 1.0
C      1  0.4879100000000  0.4916360000000  0.4088040000000 1.0
C      1  0.5109120000000  0.4849230000000  0.4312900000000 1.0
C      1  0.5121990000000  0.4890180000000  0.5820600000000 1.0
C      1  0.5566070000000  0.5572270000000  0.5417600000000 1.0
C      1  0.3984820000000  0.4806230000000  0.5195550000000 1.0
C      1  0.4999640000000  0.5987700000000  0.4797640000000 1.0
C      1  0.5624700000000  0.5175890000000  0.5898540000000 1.0
C      1  0.5065150000000  0.5804780000000  0.5048590000000 1.0
C      1  0.4775090000000  0.5231970000000  0.5501680000000 1.0
C      1  0.5025300000000  0.5181580000000  0.3973490000000 1.0
C      1  0.5427720000000  0.4969410000000  0.4034170000000 1.0
C      1  0.5360810000000  0.4672400000000  0.4182880000000 1.0
C      1  0.4799230000000  0.5681310000000  0.5220910000000 1.0
C      1  0.5131310000000  0.5424500000000  0.4949540000000 1.0
C      1  0.5018700000000  0.5669950000000  0.5836080000000 1.0
C      1  0.5484210000000  0.5737730000000  0.4487270000000 1.0
C      1  0.5918580000000  0.4695550000000  0.4197190000000 1.0
C      1  0.4704440000000  0.6074070000000  0.4886700000000 1.0
C      1  0.5502220000000  0.4944720000000  0.5602960000000 1.0
C      1  0.5747060000000  0.5212500000000  0.4970200000000 1.0
C      1  0.4961310000000  0.5909680000000  0.4468890000000 1.0
C      1  0.5456850000000  0.4431200000000  0.5974780000000 1.0
C      1  0.5089560000000  0.3899150000000  0.5040450000000 1.0
C      1  0.4163100000000  0.4041790000000  0.5507010000000 1.0
C      1  0.4779120000000  0.4425320000000  0.4286870000000 1.0
C      1  0.5630880000000  0.4727700000000  0.4379540000000 1.0
C      1  0.5181300000000  0.4618160000000  0.5400880000000 1.0
C      1  0.5464220000000  0.4156860000000  0.5330910000000 1.0
C      1  0.4083420000000  0.4534650000000  0.4591010000000 1.0
C      1  0.5670550000000  0.5460300000000  0.4424660000000 1.0
C      1  0.5116190000000  0.5285660000000  0.5801390000000 1.0
C      1  0.5177030000000  0.5886010000000  0.5420310000000 1.0
C      1  0.4789740000000  0.5011610000000  0.4847930000000 1.0
C      1  0.5432630000000  0.4133680000000  0.4782270000000 1.0
C      1  0.5092420000000  0.5316210000000  0.5463470000000 1.0
C      1  0.4558840000000  0.4768180000000  0.5980030000000 1.0
C      1  0.5753250000000  0.5227090000000  0.4629360000000 1.0
C      1  0.5078950000000  0.4253820000000  0.4653220000000 1.0
C      1  0.5587900000000  0.4841200000000  0.4929640000000 1.0
C      1  0.5902410000000  0.5483300000000  0.5105000000000 1.0
C      1  0.5190890000000  0.4582920000000  0.5905930000000 1.0
C      1  0.4615800000000  0.3984940000000  0.4943130000000 1.0
C      1  0.4950030000000  0.5143400000000  0.4578350000000 1.0
C      1  0.4870410000000  0.5989840000000  0.5344910000000 1.0
C      1  0.4565240000000  0.5027660000000  0.4116970000000 1.0
C      1  0.4455510000000  0.5498220000000  0.4152860000000 1.0
C      1  0.5592960000000  0.5275750000000  0.5577630000000 1.0
C      1  0.5446390000000  0.5330160000000  0.4863260000000 1.0
C      1  0.4920890000000  0.4018870000000  0.4521310000000 1.0
C      1  0.5519910000000  0.5963740000000  0.4948770000000 1.0
C      1  0.5693030000000  0.4696490000000  0.5354380000000 1.0
C      1  0.4926900000000  0.4465720000000  0.5539890000000 1.0
C      1  0.4215330000000  0.4574970000000  0.4964560000000 1.0
C      1  0.4698300000000  0.4663850000000  0.5180850000000 1.0
C      1  0.4402540000000  0.4524170000000  0.4487760000000 1.0
C      1  0.6064280000000  0.5163240000000  0.4737280000000 1.0
C      1  0.5405530000000  0.4791170000000  0.5212330000000 1.0
C      1  0.4815230000000  0.5228480000000  0.5912870000000 1.0
C      1  0.4855250000000  0.4599340000000  0.4529100000000 1.0
C      1  0.5317670000000  0.5633780000000  0.5111680000000 1.0
C      1  0.6027130000000  0.4915600000000  0.5547460000000 1.0
C      1  0.4693890000000  0.4170860000000  0.4384580000000 1.0
C      1  0.5336610000000  0.3882990000000  0.5174760000000 1.0
C      1  0.5180240000000  0.4507990000000  0.4506470000000 1.0
C      1  0.4946050000000  0.4175710000000  0.5105740000000 1.0
C      1  0.4000500000000  0.5305120000000  0.4962180000000 1.0
C      1  0.4487200000000  0.5394190000000  0.5756610000000 1.0
C      1  0.4449360000000  0.4208020000000  0.4521850000000 1.0
C      1  0.4653650000000  0.5832760000000  0.4592790000000 1.0
C      1  0.4733290000000  0.5407730000000  0.4913720000000 1.0
C      1  0.4367620000000  0.5761920000000  0.4607580000000 1.0
C      1  0.5579300000000  0.4014540000000  0.5015130000000 1.0
C      1  0.4376600000000  0.5826540000000  0.5125500000000 1.0
C      1  0.4316950000000  0.5526930000000  0.4438640000000 1.0
C      1  0.4856290000000  0.4924350000000  0.6032750000000 1.0
C      1  0.4705770000000  0.4910390000000  0.5415210000000 1.0
C      1  0.4529250000000  0.5066950000000  0.5856870000000 1.0
C      1  0.4239840000000  0.5006380000000  0.4780580000000 1.0
C      1  0.4665360000000  0.4640000000000  0.5617450000000 1.0
C      1  0.5439370000000  0.4205360000000  0.4476690000000 1.0
C      1  0.5410780000000  0.5010500000000  0.4752710000000 1.0
C      1  0.4913010000000  0.4168880000000  0.5705620000000 1.0
C      1  0.5311560000000  0.5929100000000  0.4709060000000 1.0
C      1  0.4543400000000  0.5007360000000  0.5052220000000 1.0
C      1  0.4430180000000  0.5100230000000  0.5354420000000 1.0
C      1  0.5173440000000  0.4274460000000  0.4933560000000 1.0
C      1  0.6019030000000  0.4673310000000  0.5330300000000 1.0
C      1  0.4588130000000  0.6012970000000  0.5155290000000 1.0
C      1  0.5111470000000  0.5642570000000  0.5562110000000 1.0
C      1  0.5298270000000  0.5211270000000  0.4027070000000 1.0
C      1  0.3968190000000  0.4966670000000  0.4971150000000 1.0
C      1  0.5168680000000  0.4816750000000  0.4648460000000 1.0
C      1  0.4149120000000  0.5281670000000  0.4289460000000 1.0
C      1  0.4764870000000  0.5547740000000  0.5879170000000 1.0
C      1  0.4202340000000  0.4792250000000  0.5458390000000 1.0
C      1  0.5509660000000  0.4509930000000  0.4590590000000 1.0
C      1  0.4378830000000  0.4746630000000  0.5178790000000 1.0
C      1  0.5019710000000  0.4780800000000  0.4936770000000 1.0
C      1  0.4852110000000  0.4612290000000  0.5900580000000 1.0
C      1  0.4210960000000  0.5214570000000  0.5156800000000 1.0
C      1  0.4672590000000  0.4343480000000  0.5168690000000 1.0
C      1  0.4735160000000  0.4617490000000  0.4846670000000 1.0
C      1  0.4452580000000  0.5240490000000  0.4541500000000 1.0
C      1  0.4863790000000  0.5404470000000  0.3929350000000 1.0
C      1  0.4469320000000  0.5246390000000  0.4854690000000 1.0
C      1  0.4241040000000  0.5761280000000  0.4869380000000 1.0
C      1  0.4636990000000  0.5542540000000  0.5489600000000 1.0
C      1  0.4400870000000  0.4221450000000  0.5059450000000 1.0
C      1  0.5035010000000  0.4982420000000  0.5202370000000 1.0
C      1  0.5025660000000  0.4881300000000  0.5526910000000 1.0
C      1  0.5931520000000  0.4704640000000  0.4536900000000 1.0
C      1  0.5625100000000  0.4372690000000  0.5798600000000 1.0
C      1  0.4173380000000  0.5430990000000  0.5367960000000 1.0
C      1  0.6143710000000  0.5323510000000  0.4954640000000 1.0
C      1  0.5449370000000  0.5334580000000  0.5204280000000 1.0
C      1  0.5484060000000  0.5869680000000  0.5273690000000 1.0
C      1  0.5255110000000  0.4559770000000  0.5013550000000 1.0
C      1  0.5185640000000  0.4047450000000  0.4330890000000 1.0
C      1  0.4424380000000  0.4720350000000  0.4754250000000 1.0
C      1  0.4709710000000  0.5734050000000  0.4897140000000 1.0
C      1  0.4434080000000  0.4925710000000  0.4411230000000 1.0
C      1  0.5320180000000  0.5088460000000  0.5354210000000 1.0
C      1  0.4890410000000  0.5606410000000  0.4365570000000 1.0
C      1  0.5233680000000  0.5532300000000  0.6003990000000 1.0
C      1  0.4269250000000  0.4288710000000  0.5365930000000 1.0
C      1  0.5804370000000  0.4990930000000  0.5224200000000 1.0
C      1  0.4844840000000  0.4187020000000  0.5401180000000 1.0
C      1  0.5573210000000  0.4414700000000  0.5486630000000 1.0
C      1  0.4720910000000  0.4631200000000  0.4076420000000 1.0
C      1  0.4459600000000  0.4652490000000  0.4210310000000 1.0
C      1  0.4638790000000  0.5874070000000  0.5565270000000 1.0
C      1  0.4178880000000  0.5341870000000  0.5635430000000 1.0
C      1  0.5819900000000  0.4980880000000  0.5715290000000 1.0
C      1  0.4365700000000  0.5228010000000  0.4056320000000 1.0
C      1  0.5236990000000  0.5123140000000  0.4410970000000 1.0
C      1  0.5389020000000  0.5445230000000  0.4234070000000 1.0
C      1  0.4354150000000  0.4533000000000  0.5567420000000 1.0
C      1  0.4892360000000  0.5436810000000  0.4630350000000 1.0
C      1  0.5158740000000  0.5637600000000  0.4696190000000 1.0
END
