TITL C-2848494-1720-494 0.00141878111696295 125000 -445.101675066948 0 0 87 (C1) n - 1
REM
REM in /home/bkarasulu/work/CARBON/AIRSS/Generating-Clusters/AIREBO/with-SteepDescent/Only-C1/SD-CG-opt/Try1-1.4A-POS3A/HFTN-CG
REM
REM
REM
REM
REM
REM ./C.cell (11c1c37f851c82e70ff6c80c92926a4b)
REM
REM compiler GCC version 9.2.1 20190827 (Red Hat 9.2.1-1)
REM options -cpp -mtune=generic -march=x86-64 -g -O0 -fpre-include=/usr/include/finclude/math-vector-fortran.h
REM seed -196294670 1087235018 -1159454512 -1736228880 486772491 250587428 2125533802 1465083239 1797366771 1736040343 716757834 -1144964548 -838434029 -1201948276 1501807015 -1067974790 -1653788386 -1653493495 -1784997725 1424229154 -1662673966 -1214977721 1273541711 -176370211 -386253095 1125786014 2094366448 -31891013 -1320023017 2099943711 -737682193 238406048 -1166174293
REM
CELL 1.54180   50.00000   50.00000   50.00000   90.00000   90.00000   90.00000
LATT -1
SFAC C  
C      1  0.4431250000000  0.5332520000000  0.4995130000000 1.0
C      1  0.5021320000000  0.5161650000000  0.5820000000000 1.0
C      1  0.5731600000000  0.4926280000000  0.5323360000000 1.0
C      1  0.4785940000000  0.4221990000000  0.4850980000000 1.0
C      1  0.4805100000000  0.4908340000000  0.4943210000000 1.0
C      1  0.5304650000000  0.5411230000000  0.4842560000000 1.0
C      1  0.5046310000000  0.4741950000000  0.4786860000000 1.0
C      1  0.4803310000000  0.4557620000000  0.4636490000000 1.0
C      1  0.4896980000000  0.4918440000000  0.5745210000000 1.0
C      1  0.5006660000000  0.4545120000000  0.5687030000000 1.0
C      1  0.4737820000000  0.5805340000000  0.4702930000000 1.0
C      1  0.5205050000000  0.5634290000000  0.5559870000000 1.0
C      1  0.5557020000000  0.4418190000000  0.5013050000000 1.0
C      1  0.4602250000000  0.4930100000000  0.5748240000000 1.0
C      1  0.4560170000000  0.4214050000000  0.4672480000000 1.0
C      1  0.5301400000000  0.5170560000000  0.5751610000000 1.0
C      1  0.5461240000000  0.5051640000000  0.5411810000000 1.0
C      1  0.4659050000000  0.5138830000000  0.5146160000000 1.0
C      1  0.5379790000000  0.4424300000000  0.4633670000000 1.0
C      1  0.4843530000000  0.4380780000000  0.5250570000000 1.0
C      1  0.4086910000000  0.4969570000000  0.4835010000000 1.0
C      1  0.5560370000000  0.5530380000000  0.5236760000000 1.0
C      1  0.5039050000000  0.5595830000000  0.4361330000000 1.0
C      1  0.5138160000000  0.5335170000000  0.4556020000000 1.0
C      1  0.4446970000000  0.4806040000000  0.4224760000000 1.0
C      1  0.5236050000000  0.4304540000000  0.5661850000000 1.0
C      1  0.5783320000000  0.4839600000000  0.4802420000000 1.0
C      1  0.4387560000000  0.5387490000000  0.4601780000000 1.0
C      1  0.4899130000000  0.5444580000000  0.4756910000000 1.0
C      1  0.5223710000000  0.4665440000000  0.4016110000000 1.0
C      1  0.4297440000000  0.4593990000000  0.5640410000000 1.0
C      1  0.4295320000000  0.5021190000000  0.5018900000000 1.0
C      1  0.5105660000000  0.4860230000000  0.4483660000000 1.0
C      1  0.4641300000000  0.5305350000000  0.4636460000000 1.0
C      1  0.4596060000000  0.5623850000000  0.4938830000000 1.0
C      1  0.4683580000000  0.5186630000000  0.5540320000000 1.0
C      1  0.5151960000000  0.5889340000000  0.5097640000000 1.0
C      1  0.4500620000000  0.4792120000000  0.5030650000000 1.0
C      1  0.4512120000000  0.4454450000000  0.5231810000000 1.0
C      1  0.4854160000000  0.5793750000000  0.4445390000000 1.0
C      1  0.3980070000000  0.5219460000000  0.5426770000000 1.0
C      1  0.5864810000000  0.4690480000000  0.5266800000000 1.0
C      1  0.5018090000000  0.6070890000000  0.5269290000000 1.0
C      1  0.4466310000000  0.4983720000000  0.5378190000000 1.0
C      1  0.5256030000000  0.4720240000000  0.4272520000000 1.0
C      1  0.5441740000000  0.4646690000000  0.4488330000000 1.0
C      1  0.4986500000000  0.5628130000000  0.5712210000000 1.0
C      1  0.4556390000000  0.4733450000000  0.4498050000000 1.0
C      1  0.4180780000000  0.5108730000000  0.5315360000000 1.0
C      1  0.4952630000000  0.5366170000000  0.4203640000000 1.0
C      1  0.5327620000000  0.4858230000000  0.5628320000000 1.0
C      1  0.4162380000000  0.5375480000000  0.4791490000000 1.0
C      1  0.5359770000000  0.6011800000000  0.4949820000000 1.0
C      1  0.4891680000000  0.4314700000000  0.4473530000000 1.0
C      1  0.4430880000000  0.4670640000000  0.5409340000000 1.0
C      1  0.5357880000000  0.4179600000000  0.5135090000000 1.0
C      1  0.5609220000000  0.4999080000000  0.5045150000000 1.0
C      1  0.5432450000000  0.5171080000000  0.4508660000000 1.0
C      1  0.5774030000000  0.4586470000000  0.5012910000000 1.0
C      1  0.4854750000000  0.5386450000000  0.5739130000000 1.0
C      1  0.5219800000000  0.5117800000000  0.5201600000000 1.0
C      1  0.5297970000000  0.4892570000000  0.4959080000000 1.0
C      1  0.4923310000000  0.5102820000000  0.4416750000000 1.0
C      1  0.4686550000000  0.4997810000000  0.4637170000000 1.0
C      1  0.4422900000000  0.4441710000000  0.4599070000000 1.0
C      1  0.5483860000000  0.4895140000000  0.4663560000000 1.0
C      1  0.5039400000000  0.4238620000000  0.5031700000000 1.0
C      1  0.5605360000000  0.5436450000000  0.4947710000000 1.0
C      1  0.4958070000000  0.5736760000000  0.4921040000000 1.0
C      1  0.5128760000000  0.5395520000000  0.5097180000000 1.0
C      1  0.5248450000000  0.4671300000000  0.5224590000000 1.0
C      1  0.5808130000000  0.5177750000000  0.4854900000000 1.0
C      1  0.5671650000000  0.5361960000000  0.4627780000000 1.0
C      1  0.4964260000000  0.5123350000000  0.5400690000000 1.0
C      1  0.5373040000000  0.4396170000000  0.5366660000000 1.0
C      1  0.4651690000000  0.4509140000000  0.4926330000000 1.0
C      1  0.5247740000000  0.5640960000000  0.5250450000000 1.0
C      1  0.5437540000000  0.4578470000000  0.5643980000000 1.0
C      1  0.4925140000000  0.4286390000000  0.5522840000000 1.0
C      1  0.4805450000000  0.4718190000000  0.5225210000000 1.0
C      1  0.5234450000000  0.4498630000000  0.4931930000000 1.0
C      1  0.4797760000000  0.4972380000000  0.4128960000000 1.0
C      1  0.5642240000000  0.5339030000000  0.4311210000000 1.0
C      1  0.5038100000000  0.4796860000000  0.5460550000000 1.0
C      1  0.5405590000000  0.5367670000000  0.5493770000000 1.0
C      1  0.4814400000000  0.5401580000000  0.5077520000000 1.0
C      1  0.4684480000000  0.4890710000000  0.3914930000000 1.0
END
