TITL C-2847945-6269-665 0.000165369858916896 125000 -322.554844853071 0 0 59 (C1) n - 1
REM
REM in /home/bkarasulu/work/CARBON/AIRSS/Generating-Clusters/AIREBO/with-SteepDescent/Only-C1/SD-CG-opt/Try1-1.4A-POS3A/HFTN-CG
REM
REM
REM
REM
REM
REM ./C.cell (11c1c37f851c82e70ff6c80c92926a4b)
REM
REM compiler GCC version 9.2.1 20190827 (Red Hat 9.2.1-1)
REM options -cpp -mtune=generic -march=x86-64 -g -O0 -fpre-include=/usr/include/finclude/math-vector-fortran.h
REM seed 1698549558 -1058675517 106550499 1859899438 -411074961 -265665736 2064409930 -1546901565 -267162509 -1510672689 2071109972 -1802829927 -1596401063 218073418 1901923458 -617680323 -988911850 990389019 -656589405 -10160274 -1149111275 -1230938418 -845411962 292348999 1352839371 88082710 497415767 -1464652980 1328254 1286799655 1939184731 553687639 2046752946
REM
CELL 1.54180   50.00000   50.00000   50.00000   90.00000   90.00000   90.00000
LATT -1
SFAC C  
C      1  0.5623940000000  0.4806520000000  0.4790400000000 1.0
C      1  0.5341550000000  0.5545000000000  0.4983550000000 1.0
C      1  0.4884660000000  0.5062660000000  0.4278310000000 1.0
C      1  0.5600110000000  0.5204580000000  0.5448110000000 1.0
C      1  0.4293720000000  0.5062310000000  0.4918430000000 1.0
C      1  0.4725690000000  0.4790870000000  0.5550200000000 1.0
C      1  0.4419460000000  0.5261980000000  0.5015960000000 1.0
C      1  0.4834090000000  0.5442540000000  0.4761590000000 1.0
C      1  0.4550390000000  0.5177210000000  0.5412360000000 1.0
C      1  0.5467340000000  0.4985630000000  0.5543450000000 1.0
C      1  0.5158870000000  0.4961360000000  0.6098720000000 1.0
C      1  0.5247610000000  0.5275370000000  0.4529440000000 1.0
C      1  0.4895520000000  0.4533740000000  0.4291770000000 1.0
C      1  0.4988120000000  0.4486870000000  0.5147390000000 1.0
C      1  0.5719850000000  0.5174570000000  0.5169110000000 1.0
C      1  0.5085320000000  0.5035640000000  0.4457280000000 1.0
C      1  0.4094560000000  0.4213600000000  0.5166840000000 1.0
C      1  0.4632580000000  0.5145550000000  0.4373800000000 1.0
C      1  0.5059090000000  0.4330900000000  0.4703830000000 1.0
C      1  0.5600930000000  0.5621920000000  0.4777620000000 1.0
C      1  0.5431330000000  0.5455860000000  0.4307140000000 1.0
C      1  0.5008180000000  0.4761380000000  0.5436910000000 1.0
C      1  0.5130630000000  0.5455750000000  0.4753380000000 1.0
C      1  0.5232820000000  0.5013120000000  0.5117880000000 1.0
C      1  0.4347580000000  0.4668370000000  0.4945990000000 1.0
C      1  0.4728820000000  0.5328780000000  0.5260290000000 1.0
C      1  0.5424030000000  0.4387210000000  0.5028980000000 1.0
C      1  0.4921500000000  0.5500980000000  0.5331770000000 1.0
C      1  0.4465180000000  0.4933790000000  0.4461970000000 1.0
C      1  0.4315240000000  0.4777820000000  0.4294190000000 1.0
C      1  0.4308770000000  0.4732780000000  0.5256240000000 1.0
C      1  0.4996850000000  0.4551840000000  0.4545350000000 1.0
C      1  0.5186760000000  0.5195660000000  0.5351180000000 1.0
C      1  0.4827220000000  0.5251750000000  0.5908820000000 1.0
C      1  0.4636170000000  0.5395580000000  0.4489150000000 1.0
C      1  0.5478990000000  0.5137750000000  0.4956260000000 1.0
C      1  0.5141460000000  0.5020720000000  0.5615110000000 1.0
C      1  0.5607130000000  0.5442640000000  0.4556840000000 1.0
C      1  0.3995620000000  0.3973720000000  0.5203810000000 1.0
C      1  0.5463730000000  0.4685410000000  0.5129520000000 1.0
C      1  0.4634430000000  0.5680040000000  0.4620690000000 1.0
C      1  0.5518130000000  0.5171180000000  0.4677200000000 1.0
C      1  0.4993510000000  0.4421670000000  0.5433750000000 1.0
C      1  0.5669050000000  0.5473530000000  0.5047640000000 1.0
C      1  0.5345910000000  0.4751610000000  0.5398570000000 1.0
C      1  0.5291070000000  0.4800010000000  0.4859440000000 1.0
C      1  0.5471830000000  0.5444440000000  0.5480760000000 1.0
C      1  0.4968880000000  0.4805420000000  0.5095430000000 1.0
C      1  0.4492050000000  0.4862150000000  0.4753590000000 1.0
C      1  0.5745440000000  0.4858330000000  0.5068060000000 1.0
C      1  0.5233370000000  0.5509790000000  0.5271330000000 1.0
C      1  0.4785570000000  0.4932680000000  0.4867930000000 1.0
C      1  0.4219610000000  0.4448620000000  0.5134030000000 1.0
C      1  0.5406380000000  0.5579250000000  0.4071170000000 1.0
C      1  0.4376430000000  0.4974500000000  0.5364370000000 1.0
C      1  0.5044640000000  0.5086260000000  0.5882470000000 1.0
C      1  0.5045370000000  0.4823180000000  0.4677050000000 1.0
C      1  0.5150160000000  0.4343560000000  0.4967800000000 1.0
C      1  0.4736770000000  0.5244040000000  0.4959760000000 1.0
END
