TITL C-2847958-8115-751 0.00168414371867397 125000 -360.737193862357 0 0 68 (C1) n - 1
REM
REM in /home/bkarasulu/work/CARBON/AIRSS/Generating-Clusters/AIREBO/with-SteepDescent/Only-C1/SD-CG-opt/Try1-1.4A-POS3A/HFTN-CG
REM
REM
REM
REM
REM
REM ./C.cell (11c1c37f851c82e70ff6c80c92926a4b)
REM
REM compiler GCC version 9.2.1 20190827 (Red Hat 9.2.1-1)
REM options -cpp -mtune=generic -march=x86-64 -g -O0 -fpre-include=/usr/include/finclude/math-vector-fortran.h
REM seed 814772293 115007088 -1370127120 -441167984 -1309825326 -1498844888 -764627843 520030616 -1674256731 1249042174 201434021 -571638127 1918872783 -407429240 1546023051 -1878382350 -832464332 1415298605 -1505198924 -1986441803 1665067758 875323673 -731441185 -550574502 1474043969 -459084851 -1243894436 2113336949 -1614499698 1755049150 -280254485 1571791545 1928664276
REM
CELL 1.54180   50.00000   50.00000   50.00000   90.00000   90.00000   90.00000
LATT -1
SFAC C  
C      1  0.4814470000000  0.4895900000000  0.4977700000000 1.0
C      1  0.5124180000000  0.5060050000000  0.4213670000000 1.0
C      1  0.5669040000000  0.5321440000000  0.5249960000000 1.0
C      1  0.5091760000000  0.4892610000000  0.4778260000000 1.0
C      1  0.5054390000000  0.5354800000000  0.4191140000000 1.0
C      1  0.4792900000000  0.4335250000000  0.5465170000000 1.0
C      1  0.5333280000000  0.4538820000000  0.5171640000000 1.0
C      1  0.4533460000000  0.5142300000000  0.5264070000000 1.0
C      1  0.4947360000000  0.4381890000000  0.4491900000000 1.0
C      1  0.5390340000000  0.5479510000000  0.4736930000000 1.0
C      1  0.4545250000000  0.4605860000000  0.4610550000000 1.0
C      1  0.5026260000000  0.5178320000000  0.5684660000000 1.0
C      1  0.5533730000000  0.5035370000000  0.4899510000000 1.0
C      1  0.5421040000000  0.5157810000000  0.4629790000000 1.0
C      1  0.5170010000000  0.5766080000000  0.5563490000000 1.0
C      1  0.5134410000000  0.5308890000000  0.5324060000000 1.0
C      1  0.4521930000000  0.4783320000000  0.4844860000000 1.0
C      1  0.4756600000000  0.5670560000000  0.4827040000000 1.0
C      1  0.5234520000000  0.5033900000000  0.5498630000000 1.0
C      1  0.5244950000000  0.4907250000000  0.4474440000000 1.0
C      1  0.5149740000000  0.5579900000000  0.4857220000000 1.0
C      1  0.5325490000000  0.4230450000000  0.5044070000000 1.0
C      1  0.5224530000000  0.4592460000000  0.4853980000000 1.0
C      1  0.5284210000000  0.4617380000000  0.5627700000000 1.0
C      1  0.4897500000000  0.4611200000000  0.5144050000000 1.0
C      1  0.4906240000000  0.5473610000000  0.4423590000000 1.0
C      1  0.4287280000000  0.5027420000000  0.4812760000000 1.0
C      1  0.4617980000000  0.4425500000000  0.5204700000000 1.0
C      1  0.5599100000000  0.5544460000000  0.4931010000000 1.0
C      1  0.5016380000000  0.4461000000000  0.5541280000000 1.0
C      1  0.4737690000000  0.4317850000000  0.4925170000000 1.0
C      1  0.5498550000000  0.4814920000000  0.5488510000000 1.0
C      1  0.5591800000000  0.4696270000000  0.5235750000000 1.0
C      1  0.5466940000000  0.4478280000000  0.4650450000000 1.0
C      1  0.4492950000000  0.5276710000000  0.4707020000000 1.0
C      1  0.4888040000000  0.5077880000000  0.4426000000000 1.0
C      1  0.4744860000000  0.5681340000000  0.5326230000000 1.0
C      1  0.5051790000000  0.5638390000000  0.5339050000000 1.0
C      1  0.4678540000000  0.5529710000000  0.4575690000000 1.0
C      1  0.4598300000000  0.5694850000000  0.5084720000000 1.0
C      1  0.4713600000000  0.5308670000000  0.5722010000000 1.0
C      1  0.5095350000000  0.5252510000000  0.4604990000000 1.0
C      1  0.4699370000000  0.4373760000000  0.4657370000000 1.0
C      1  0.5291990000000  0.4932920000000  0.5118310000000 1.0
C      1  0.5170560000000  0.5752790000000  0.5069140000000 1.0
C      1  0.4245590000000  0.4778540000000  0.5031570000000 1.0
C      1  0.4476190000000  0.5307640000000  0.5478080000000 1.0
C      1  0.4662610000000  0.5200150000000  0.4981070000000 1.0
C      1  0.5131340000000  0.4744810000000  0.5351780000000 1.0
C      1  0.4927070000000  0.5068450000000  0.5248280000000 1.0
C      1  0.4853930000000  0.4863100000000  0.5509220000000 1.0
C      1  0.4601770000000  0.5069670000000  0.4459190000000 1.0
C      1  0.5776480000000  0.5156370000000  0.5078940000000 1.0
C      1  0.4587790000000  0.4880980000000  0.5343100000000 1.0
C      1  0.4451070000000  0.4680390000000  0.5224700000000 1.0
C      1  0.5230250000000  0.4572390000000  0.4454860000000 1.0
C      1  0.5033190000000  0.4347630000000  0.4993480000000 1.0
C      1  0.4782090000000  0.4989340000000  0.5792570000000 1.0
C      1  0.5165430000000  0.5187340000000  0.4931480000000 1.0
C      1  0.5694270000000  0.4778100000000  0.4984220000000 1.0
C      1  0.4390600000000  0.5531870000000  0.4907350000000 1.0
C      1  0.4910570000000  0.4680070000000  0.4412040000000 1.0
C      1  0.5463180000000  0.4197130000000  0.4803660000000 1.0
C      1  0.5729330000000  0.4612190000000  0.4767610000000 1.0
C      1  0.4895360000000  0.5386890000000  0.4923700000000 1.0
C      1  0.4635530000000  0.4772540000000  0.4388180000000 1.0
C      1  0.4616700000000  0.5574350000000  0.5544290000000 1.0
C      1  0.5371020000000  0.5379900000000  0.5122370000000 1.0
END
