TITL C-2847957-7266-422 -0.000448822543628198 125000 -415.294374000723 0 0 77 (C1) n - 1
REM
REM in /home/bkarasulu/work/CARBON/AIRSS/Generating-Clusters/AIREBO/with-SteepDescent/Only-C1/SD-CG-opt/Try1-1.4A-POS3A/HFTN-CG
REM
REM
REM
REM
REM
REM ./C.cell (11c1c37f851c82e70ff6c80c92926a4b)
REM
REM compiler GCC version 9.2.1 20190827 (Red Hat 9.2.1-1)
REM options -cpp -mtune=generic -march=x86-64 -g -O0 -fpre-include=/usr/include/finclude/math-vector-fortran.h
REM seed -1133782297 -804480969 1040944490 1649832050 -577404785 -908080620 -1330681197 1205949696 2129574587 -483454443 1752820175 -705839126 552562783 -1695756410 -1167136126 -1313990761 1601915902 2125239103 -1237861649 1713732709 1709509329 1295992380 1247036199 -1050200203 -304499090 1708817375 -1153994655 1542271036 -1186014150 1431083864 -954463166 676762988 -154402364
REM
CELL 1.54180   50.00000   50.00000   50.00000   90.00000   90.00000   90.00000
LATT -1
SFAC C  
C      1  0.5102260000000  0.5152900000000  0.4288910000000 1.0
C      1  0.5644220000000  0.5461090000000  0.5069090000000 1.0
C      1  0.4953830000000  0.4789430000000  0.6071820000000 1.0
C      1  0.5644840000000  0.4464210000000  0.4554570000000 1.0
C      1  0.5824250000000  0.4664930000000  0.4962050000000 1.0
C      1  0.4725370000000  0.5405830000000  0.5074490000000 1.0
C      1  0.4984090000000  0.4543280000000  0.4376700000000 1.0
C      1  0.4967110000000  0.4949850000000  0.4845880000000 1.0
C      1  0.4319230000000  0.4989230000000  0.4393230000000 1.0
C      1  0.5913810000000  0.4601500000000  0.5227230000000 1.0
C      1  0.5263910000000  0.5206930000000  0.4775270000000 1.0
C      1  0.4657770000000  0.4983180000000  0.5649780000000 1.0
C      1  0.4470300000000  0.5465540000000  0.4599980000000 1.0
C      1  0.5158150000000  0.4329740000000  0.4928150000000 1.0
C      1  0.4642720000000  0.5512260000000  0.5444130000000 1.0
C      1  0.5229590000000  0.5467770000000  0.5397070000000 1.0
C      1  0.4677930000000  0.4707660000000  0.5005660000000 1.0
C      1  0.5290620000000  0.4729710000000  0.4891470000000 1.0
C      1  0.5670450000000  0.4456650000000  0.4835010000000 1.0
C      1  0.5155090000000  0.5415130000000  0.5708920000000 1.0
C      1  0.5134790000000  0.4353020000000  0.4222930000000 1.0
C      1  0.4461220000000  0.5420570000000  0.4926950000000 1.0
C      1  0.4964780000000  0.4989250000000  0.5496700000000 1.0
C      1  0.5855320000000  0.5221000000000  0.4975160000000 1.0
C      1  0.5048500000000  0.4120970000000  0.4778050000000 1.0
C      1  0.4869710000000  0.4763540000000  0.4185730000000 1.0
C      1  0.5111060000000  0.5023000000000  0.4555500000000 1.0
C      1  0.4946370000000  0.4960420000000  0.5828180000000 1.0
C      1  0.4973180000000  0.5075330000000  0.3833000000000 1.0
C      1  0.4839060000000  0.4136810000000  0.4601100000000 1.0
C      1  0.4519010000000  0.4513990000000  0.5237050000000 1.0
C      1  0.4701670000000  0.5836510000000  0.4598030000000 1.0
C      1  0.5221010000000  0.5950720000000  0.5312620000000 1.0
C      1  0.5537880000000  0.5219330000000  0.4853380000000 1.0
C      1  0.4755540000000  0.4392890000000  0.4518460000000 1.0
C      1  0.5391950000000  0.4956090000000  0.5116370000000 1.0
C      1  0.5204000000000  0.5138010000000  0.5317380000000 1.0
C      1  0.4952660000000  0.5336910000000  0.4754240000000 1.0
C      1  0.4758830000000  0.4894870000000  0.5273740000000 1.0
C      1  0.4788580000000  0.4569730000000  0.5364300000000 1.0
C      1  0.5396580000000  0.5051010000000  0.5583920000000 1.0
C      1  0.5689540000000  0.4931130000000  0.4953790000000 1.0
C      1  0.5114830000000  0.4202480000000  0.5347650000000 1.0
C      1  0.5691700000000  0.5721040000000  0.4984320000000 1.0
C      1  0.5538750000000  0.5422610000000  0.5345100000000 1.0
C      1  0.4359640000000  0.4650320000000  0.4896650000000 1.0
C      1  0.4313070000000  0.4641760000000  0.5363140000000 1.0
C      1  0.4979920000000  0.5003970000000  0.4092300000000 1.0
C      1  0.4820590000000  0.5684710000000  0.5218200000000 1.0
C      1  0.5682040000000  0.4596150000000  0.5387660000000 1.0
C      1  0.4417620000000  0.5270790000000  0.5513090000000 1.0
C      1  0.5105670000000  0.5716970000000  0.5294580000000 1.0
C      1  0.4758180000000  0.5775920000000  0.4927790000000 1.0
C      1  0.4443570000000  0.5734880000000  0.4794640000000 1.0
C      1  0.5428500000000  0.4370300000000  0.4989590000000 1.0
C      1  0.4564350000000  0.4514290000000  0.4661620000000 1.0
C      1  0.4978050000000  0.4618220000000  0.4920420000000 1.0
C      1  0.5473560000000  0.4641990000000  0.4436880000000 1.0
C      1  0.4988080000000  0.5192350000000  0.5059980000000 1.0
C      1  0.5183430000000  0.5419670000000  0.4286340000000 1.0
C      1  0.5190700000000  0.4710170000000  0.4566190000000 1.0
C      1  0.5623910000000  0.5218820000000  0.5510760000000 1.0
C      1  0.4471820000000  0.5214920000000  0.4396050000000 1.0
C      1  0.4395250000000  0.4941030000000  0.5433210000000 1.0
C      1  0.4433800000000  0.5138200000000  0.5821450000000 1.0
C      1  0.4281470000000  0.5214010000000  0.5004840000000 1.0
C      1  0.4960140000000  0.4642070000000  0.6280020000000 1.0
C      1  0.5450600000000  0.4631690000000  0.5180490000000 1.0
C      1  0.4686320000000  0.5218400000000  0.4665760000000 1.0
C      1  0.4677770000000  0.5194320000000  0.5311520000000 1.0
C      1  0.5199360000000  0.5150930000000  0.5775800000000 1.0
C      1  0.5173810000000  0.5630370000000  0.4459970000000 1.0
C      1  0.4570030000000  0.4976270000000  0.4827140000000 1.0
C      1  0.4363840000000  0.4936100000000  0.5094660000000 1.0
C      1  0.4961900000000  0.5641210000000  0.4688190000000 1.0
C      1  0.4351650000000  0.4839240000000  0.4614060000000 1.0
C      1  0.4949290000000  0.4371900000000  0.5463950000000 1.0
END
