TITL C-2847958-8115-715 0.00111378951697138 125000 -513.034319233261 0 0 96 (C1) n - 1
REM
REM in /home/bkarasulu/work/CARBON/AIRSS/Generating-Clusters/AIREBO/with-SteepDescent/Only-C1/SD-CG-opt/Try1-1.4A-POS3A/HFTN-CG
REM
REM
REM
REM
REM
REM ./C.cell (11c1c37f851c82e70ff6c80c92926a4b)
REM
REM compiler GCC version 9.2.1 20190827 (Red Hat 9.2.1-1)
REM options -cpp -mtune=generic -march=x86-64 -g -O0 -fpre-include=/usr/include/finclude/math-vector-fortran.h
REM seed -1866625017 696504474 -887821558 1113672158 267242571 369914764 928377794 -402515622 -1700372792 1747065276 1882215220 -220010145 -2143802457 1061973081 608471259 667203672 -895277441 852427287 -441622951 1958365054 -2066577599 -1152372646 884284369 -1870981957 -1674104312 -488090051 307590968 -929457268 950151449 1027143106 1854632954 222528793 1271083858
REM
CELL 1.54180   50.00000   50.00000   50.00000   90.00000   90.00000   90.00000
LATT -1
SFAC C  
C      1  0.4602890000000  0.4561520000000  0.5409110000000 1.0
C      1  0.5049170000000  0.4387000000000  0.5369790000000 1.0
C      1  0.6004370000000  0.4898050000000  0.5012260000000 1.0
C      1  0.4635700000000  0.5652210000000  0.5269490000000 1.0
C      1  0.4504910000000  0.5133220000000  0.5436220000000 1.0
C      1  0.4909700000000  0.5496920000000  0.5389840000000 1.0
C      1  0.4920220000000  0.4825790000000  0.5701180000000 1.0
C      1  0.4891350000000  0.5346180000000  0.5643910000000 1.0
C      1  0.5371360000000  0.4869670000000  0.4620850000000 1.0
C      1  0.5450010000000  0.5347250000000  0.4353460000000 1.0
C      1  0.5108630000000  0.5423900000000  0.5123850000000 1.0
C      1  0.6210190000000  0.5228850000000  0.4300370000000 1.0
C      1  0.4493420000000  0.5544650000000  0.4648470000000 1.0
C      1  0.5285860000000  0.4446190000000  0.5052580000000 1.0
C      1  0.4064100000000  0.4744030000000  0.4768260000000 1.0
C      1  0.5172960000000  0.5682040000000  0.4468420000000 1.0
C      1  0.5258900000000  0.4154740000000  0.4649340000000 1.0
C      1  0.4230850000000  0.5375160000000  0.3692880000000 1.0
C      1  0.5149700000000  0.5736860000000  0.5368390000000 1.0
C      1  0.5539070000000  0.5299750000000  0.4608600000000 1.0
C      1  0.5156160000000  0.4163390000000  0.4915310000000 1.0
C      1  0.5525700000000  0.5048080000000  0.5751870000000 1.0
C      1  0.4961890000000  0.5303450000000  0.4774660000000 1.0
C      1  0.5476050000000  0.4580750000000  0.5603840000000 1.0
C      1  0.5171800000000  0.4639760000000  0.4554900000000 1.0
C      1  0.5117550000000  0.4975590000000  0.4209410000000 1.0
C      1  0.5251390000000  0.4833610000000  0.5947450000000 1.0
C      1  0.5363720000000  0.4844070000000  0.5429900000000 1.0
C      1  0.4680570000000  0.4152070000000  0.5149370000000 1.0
C      1  0.4560550000000  0.5211600000000  0.4665180000000 1.0
C      1  0.5130360000000  0.4688260000000  0.5234200000000 1.0
C      1  0.5515100000000  0.5135890000000  0.5337920000000 1.0
C      1  0.4122930000000  0.4892280000000  0.4572840000000 1.0
C      1  0.4823330000000  0.4747970000000  0.5965070000000 1.0
C      1  0.4378970000000  0.5145690000000  0.4184950000000 1.0
C      1  0.4588170000000  0.5113260000000  0.5132330000000 1.0
C      1  0.3967510000000  0.5237640000000  0.3818750000000 1.0
C      1  0.4834460000000  0.4718640000000  0.5399240000000 1.0
C      1  0.5199690000000  0.4090730000000  0.5441920000000 1.0
C      1  0.6019170000000  0.5166090000000  0.4457540000000 1.0
C      1  0.4878630000000  0.5883990000000  0.5331690000000 1.0
C      1  0.5468280000000  0.5773630000000  0.5034610000000 1.0
C      1  0.5404950000000  0.4231120000000  0.5287670000000 1.0
C      1  0.5782020000000  0.4451080000000  0.5242170000000 1.0
C      1  0.5136400000000  0.4576130000000  0.5619710000000 1.0
C      1  0.4574980000000  0.5587780000000  0.4982230000000 1.0
C      1  0.4494320000000  0.4863950000000  0.4973440000000 1.0
C      1  0.4442250000000  0.5453980000000  0.5442560000000 1.0
C      1  0.5609960000000  0.4508780000000  0.4954580000000 1.0
C      1  0.4999820000000  0.5781960000000  0.4703050000000 1.0
C      1  0.4396880000000  0.4677020000000  0.5568310000000 1.0
C      1  0.4418560000000  0.5305910000000  0.4959430000000 1.0
C      1  0.5363660000000  0.5503360000000  0.5640830000000 1.0
C      1  0.5410370000000  0.5686940000000  0.5289120000000 1.0
C      1  0.5292540000000  0.5349830000000  0.4839730000000 1.0
C      1  0.5820000000000  0.5084520000000  0.4919390000000 1.0
C      1  0.4959410000000  0.4180930000000  0.5139690000000 1.0
C      1  0.4989280000000  0.5169800000000  0.4464850000000 1.0
C      1  0.4357260000000  0.5021600000000  0.4469790000000 1.0
C      1  0.4891910000000  0.5165930000000  0.5077800000000 1.0
C      1  0.4241970000000  0.5246070000000  0.3988960000000 1.0
C      1  0.5309350000000  0.5684920000000  0.4784270000000 1.0
C      1  0.5044850000000  0.4537980000000  0.4830690000000 1.0
C      1  0.4513750000000  0.4369770000000  0.5217480000000 1.0
C      1  0.4227400000000  0.4719040000000  0.5030290000000 1.0
C      1  0.4859000000000  0.5008800000000  0.4123440000000 1.0
C      1  0.5649420000000  0.4809320000000  0.4560010000000 1.0
C      1  0.5147530000000  0.5332070000000  0.5772270000000 1.0
C      1  0.4739380000000  0.5106140000000  0.5633730000000 1.0
C      1  0.5609560000000  0.4526310000000  0.4649960000000 1.0
C      1  0.5326720000000  0.5019910000000  0.4873580000000 1.0
C      1  0.4766780000000  0.4599700000000  0.4831000000000 1.0
C      1  0.4113880000000  0.4894710000000  0.5255750000000 1.0
C      1  0.5181170000000  0.5428990000000  0.4354950000000 1.0
C      1  0.5575870000000  0.5092230000000  0.5051050000000 1.0
C      1  0.5040890000000  0.5091810000000  0.5374820000000 1.0
C      1  0.5775380000000  0.5090140000000  0.4621420000000 1.0
C      1  0.5624560000000  0.5461350000000  0.5426700000000 1.0
C      1  0.4270500000000  0.4429000000000  0.5096820000000 1.0
C      1  0.5197260000000  0.5020410000000  0.5668400000000 1.0
C      1  0.4636160000000  0.4880800000000  0.4689330000000 1.0
C      1  0.4675250000000  0.5179850000000  0.4334720000000 1.0
C      1  0.4975010000000  0.4893950000000  0.4663260000000 1.0
C      1  0.3980990000000  0.5124430000000  0.5164040000000 1.0
C      1  0.5600310000000  0.4372080000000  0.5430510000000 1.0
C      1  0.5067870000000  0.4903040000000  0.4990920000000 1.0
C      1  0.5890490000000  0.5505620000000  0.5478060000000 1.0
C      1  0.4289610000000  0.4919500000000  0.5472600000000 1.0
C      1  0.5370020000000  0.4397580000000  0.4547170000000 1.0
C      1  0.5404590000000  0.4633620000000  0.5910700000000 1.0
C      1  0.5908250000000  0.4646080000000  0.5048390000000 1.0
C      1  0.4334460000000  0.5527390000000  0.3507520000000 1.0
C      1  0.4068340000000  0.4248430000000  0.5058500000000 1.0
C      1  0.4119990000000  0.5314060000000  0.5025420000000 1.0
C      1  0.5262830000000  0.5313750000000  0.5390760000000 1.0
C      1  0.4810710000000  0.5570080000000  0.4767970000000 1.0
END
