TITL C-2847950-6905-414 0.00176150499393717 125000 -715.550663790194 0 0 135 (C1) n - 1
REM
REM in /home/bkarasulu/work/CARBON/AIRSS/Generating-Clusters/AIREBO/with-SteepDescent/Only-C1/SD-CG-opt/Try1-1.4A-POS3A/HFTN-CG
REM
REM
REM
REM
REM
REM ./C.cell (11c1c37f851c82e70ff6c80c92926a4b)
REM
REM compiler GCC version 9.2.1 20190827 (Red Hat 9.2.1-1)
REM options -cpp -mtune=generic -march=x86-64 -g -O0 -fpre-include=/usr/include/finclude/math-vector-fortran.h
REM seed -1917649770 -1445926877 -2043571411 -1189296359 -335051835 -1220875241 -454775210 -2045325977 -1685579732 -1997101742 136514877 -1767244960 2038696459 -667941666 2030571297 -1417754407 -752041264 1449906808 -1772537621 -1708778354 -761320623 1544005244 -1001191753 1567091737 -1717649864 153072031 140833652 677317078 -1749440161 -1915674496 1409938786 -568292956 -479101114
REM
CELL 1.54180   50.00000   50.00000   50.00000   90.00000   90.00000   90.00000
LATT -1
SFAC C  
C      1  0.4102670000000  0.5047180000000  0.4897820000000 1.0
C      1  0.5233350000000  0.4181980000000  0.5351440000000 1.0
C      1  0.4430050000000  0.5590180000000  0.5485190000000 1.0
C      1  0.4775410000000  0.5189750000000  0.4845850000000 1.0
C      1  0.4753320000000  0.5906210000000  0.4862370000000 1.0
C      1  0.5645810000000  0.5314800000000  0.5726640000000 1.0
C      1  0.4861940000000  0.4372020000000  0.4998310000000 1.0
C      1  0.5139850000000  0.5592130000000  0.4751080000000 1.0
C      1  0.5127400000000  0.4811800000000  0.5813030000000 1.0
C      1  0.4265340000000  0.4592810000000  0.5424850000000 1.0
C      1  0.4672060000000  0.5775090000000  0.4559810000000 1.0
C      1  0.5405320000000  0.4341940000000  0.4867600000000 1.0
C      1  0.4928260000000  0.4972470000000  0.5314710000000 1.0
C      1  0.4756270000000  0.4711420000000  0.5207610000000 1.0
C      1  0.4842740000000  0.4041800000000  0.4940820000000 1.0
C      1  0.4986840000000  0.4520670000000  0.5752020000000 1.0
C      1  0.4471890000000  0.5515280000000  0.4456400000000 1.0
C      1  0.5502520000000  0.4729720000000  0.4875360000000 1.0
C      1  0.5032270000000  0.4533870000000  0.4679740000000 1.0
C      1  0.5017050000000  0.5576440000000  0.4470140000000 1.0
C      1  0.4608770000000  0.5814480000000  0.5406240000000 1.0
C      1  0.5301890000000  0.5171100000000  0.4929540000000 1.0
C      1  0.5911360000000  0.4763730000000  0.5731710000000 1.0
C      1  0.5806320000000  0.4650630000000  0.4984090000000 1.0
C      1  0.4775730000000  0.4742670000000  0.5604320000000 1.0
C      1  0.5153930000000  0.5420150000000  0.5107610000000 1.0
C      1  0.5015890000000  0.5550300000000  0.5776360000000 1.0
C      1  0.5407410000000  0.5935760000000  0.4889420000000 1.0
C      1  0.4375710000000  0.4567580000000  0.4811930000000 1.0
C      1  0.4648270000000  0.4265300000000  0.5318020000000 1.0
C      1  0.5062160000000  0.5335920000000  0.5951790000000 1.0
C      1  0.5197810000000  0.5844900000000  0.5384950000000 1.0
C      1  0.4853740000000  0.5143200000000  0.5599380000000 1.0
C      1  0.4927600000000  0.5369130000000  0.5356190000000 1.0
C      1  0.4861200000000  0.4096340000000  0.4456260000000 1.0
C      1  0.5416380000000  0.5852480000000  0.5600420000000 1.0
C      1  0.4070780000000  0.5055560000000  0.5399880000000 1.0
C      1  0.4469090000000  0.4605400000000  0.5657310000000 1.0
C      1  0.4170200000000  0.5102570000000  0.4425600000000 1.0
C      1  0.4453260000000  0.4865750000000  0.5840440000000 1.0
C      1  0.5369760000000  0.5655830000000  0.5078820000000 1.0
C      1  0.5437970000000  0.5652160000000  0.4166700000000 1.0
C      1  0.5447350000000  0.4867870000000  0.5911140000000 1.0
C      1  0.5172210000000  0.4908280000000  0.5500240000000 1.0
C      1  0.5130830000000  0.4429940000000  0.4203960000000 1.0
C      1  0.5262170000000  0.4371780000000  0.5632130000000 1.0
C      1  0.4635210000000  0.4001760000000  0.5145550000000 1.0
C      1  0.5847760000000  0.5232050000000  0.5064210000000 1.0
C      1  0.5324670000000  0.4669790000000  0.5127960000000 1.0
C      1  0.4646490000000  0.4370000000000  0.4754460000000 1.0
C      1  0.4788570000000  0.4407470000000  0.4478990000000 1.0
C      1  0.4674950000000  0.5240650000000  0.5167220000000 1.0
C      1  0.5157920000000  0.4260730000000  0.5049860000000 1.0
C      1  0.5504420000000  0.5057560000000  0.5165500000000 1.0
C      1  0.4688700000000  0.4567370000000  0.4243150000000 1.0
C      1  0.5673390000000  0.5519050000000  0.5010070000000 1.0
C      1  0.4703970000000  0.4360500000000  0.5638650000000 1.0
C      1  0.5019910000000  0.5856080000000  0.4907590000000 1.0
C      1  0.5777620000000  0.5220980000000  0.4765410000000 1.0
C      1  0.5148760000000  0.4587220000000  0.5392930000000 1.0
C      1  0.5607330000000  0.5008360000000  0.5645920000000 1.0
C      1  0.4668130000000  0.4920200000000  0.6032700000000 1.0
C      1  0.4551710000000  0.4900340000000  0.5402910000000 1.0
C      1  0.4941490000000  0.5047160000000  0.4298130000000 1.0
C      1  0.5494770000000  0.5189820000000  0.4426740000000 1.0
C      1  0.4481920000000  0.4975560000000  0.5089900000000 1.0
C      1  0.4236300000000  0.5401740000000  0.4315070000000 1.0
C      1  0.5723890000000  0.5466980000000  0.4599630000000 1.0
C      1  0.4264190000000  0.4623740000000  0.4495610000000 1.0
C      1  0.5016140000000  0.5279270000000  0.4067370000000 1.0
C      1  0.5054460000000  0.4912690000000  0.4541440000000 1.0
C      1  0.5604260000000  0.4396690000000  0.4375990000000 1.0
C      1  0.5675550000000  0.5453240000000  0.4304080000000 1.0
C      1  0.5321930000000  0.4272060000000  0.4350950000000 1.0
C      1  0.5277360000000  0.5865210000000  0.4378850000000 1.0
C      1  0.4094800000000  0.4712890000000  0.4936800000000 1.0
C      1  0.5790930000000  0.4623110000000  0.4467390000000 1.0
C      1  0.4545090000000  0.4846510000000  0.4814820000000 1.0
C      1  0.5041420000000  0.4993570000000  0.4862660000000 1.0
C      1  0.4943170000000  0.4343570000000  0.5396790000000 1.0
C      1  0.4632380000000  0.5226440000000  0.4536700000000 1.0
C      1  0.5442510000000  0.5438510000000  0.4773410000000 1.0
C      1  0.5594750000000  0.5329820000000  0.5281390000000 1.0
C      1  0.5542350000000  0.4535100000000  0.5572280000000 1.0
C      1  0.4516860000000  0.5136600000000  0.5644980000000 1.0
C      1  0.5191650000000  0.4237370000000  0.4630940000000 1.0
C      1  0.5199670000000  0.5521990000000  0.5491680000000 1.0
C      1  0.4405410000000  0.5407380000000  0.5253720000000 1.0
C      1  0.4352000000000  0.4215040000000  0.4824270000000 1.0
C      1  0.4993010000000  0.4878740000000  0.4027170000000 1.0
C      1  0.4917490000000  0.4605600000000  0.4058630000000 1.0
C      1  0.4046150000000  0.4853560000000  0.4624080000000 1.0
C      1  0.5013960000000  0.4676230000000  0.4988310000000 1.0
C      1  0.4788280000000  0.4758780000000  0.4669920000000 1.0
C      1  0.5515980000000  0.4344990000000  0.5325210000000 1.0
C      1  0.5336960000000  0.4824330000000  0.4410640000000 1.0
C      1  0.4358310000000  0.4115210000000  0.5087800000000 1.0
C      1  0.5616240000000  0.4402880000000  0.5074670000000 1.0
C      1  0.4597000000000  0.5863940000000  0.5124540000000 1.0
C      1  0.5296370000000  0.5000170000000  0.4122260000000 1.0
C      1  0.5875760000000  0.4892960000000  0.5471430000000 1.0
C      1  0.5477610000000  0.4816520000000  0.5396600000000 1.0
C      1  0.5539540000000  0.5545520000000  0.5521480000000 1.0
C      1  0.4875570000000  0.5484590000000  0.4927020000000 1.0
C      1  0.5305180000000  0.5164800000000  0.5872370000000 1.0
C      1  0.5309730000000  0.4656570000000  0.4116100000000 1.0
C      1  0.4453710000000  0.4720440000000  0.4297580000000 1.0
C      1  0.4822670000000  0.5647800000000  0.5533460000000 1.0
C      1  0.5412540000000  0.5990560000000  0.4606940000000 1.0
C      1  0.4136170000000  0.5249150000000  0.5140160000000 1.0
C      1  0.4382820000000  0.5686730000000  0.4715240000000 1.0
C      1  0.4469820000000  0.5006650000000  0.4327620000000 1.0
C      1  0.4361590000000  0.5110470000000  0.4706510000000 1.0
C      1  0.5422520000000  0.4560950000000  0.4607980000000 1.0
C      1  0.5522270000000  0.5019300000000  0.4719720000000 1.0
C      1  0.4928240000000  0.5034630000000  0.5899860000000 1.0
C      1  0.5811810000000  0.4912570000000  0.5175760000000 1.0
C      1  0.4942860000000  0.5875390000000  0.4379820000000 1.0
C      1  0.5749060000000  0.5697780000000  0.5289330000000 1.0
C      1  0.5668900000000  0.4897790000000  0.4418170000000 1.0
C      1  0.4258390000000  0.4327480000000  0.5279800000000 1.0
C      1  0.5262360000000  0.5200340000000  0.5582320000000 1.0
C      1  0.5177760000000  0.5984590000000  0.5135350000000 1.0
C      1  0.4864860000000  0.5355240000000  0.4350620000000 1.0
C      1  0.5672440000000  0.4653910000000  0.5816950000000 1.0
C      1  0.4503510000000  0.4500980000000  0.5120070000000 1.0
C      1  0.4187900000000  0.5051460000000  0.5657590000000 1.0
C      1  0.4203870000000  0.4831840000000  0.5223250000000 1.0
C      1  0.5331650000000  0.5331590000000  0.4091740000000 1.0
C      1  0.4983860000000  0.3998280000000  0.4703580000000 1.0
C      1  0.4564590000000  0.5575130000000  0.4980090000000 1.0
C      1  0.5941990000000  0.4601820000000  0.4698330000000 1.0
C      1  0.4293980000000  0.5396670000000  0.4877180000000 1.0
C      1  0.5293110000000  0.5461830000000  0.4403440000000 1.0
C      1  0.4448650000000  0.5444690000000  0.5713360000000 1.0
END
