TITL C-2848507-1641-702 0.000199610054227582 125000 -333.223270304018 0 0 62 (C1) n - 1
REM
REM in /home/bkarasulu/work/CARBON/AIRSS/Generating-Clusters/AIREBO/with-SteepDescent/Only-C1/SD-CG-opt/Try1-1.4A-POS3A/HFTN-CG
REM
REM
REM
REM
REM
REM ./C.cell (11c1c37f851c82e70ff6c80c92926a4b)
REM
REM compiler GCC version 9.2.1 20190827 (Red Hat 9.2.1-1)
REM options -cpp -mtune=generic -march=x86-64 -g -O0 -fpre-include=/usr/include/finclude/math-vector-fortran.h
REM seed 1085099216 1988260449 933843313 -1280192911 1798106759 -1505611594 1559862764 501463876 1133485115 -265753341 -2054736372 1690111149 -1737029211 -813823051 -2109373963 -558113224 -637455845 740255307 1229024752 2035077391 950150254 1353081254 -1599114672 3349237 318741802 -1523119614 -1591644246 -204456251 -253070373 -1616058950 -2114064709 -1531805404 -1010819086
REM
CELL 1.54180   50.00000   50.00000   50.00000   90.00000   90.00000   90.00000
LATT -1
SFAC C  
C      1  0.4395830000000  0.4518430000000  0.5138150000000 1.0
C      1  0.5107180000000  0.4684810000000  0.4336940000000 1.0
C      1  0.5266140000000  0.4509180000000  0.4535450000000 1.0
C      1  0.4745270000000  0.5037090000000  0.4346740000000 1.0
C      1  0.5146000000000  0.5265230000000  0.5240690000000 1.0
C      1  0.5006630000000  0.4620390000000  0.5559880000000 1.0
C      1  0.4789290000000  0.5302230000000  0.5064700000000 1.0
C      1  0.4819860000000  0.5832720000000  0.5107430000000 1.0
C      1  0.5101570000000  0.5566860000000  0.4538100000000 1.0
C      1  0.4247620000000  0.5609260000000  0.5006120000000 1.0
C      1  0.4884880000000  0.5049490000000  0.5271310000000 1.0
C      1  0.4950400000000  0.4403730000000  0.5334380000000 1.0
C      1  0.4944340000000  0.5235780000000  0.4463470000000 1.0
C      1  0.4343880000000  0.4981860000000  0.4873750000000 1.0
C      1  0.4497640000000  0.4717900000000  0.4620260000000 1.0
C      1  0.5757080000000  0.5196430000000  0.5179590000000 1.0
C      1  0.5030760000000  0.5859750000000  0.4974610000000 1.0
C      1  0.4840670000000  0.4219000000000  0.5069400000000 1.0
C      1  0.5179980000000  0.5608950000000  0.4873610000000 1.0
C      1  0.5497860000000  0.4711060000000  0.4681380000000 1.0
C      1  0.5057550000000  0.4668190000000  0.4985870000000 1.0
C      1  0.4935890000000  0.5451920000000  0.5403270000000 1.0
C      1  0.4641910000000  0.5038770000000  0.5495400000000 1.0
C      1  0.5555180000000  0.5470080000000  0.5589180000000 1.0
C      1  0.4915330000000  0.4121550000000  0.4832970000000 1.0
C      1  0.5442110000000  0.4904520000000  0.4405860000000 1.0
C      1  0.4433290000000  0.5305890000000  0.4663250000000 1.0
C      1  0.5961350000000  0.5006830000000  0.5323580000000 1.0
C      1  0.5657900000000  0.5003010000000  0.4613100000000 1.0
C      1  0.4772900000000  0.4808700000000  0.5063450000000 1.0
C      1  0.5240890000000  0.4547090000000  0.5245800000000 1.0
C      1  0.5436170000000  0.4793020000000  0.4998700000000 1.0
C      1  0.5543950000000  0.5216520000000  0.4762360000000 1.0
C      1  0.5595720000000  0.5209480000000  0.5661900000000 1.0
C      1  0.4700870000000  0.5568070000000  0.5222550000000 1.0
C      1  0.4484940000000  0.4824770000000  0.5562470000000 1.0
C      1  0.4983540000000  0.4561030000000  0.5825410000000 1.0
C      1  0.4166120000000  0.5010390000000  0.4637060000000 1.0
C      1  0.4955010000000  0.5373220000000  0.4776110000000 1.0
C      1  0.4948680000000  0.4948260000000  0.4825950000000 1.0
C      1  0.5374430000000  0.5594600000000  0.5416220000000 1.0
C      1  0.4643110000000  0.4581730000000  0.4428260000000 1.0
C      1  0.5254820000000  0.4454370000000  0.4860630000000 1.0
C      1  0.4476570000000  0.5023880000000  0.4498890000000 1.0
C      1  0.5608230000000  0.5339650000000  0.5002440000000 1.0
C      1  0.5638080000000  0.5004520000000  0.5433790000000 1.0
C      1  0.4311310000000  0.5518580000000  0.4756000000000 1.0
C      1  0.4446410000000  0.4580080000000  0.5442910000000 1.0
C      1  0.4627620000000  0.4336240000000  0.5293120000000 1.0
C      1  0.4509170000000  0.4715040000000  0.4950540000000 1.0
C      1  0.5272530000000  0.5033610000000  0.5043730000000 1.0
C      1  0.4653230000000  0.5119560000000  0.4842860000000 1.0
C      1  0.4837230000000  0.4757780000000  0.4307580000000 1.0
C      1  0.4394770000000  0.5590960000000  0.5236230000000 1.0
C      1  0.5434960000000  0.4336950000000  0.5108200000000 1.0
C      1  0.5111840000000  0.5633470000000  0.5519880000000 1.0
C      1  0.5103800000000  0.4243990000000  0.4680580000000 1.0
C      1  0.5361960000000  0.5483200000000  0.5106150000000 1.0
C      1  0.5209450000000  0.5059440000000  0.4429010000000 1.0
C      1  0.5427810000000  0.4816150000000  0.5336890000000 1.0
C      1  0.5210660000000  0.5150710000000  0.4748560000000 1.0
C      1  0.5109800000000  0.4864010000000  0.5447330000000 1.0
END
