TITL C-2848509-3138-643 -0.000565820077378673 125000 -807.84017118158 0 0 152 (C1) n - 1
REM
REM in /home/bkarasulu/work/CARBON/AIRSS/Generating-Clusters/AIREBO/with-SteepDescent/Only-C1/SD-CG-opt/Try1-1.4A-POS3A/HFTN-CG
REM
REM
REM
REM
REM
REM ./C.cell (11c1c37f851c82e70ff6c80c92926a4b)
REM
REM compiler GCC version 9.2.1 20190827 (Red Hat 9.2.1-1)
REM options -cpp -mtune=generic -march=x86-64 -g -O0 -fpre-include=/usr/include/finclude/math-vector-fortran.h
REM seed 1832107024 -257366592 -1272654680 1867926555 1014092688 1204113685 -2078636811 -990651585 1099542025 -2005320278 -1298899294 1376647498 -798361036 1711301306 -1174732459 1381882399 -690970503 -642993766 -504445152 -850404696 -1713113225 619925441 -863088639 471447874 -301843061 -2013530710 871682939 -1638532018 -191493332 -635889945 -1414387173 1179827676 545819061
REM
CELL 1.54180   50.00000   50.00000   50.00000   90.00000   90.00000   90.00000
LATT -1
SFAC C  
C      1  0.4073630000000  0.5088260000000  0.4638410000000 1.0
C      1  0.5352870000000  0.5143050000000  0.4872780000000 1.0
C      1  0.4521610000000  0.5442780000000  0.4123670000000 1.0
C      1  0.4563880000000  0.4150640000000  0.4207030000000 1.0
C      1  0.4485350000000  0.5350510000000  0.4441380000000 1.0
C      1  0.6030230000000  0.4885940000000  0.5155710000000 1.0
C      1  0.4660750000000  0.4823950000000  0.5333110000000 1.0
C      1  0.5756130000000  0.5621340000000  0.5188740000000 1.0
C      1  0.4848170000000  0.4228740000000  0.4608480000000 1.0
C      1  0.5844080000000  0.5616650000000  0.4860320000000 1.0
C      1  0.5631120000000  0.5368390000000  0.4806800000000 1.0
C      1  0.5285570000000  0.4124140000000  0.4164080000000 1.0
C      1  0.5629780000000  0.4766870000000  0.5700580000000 1.0
C      1  0.5608030000000  0.5077990000000  0.4657580000000 1.0
C      1  0.5345630000000  0.5754920000000  0.4459400000000 1.0
C      1  0.5010560000000  0.5820720000000  0.5375540000000 1.0
C      1  0.5552790000000  0.5141330000000  0.4365630000000 1.0
C      1  0.5478560000000  0.5256520000000  0.5849610000000 1.0
C      1  0.4475910000000  0.5267270000000  0.5202330000000 1.0
C      1  0.5143950000000  0.5149640000000  0.4041690000000 1.0
C      1  0.5010270000000  0.4414290000000  0.4840820000000 1.0
C      1  0.6054460000000  0.4921850000000  0.4652440000000 1.0
C      1  0.5152150000000  0.5396490000000  0.4767320000000 1.0
C      1  0.4389280000000  0.4335940000000  0.5334350000000 1.0
C      1  0.5627280000000  0.5060400000000  0.5055950000000 1.0
C      1  0.4181080000000  0.5772420000000  0.4914480000000 1.0
C      1  0.5179160000000  0.4912600000000  0.5841310000000 1.0
C      1  0.4578370000000  0.4886980000000  0.4610130000000 1.0
C      1  0.4679030000000  0.4003050000000  0.4973740000000 1.0
C      1  0.4556290000000  0.5674040000000  0.4371880000000 1.0
C      1  0.4489470000000  0.6005600000000  0.5437130000000 1.0
C      1  0.5043270000000  0.4318260000000  0.4163310000000 1.0
C      1  0.4352860000000  0.4937770000000  0.5795510000000 1.0
C      1  0.6025060000000  0.5370500000000  0.4874910000000 1.0
C      1  0.4785480000000  0.4319820000000  0.4337420000000 1.0
C      1  0.4723430000000  0.5131390000000  0.5334940000000 1.0
C      1  0.5449720000000  0.5655020000000  0.4831260000000 1.0
C      1  0.4124260000000  0.4419220000000  0.4897390000000 1.0
C      1  0.5471700000000  0.5458470000000  0.5279980000000 1.0
C      1  0.5740000000000  0.4650410000000  0.4942910000000 1.0
C      1  0.5211820000000  0.4940910000000  0.4639420000000 1.0
C      1  0.5117010000000  0.5005780000000  0.5075610000000 1.0
C      1  0.5394060000000  0.5482810000000  0.5610150000000 1.0
C      1  0.4199730000000  0.4844620000000  0.4499290000000 1.0
C      1  0.5563080000000  0.4489720000000  0.5641560000000 1.0
C      1  0.5076770000000  0.5869070000000  0.4366750000000 1.0
C      1  0.4899090000000  0.5165870000000  0.3926540000000 1.0
C      1  0.4886930000000  0.4625540000000  0.4604580000000 1.0
C      1  0.4097980000000  0.4734740000000  0.5676540000000 1.0
C      1  0.4621750000000  0.5129100000000  0.4095050000000 1.0
C      1  0.3995080000000  0.5122580000000  0.5227680000000 1.0
C      1  0.4961720000000  0.5853890000000  0.4950840000000 1.0
C      1  0.5117660000000  0.4233330000000  0.5064400000000 1.0
C      1  0.5271930000000  0.5518840000000  0.5061300000000 1.0
C      1  0.5660550000000  0.5683930000000  0.5674880000000 1.0
C      1  0.4628990000000  0.4286440000000  0.5132000000000 1.0
C      1  0.5613460000000  0.5807470000000  0.5412730000000 1.0
C      1  0.5680660000000  0.4782570000000  0.4678620000000 1.0
C      1  0.4646520000000  0.4218260000000  0.5522580000000 1.0
C      1  0.4867190000000  0.5225050000000  0.4765910000000 1.0
C      1  0.4026500000000  0.5254370000000  0.5539520000000 1.0
C      1  0.5921570000000  0.5402170000000  0.5369200000000 1.0
C      1  0.5542650000000  0.4779680000000  0.5182050000000 1.0
C      1  0.4321310000000  0.5733100000000  0.5179800000000 1.0
C      1  0.4783590000000  0.4943460000000  0.5693160000000 1.0
C      1  0.4167490000000  0.4451620000000  0.5168530000000 1.0
C      1  0.5153720000000  0.5032130000000  0.4360610000000 1.0
C      1  0.4642470000000  0.5518770000000  0.5284170000000 1.0
C      1  0.4707830000000  0.5279390000000  0.5896590000000 1.0
C      1  0.4966600000000  0.4573370000000  0.5291940000000 1.0
C      1  0.4575120000000  0.5735620000000  0.4960300000000 1.0
C      1  0.4611370000000  0.4910620000000  0.4947740000000 1.0
C      1  0.4914220000000  0.4403780000000  0.5582080000000 1.0
C      1  0.4883480000000  0.4005150000000  0.4794440000000 1.0
C      1  0.5179180000000  0.5622990000000  0.5943420000000 1.0
C      1  0.4829360000000  0.5803890000000  0.4494040000000 1.0
C      1  0.5483630000000  0.5134990000000  0.5355030000000 1.0
C      1  0.5206220000000  0.5876150000000  0.4745030000000 1.0
C      1  0.5155300000000  0.4009850000000  0.5392670000000 1.0
C      1  0.5490660000000  0.4967890000000  0.5829720000000 1.0
C      1  0.4506620000000  0.5431960000000  0.5680450000000 1.0
C      1  0.5342500000000  0.5892990000000  0.5399940000000 1.0
C      1  0.5245680000000  0.4983750000000  0.5515370000000 1.0
C      1  0.4199800000000  0.4732230000000  0.5213100000000 1.0
C      1  0.5088410000000  0.4646000000000  0.5964670000000 1.0
C      1  0.4768650000000  0.6075460000000  0.4893610000000 1.0
C      1  0.5746350000000  0.4844760000000  0.5432700000000 1.0
C      1  0.4357660000000  0.4636320000000  0.4281810000000 1.0
C      1  0.5670450000000  0.4368960000000  0.4290610000000 1.0
C      1  0.5468670000000  0.4244450000000  0.4914160000000 1.0
C      1  0.5379840000000  0.4302640000000  0.5748220000000 1.0
C      1  0.4573900000000  0.5913550000000  0.4689790000000 1.0
C      1  0.4367760000000  0.4806440000000  0.5482170000000 1.0
C      1  0.5497480000000  0.4847240000000  0.4252490000000 1.0
C      1  0.5667680000000  0.5690440000000  0.4572650000000 1.0
C      1  0.4724350000000  0.4957630000000  0.6003840000000 1.0
C      1  0.4897670000000  0.5621890000000  0.4753510000000 1.0
C      1  0.4932850000000  0.5356470000000  0.4311560000000 1.0
C      1  0.4851750000000  0.4927330000000  0.4243830000000 1.0
C      1  0.4455130000000  0.4952970000000  0.4300020000000 1.0
C      1  0.4488550000000  0.4512880000000  0.5604080000000 1.0
C      1  0.4342430000000  0.5668680000000  0.4642210000000 1.0
C      1  0.5229410000000  0.5357850000000  0.5979380000000 1.0
C      1  0.4559090000000  0.4683090000000  0.5889880000000 1.0
C      1  0.5172880000000  0.5738350000000  0.5648140000000 1.0
C      1  0.4881200000000  0.4136830000000  0.5288860000000 1.0
C      1  0.4282440000000  0.5116450000000  0.5372810000000 1.0
C      1  0.5733730000000  0.4349490000000  0.4895560000000 1.0
C      1  0.3698810000000  0.4893970000000  0.4907740000000 1.0
C      1  0.5922950000000  0.4735890000000  0.4481720000000 1.0
C      1  0.4254700000000  0.5341570000000  0.4647710000000 1.0
C      1  0.5151040000000  0.4203910000000  0.5614870000000 1.0
C      1  0.4266970000000  0.5237450000000  0.5751820000000 1.0
C      1  0.5212800000000  0.5357250000000  0.4440950000000 1.0
C      1  0.5031160000000  0.4770050000000  0.4001530000000 1.0
C      1  0.4429360000000  0.5676360000000  0.5497140000000 1.0
C      1  0.4955480000000  0.5575540000000  0.5146460000000 1.0
C      1  0.4749500000000  0.5150330000000  0.4479640000000 1.0
C      1  0.4588360000000  0.4566160000000  0.4756020000000 1.0
C      1  0.4271430000000  0.4921190000000  0.4943140000000 1.0
C      1  0.4280270000000  0.4647610000000  0.4741310000000 1.0
C      1  0.4817160000000  0.5323910000000  0.5585390000000 1.0
C      1  0.4922430000000  0.4893460000000  0.4811260000000 1.0
C      1  0.5308260000000  0.4882890000000  0.4024130000000 1.0
C      1  0.5426920000000  0.4633150000000  0.4508720000000 1.0
C      1  0.5239870000000  0.4693220000000  0.5128930000000 1.0
C      1  0.4695090000000  0.4634920000000  0.4323910000000 1.0
C      1  0.5004210000000  0.5252340000000  0.5240810000000 1.0
C      1  0.5142060000000  0.4454060000000  0.4458930000000 1.0
C      1  0.5462680000000  0.4193640000000  0.4361700000000 1.0
C      1  0.4859850000000  0.4545580000000  0.5844100000000 1.0
C      1  0.5480310000000  0.5992930000000  0.4905890000000 1.0
C      1  0.5007970000000  0.5150110000000  0.5957800000000 1.0
C      1  0.5238750000000  0.4649620000000  0.4791710000000 1.0
C      1  0.5199100000000  0.3980490000000  0.4860920000000 1.0
C      1  0.5821160000000  0.5149850000000  0.5393270000000 1.0
C      1  0.5275530000000  0.3884350000000  0.5178780000000 1.0
C      1  0.4693380000000  0.5854000000000  0.5257590000000 1.0
C      1  0.5622880000000  0.4435400000000  0.5369000000000 1.0
C      1  0.4965700000000  0.4848540000000  0.5481440000000 1.0
C      1  0.5934030000000  0.5071970000000  0.4909690000000 1.0
C      1  0.4387900000000  0.5238670000000  0.4906840000000 1.0
C      1  0.5506240000000  0.5468160000000  0.4372230000000 1.0
C      1  0.3946670000000  0.5021780000000  0.4931170000000 1.0
C      1  0.5886770000000  0.4597620000000  0.5245090000000 1.0
C      1  0.5004390000000  0.4512090000000  0.3935510000000 1.0
C      1  0.5138160000000  0.5290440000000  0.5539850000000 1.0
C      1  0.4643460000000  0.5435680000000  0.4881240000000 1.0
C      1  0.4702740000000  0.4608170000000  0.5073620000000 1.0
C      1  0.5307000000000  0.4216750000000  0.4640320000000 1.0
C      1  0.5749100000000  0.4640130000000  0.4273750000000 1.0
C      1  0.5379010000000  0.4387990000000  0.5184430000000 1.0
END
