TITL C-2848509-3138-125 -0.00121360541123925 125000 -357.378948764027 0 0 72 (C1) n - 1
REM
REM in /home/bkarasulu/work/CARBON/AIRSS/Generating-Clusters/AIREBO/with-SteepDescent/Only-C1/SD-CG-opt/Try1-1.4A-POS3A/HFTN-CG
REM
REM
REM
REM
REM
REM ./C.cell (11c1c37f851c82e70ff6c80c92926a4b)
REM
REM compiler GCC version 9.2.1 20190827 (Red Hat 9.2.1-1)
REM options -cpp -mtune=generic -march=x86-64 -g -O0 -fpre-include=/usr/include/finclude/math-vector-fortran.h
REM seed 1489803892 -1367877923 382701601 -1612812015 -519012434 1845160639 -1753752863 -676929679 -1355344317 -1296786800 1223167816 486362797 51425809 -1357082428 -496997615 1357952936 24838778 1449617138 -1312251432 851683813 152924591 656865452 449931168 -616831800 -1516418818 778354968 921403324 780090574 -280948686 -65357515 -440728302 2113711579 1827547241
REM
CELL 1.54180   50.00000   50.00000   50.00000   90.00000   90.00000   90.00000
LATT -1
SFAC C  
C      1  0.4959540000000  0.5364450000000  0.5567000000000 1.0
C      1  0.4646080000000  0.5368270000000  0.4626600000000 1.0
C      1  0.5133230000000  0.4679150000000  0.4499040000000 1.0
C      1  0.5695980000000  0.4900300000000  0.5285490000000 1.0
C      1  0.4522470000000  0.5082970000000  0.5591130000000 1.0
C      1  0.5794490000000  0.5266610000000  0.4863250000000 1.0
C      1  0.5951700000000  0.4783030000000  0.5373440000000 1.0
C      1  0.4333190000000  0.4583220000000  0.4662900000000 1.0
C      1  0.5281770000000  0.4408690000000  0.5419120000000 1.0
C      1  0.4528790000000  0.4365940000000  0.4820200000000 1.0
C      1  0.4786160000000  0.4331370000000  0.5467790000000 1.0
C      1  0.4394360000000  0.5271800000000  0.4419300000000 1.0
C      1  0.5121900000000  0.4869640000000  0.4132980000000 1.0
C      1  0.5323130000000  0.6009390000000  0.5104060000000 1.0
C      1  0.5557050000000  0.4544300000000  0.4795060000000 1.0
C      1  0.5345040000000  0.5284780000000  0.4697720000000 1.0
C      1  0.5156690000000  0.5085210000000  0.4310450000000 1.0
C      1  0.5100640000000  0.4241560000000  0.4786080000000 1.0
C      1  0.4972930000000  0.5021280000000  0.5858940000000 1.0
C      1  0.4685960000000  0.4911320000000  0.4729960000000 1.0
C      1  0.4472670000000  0.5627740000000  0.5294920000000 1.0
C      1  0.5174160000000  0.5501790000000  0.5010160000000 1.0
C      1  0.5201850000000  0.4335860000000  0.5096690000000 1.0
C      1  0.4259940000000  0.5247880000000  0.4654490000000 1.0
C      1  0.5476890000000  0.5159590000000  0.5265720000000 1.0
C      1  0.4848520000000  0.4654450000000  0.4683300000000 1.0
C      1  0.4391440000000  0.4828710000000  0.4673150000000 1.0
C      1  0.5509170000000  0.4348880000000  0.4951690000000 1.0
C      1  0.5066330000000  0.4881790000000  0.4929130000000 1.0
C      1  0.4257060000000  0.4800790000000  0.5075740000000 1.0
C      1  0.4534290000000  0.4651450000000  0.5001790000000 1.0
C      1  0.5200540000000  0.4984770000000  0.4632380000000 1.0
C      1  0.5653580000000  0.5335570000000  0.4608130000000 1.0
C      1  0.5013360000000  0.5214680000000  0.4974560000000 1.0
C      1  0.5188510000000  0.4974120000000  0.5693670000000 1.0
C      1  0.4913290000000  0.4636480000000  0.5405580000000 1.0
C      1  0.5276960000000  0.5249000000000  0.5526160000000 1.0
C      1  0.5786650000000  0.5488380000000  0.5027410000000 1.0
C      1  0.4790320000000  0.5198900000000  0.5731500000000 1.0
C      1  0.4336340000000  0.5409070000000  0.5191110000000 1.0
C      1  0.4680600000000  0.5130840000000  0.4989590000000 1.0
C      1  0.4750560000000  0.5636780000000  0.4789250000000 1.0
C      1  0.5273460000000  0.4657990000000  0.5053010000000 1.0
C      1  0.5405930000000  0.4772250000000  0.5309490000000 1.0
C      1  0.5191040000000  0.4715000000000  0.5537230000000 1.0
C      1  0.5640550000000  0.5038520000000  0.4986940000000 1.0
C      1  0.4753740000000  0.4448030000000  0.4257440000000 1.0
C      1  0.4673600000000  0.4431100000000  0.4519390000000 1.0
C      1  0.4288630000000  0.5217920000000  0.5385280000000 1.0
C      1  0.4493080000000  0.4784850000000  0.5668990000000 1.0
C      1  0.5481190000000  0.5541480000000  0.5114900000000 1.0
C      1  0.4849100000000  0.4417160000000  0.4926890000000 1.0
C      1  0.5486440000000  0.5567830000000  0.4775630000000 1.0
C      1  0.5047410000000  0.5339610000000  0.4280370000000 1.0
C      1  0.5182990000000  0.5015980000000  0.5218950000000 1.0
C      1  0.5491090000000  0.4876140000000  0.4771980000000 1.0
C      1  0.4653850000000  0.4584910000000  0.5604960000000 1.0
C      1  0.4682600000000  0.5203840000000  0.5321690000000 1.0
C      1  0.4874210000000  0.5586140000000  0.5025580000000 1.0
C      1  0.4778270000000  0.5529830000000  0.5337380000000 1.0
C      1  0.4432250000000  0.5322610000000  0.4905900000000 1.0
C      1  0.4526100000000  0.4921790000000  0.5208760000000 1.0
C      1  0.4814490000000  0.5465120000000  0.4347520000000 1.0
C      1  0.4967450000000  0.4629690000000  0.4210730000000 1.0
C      1  0.5445630000000  0.5522710000000  0.5425350000000 1.0
C      1  0.5208090000000  0.4353290000000  0.4560790000000 1.0
C      1  0.4895290000000  0.4241070000000  0.5214080000000 1.0
C      1  0.5177850000000  0.5792380000000  0.5183880000000 1.0
C      1  0.4845440000000  0.4701080000000  0.5113960000000 1.0
C      1  0.4903680000000  0.5148600000000  0.4659510000000 1.0
C      1  0.5469640000000  0.4718530000000  0.4468840000000 1.0
C      1  0.4992790000000  0.5783740000000  0.5387940000000 1.0
END
