TITL C-2847946-5639-434 -0.103277594662674 125000 -267.528364067563 0 0 47 (C1) n - 1
REM
REM in /home/bkarasulu/work/CARBON/AIRSS/Generating-Clusters/AIREBO/with-SteepDescent/Only-C1/SD-CG-opt/Try1-1.4A-POS3A/HFTN-CG
REM
REM
REM
REM
REM
REM ./C.cell (11c1c37f851c82e70ff6c80c92926a4b)
REM
REM compiler GCC version 9.2.1 20190827 (Red Hat 9.2.1-1)
REM options -cpp -mtune=generic -march=x86-64 -g -O0 -fpre-include=/usr/include/finclude/math-vector-fortran.h
REM seed -653878126 -1974852194 1902920068 -1604185019 -1449116259 681773004 1735967210 -928406202 902134643 547844645 1266268616 -1782708720 1991367333 -263838091 -1280003600 2019495374 704660202 -984056814 -482227381 2071362953 113730788 -269833327 -1360551129 1419985639 82769521 1900479248 -283728274 1725889862 -93147279 925866754 -1427377896 181293971 209157114
REM
CELL 1.54180   50.00000   50.00000   50.00000   90.00000   90.00000   90.00000
LATT -1
SFAC C  
C      1  0.4528540000000  0.4614680000000  0.5392870000000 1.0
C      1  0.4572390000000  0.5377920000000  0.4850480000000 1.0
C      1  0.5193080000000  0.5596220000000  0.5039140000000 1.0
C      1  0.4922180000000  0.4439840000000  0.4580670000000 1.0
C      1  0.4336770000000  0.5316400000000  0.4430710000000 1.0
C      1  0.4702620000000  0.5626220000000  0.4854070000000 1.0
C      1  0.4735210000000  0.4207060000000  0.4741010000000 1.0
C      1  0.5246550000000  0.4095960000000  0.4320270000000 1.0
C      1  0.4940410000000  0.5733210000000  0.4933020000000 1.0
C      1  0.5060860000000  0.5158290000000  0.4474640000000 1.0
C      1  0.5665400000000  0.4924550000000  0.4473210000000 1.0
C      1  0.4638850000000  0.4969970000000  0.4588170000000 1.0
C      1  0.5071550000000  0.5067890000000  0.4940730000000 1.0
C      1  0.4938000000000  0.4962390000000  0.5565230000000 1.0
C      1  0.4784990000000  0.4994470000000  0.5026970000000 1.0
C      1  0.5604020000000  0.5352550000000  0.4809450000000 1.0
C      1  0.4963730000000  0.4793830000000  0.5789010000000 1.0
C      1  0.4765000000000  0.4624230000000  0.5174350000000 1.0
C      1  0.4340710000000  0.5089860000000  0.5230890000000 1.0
C      1  0.4439340000000  0.4642620000000  0.5014340000000 1.0
C      1  0.4877760000000  0.4946310000000  0.4438400000000 1.0
C      1  0.4649740000000  0.4811370000000  0.4840230000000 1.0
C      1  0.5270170000000  0.4624440000000  0.4306380000000 1.0
C      1  0.5162410000000  0.5219240000000  0.4728120000000 1.0
C      1  0.4327830000000  0.4807500000000  0.5254590000000 1.0
C      1  0.5988760000000  0.5037060000000  0.5138630000000 1.0
C      1  0.5339820000000  0.5421880000000  0.4812680000000 1.0
C      1  0.4987390000000  0.4695440000000  0.4397900000000 1.0
C      1  0.4766190000000  0.4507130000000  0.4861840000000 1.0
C      1  0.5181770000000  0.4795990000000  0.5947110000000 1.0
C      1  0.4894280000000  0.5240600000000  0.5575360000000 1.0
C      1  0.5243110000000  0.5075470000000  0.5206840000000 1.0
C      1  0.5763780000000  0.5125470000000  0.5013030000000 1.0
C      1  0.4578180000000  0.4520220000000  0.5646490000000 1.0
C      1  0.5711190000000  0.5081450000000  0.4687160000000 1.0
C      1  0.5491730000000  0.4785430000000  0.4320940000000 1.0
C      1  0.5172600000000  0.4345000000000  0.4396270000000 1.0
C      1  0.5130080000000  0.5434060000000  0.5611180000000 1.0
C      1  0.5113550000000  0.5382400000000  0.5275440000000 1.0
C      1  0.4980900000000  0.4866390000000  0.5271920000000 1.0
C      1  0.4506190000000  0.5223120000000  0.4618830000000 1.0
C      1  0.5516150000000  0.5225390000000  0.5177930000000 1.0
C      1  0.5481270000000  0.5502120000000  0.5177990000000 1.0
C      1  0.4776240000000  0.5355550000000  0.5319270000000 1.0
C      1  0.4601780000000  0.5221630000000  0.5112760000000 1.0
C      1  0.5292830000000  0.5535940000000  0.5797410000000 1.0
C      1  0.4744080000000  0.4625210000000  0.5836090000000 1.0
END
