TITL C-2848505-4874-7 0.000309698936600591 125000 -881.241872198557 0 0 165 (C1) n - 1
REM
REM in /home/bkarasulu/work/CARBON/AIRSS/Generating-Clusters/AIREBO/with-SteepDescent/Only-C1/SD-CG-opt/Try1-1.4A-POS3A/HFTN-CG
REM
REM
REM
REM
REM
REM ./C.cell (11c1c37f851c82e70ff6c80c92926a4b)
REM
REM compiler GCC version 9.2.1 20190827 (Red Hat 9.2.1-1)
REM options -cpp -mtune=generic -march=x86-64 -g -O0 -fpre-include=/usr/include/finclude/math-vector-fortran.h
REM seed 146382537 -1157315986 693208540 -1187760725 -231185979 67847877 223403785 -327180723 -1555865034 -1648773554 1966244366 1420879989 122378320 -102387877 -590017291 -133100442 1518940309 -884769817 591880834 626822495 -77862231 -1624881848 -321289285 -1158066506 1305159104 -240720440 1714172476 618532613 913303649 1646074014 1009824061 -1179012123 -639653350
REM
CELL 1.54180   50.00000   50.00000   50.00000   90.00000   90.00000   90.00000
LATT -1
SFAC C  
C      1  0.5481400000000  0.4632500000000  0.4173580000000 1.0
C      1  0.5551650000000  0.5534230000000  0.4958270000000 1.0
C      1  0.4375390000000  0.4236820000000  0.5629500000000 1.0
C      1  0.5221260000000  0.3987310000000  0.5022970000000 1.0
C      1  0.5619950000000  0.5889600000000  0.5344420000000 1.0
C      1  0.4050320000000  0.5321200000000  0.5215840000000 1.0
C      1  0.4721830000000  0.5719800000000  0.4199240000000 1.0
C      1  0.4126790000000  0.4474420000000  0.5565310000000 1.0
C      1  0.5967930000000  0.5163960000000  0.5439620000000 1.0
C      1  0.4774890000000  0.5516050000000  0.4971100000000 1.0
C      1  0.4621910000000  0.5730680000000  0.5167310000000 1.0
C      1  0.3776850000000  0.4819390000000  0.5207040000000 1.0
C      1  0.5199940000000  0.5197380000000  0.5893100000000 1.0
C      1  0.4222910000000  0.5027010000000  0.4325630000000 1.0
C      1  0.4593370000000  0.4364470000000  0.4766910000000 1.0
C      1  0.5980920000000  0.5346800000000  0.4952680000000 1.0
C      1  0.4466070000000  0.5162930000000  0.5146010000000 1.0
C      1  0.5044500000000  0.4298970000000  0.5744080000000 1.0
C      1  0.4245600000000  0.5598160000000  0.5244580000000 1.0
C      1  0.4022710000000  0.4987790000000  0.5285530000000 1.0
C      1  0.4991100000000  0.5550810000000  0.4439730000000 1.0
C      1  0.4657650000000  0.5227720000000  0.3843950000000 1.0
C      1  0.4885530000000  0.3854790000000  0.5194460000000 1.0
C      1  0.5764600000000  0.5482400000000  0.5309210000000 1.0
C      1  0.5566920000000  0.5386380000000  0.5640440000000 1.0
C      1  0.5206200000000  0.5327100000000  0.4521450000000 1.0
C      1  0.4759990000000  0.6006930000000  0.5309610000000 1.0
C      1  0.4436260000000  0.4570000000000  0.5668830000000 1.0
C      1  0.5536320000000  0.5411870000000  0.4509490000000 1.0
C      1  0.5058210000000  0.4854570000000  0.4056270000000 1.0
C      1  0.4823710000000  0.4370060000000  0.5017030000000 1.0
C      1  0.4885420000000  0.5178210000000  0.5979620000000 1.0
C      1  0.5119670000000  0.5130240000000  0.5367300000000 1.0
C      1  0.5903860000000  0.5173450000000  0.4327960000000 1.0
C      1  0.5943170000000  0.4655620000000  0.5478990000000 1.0
C      1  0.5758500000000  0.5854250000000  0.5074130000000 1.0
C      1  0.5280800000000  0.5409780000000  0.5752510000000 1.0
C      1  0.5743400000000  0.5557170000000  0.4710460000000 1.0
C      1  0.4118220000000  0.4482170000000  0.5230120000000 1.0
C      1  0.5780960000000  0.4676640000000  0.5193530000000 1.0
C      1  0.5030040000000  0.5337850000000  0.5112630000000 1.0
C      1  0.5901430000000  0.4520480000000  0.4668150000000 1.0
C      1  0.5403800000000  0.4965740000000  0.5867260000000 1.0
C      1  0.5682350000000  0.5096390000000  0.4115220000000 1.0
C      1  0.4974980000000  0.4590630000000  0.6140890000000 1.0
C      1  0.5355880000000  0.5094520000000  0.4838650000000 1.0
C      1  0.5310730000000  0.5826620000000  0.4375870000000 1.0
C      1  0.5039360000000  0.4818020000000  0.5476130000000 1.0
C      1  0.4637210000000  0.4789870000000  0.4896620000000 1.0
C      1  0.4845830000000  0.5307850000000  0.5464230000000 1.0
C      1  0.4709810000000  0.4278750000000  0.5674290000000 1.0
C      1  0.5416890000000  0.5095750000000  0.5546540000000 1.0
C      1  0.4924220000000  0.5973040000000  0.5070030000000 1.0
C      1  0.5923460000000  0.5594230000000  0.5089700000000 1.0
C      1  0.4951020000000  0.5224130000000  0.3954090000000 1.0
C      1  0.5570450000000  0.4292870000000  0.4802260000000 1.0
C      1  0.4842190000000  0.5172020000000  0.4683050000000 1.0
C      1  0.5246830000000  0.4819510000000  0.4296950000000 1.0
C      1  0.4408330000000  0.4628110000000  0.5331120000000 1.0
C      1  0.4118690000000  0.5256820000000  0.4541400000000 1.0
C      1  0.4929890000000  0.3906650000000  0.4891740000000 1.0
C      1  0.5665890000000  0.4854410000000  0.4353560000000 1.0
C      1  0.4507600000000  0.5242510000000  0.4078210000000 1.0
C      1  0.4801390000000  0.5677630000000  0.4672100000000 1.0
C      1  0.4208680000000  0.5016110000000  0.5017880000000 1.0
C      1  0.4697380000000  0.4785290000000  0.5417270000000 1.0
C      1  0.5660040000000  0.5873670000000  0.4786120000000 1.0
C      1  0.4477730000000  0.5609630000000  0.4593010000000 1.0
C      1  0.4932000000000  0.4131770000000  0.5493480000000 1.0
C      1  0.4360680000000  0.4879330000000  0.5788220000000 1.0
C      1  0.5428690000000  0.4600960000000  0.4777630000000 1.0
C      1  0.5177970000000  0.5840520000000  0.5123420000000 1.0
C      1  0.5863170000000  0.5078090000000  0.5130540000000 1.0
C      1  0.5517430000000  0.5078690000000  0.4539850000000 1.0
C      1  0.5758640000000  0.4357420000000  0.5078010000000 1.0
C      1  0.5020630000000  0.5823300000000  0.4242690000000 1.0
C      1  0.5383650000000  0.5122380000000  0.5153070000000 1.0
C      1  0.5649730000000  0.4241600000000  0.5379370000000 1.0
C      1  0.5357080000000  0.5457760000000  0.4077460000000 1.0
C      1  0.5059340000000  0.5024510000000  0.4477280000000 1.0
C      1  0.5451780000000  0.5198030000000  0.3987360000000 1.0
C      1  0.4752490000000  0.4587950000000  0.5688800000000 1.0
C      1  0.5290480000000  0.4704050000000  0.5923380000000 1.0
C      1  0.5796140000000  0.5159720000000  0.5653520000000 1.0
C      1  0.5214400000000  0.5052430000000  0.3883770000000 1.0
C      1  0.5751340000000  0.4674610000000  0.5680030000000 1.0
C      1  0.5261100000000  0.4422760000000  0.4254380000000 1.0
C      1  0.5661870000000  0.4597380000000  0.4563810000000 1.0
C      1  0.5081600000000  0.5450490000000  0.4127280000000 1.0
C      1  0.4591280000000  0.5027820000000  0.5608230000000 1.0
C      1  0.4772130000000  0.5941470000000  0.4843590000000 1.0
C      1  0.4662480000000  0.4186720000000  0.4327280000000 1.0
C      1  0.5208370000000  0.5399690000000  0.4831040000000 1.0
C      1  0.5466340000000  0.4562710000000  0.5254500000000 1.0
C      1  0.4024650000000  0.4574670000000  0.4699160000000 1.0
C      1  0.4434940000000  0.4573790000000  0.4400740000000 1.0
C      1  0.5037350000000  0.4287370000000  0.5231630000000 1.0
C      1  0.4435640000000  0.5640670000000  0.5508410000000 1.0
C      1  0.5357240000000  0.4230450000000  0.5218170000000 1.0
C      1  0.5986270000000  0.4916650000000  0.4489610000000 1.0
C      1  0.4158040000000  0.5423730000000  0.5521780000000 1.0
C      1  0.4827910000000  0.4786490000000  0.4550870000000 1.0
C      1  0.4639890000000  0.3898630000000  0.5301370000000 1.0
C      1  0.4971170000000  0.4504790000000  0.4227450000000 1.0
C      1  0.5601240000000  0.4946170000000  0.5302700000000 1.0
C      1  0.4101340000000  0.5288260000000  0.4880610000000 1.0
C      1  0.5439850000000  0.4001810000000  0.4824960000000 1.0
C      1  0.4554900000000  0.4970820000000  0.4277400000000 1.0
C      1  0.5205660000000  0.4573010000000  0.5647500000000 1.0
C      1  0.4587360000000  0.5465660000000  0.4238300000000 1.0
C      1  0.4851300000000  0.5135360000000  0.4250380000000 1.0
C      1  0.5070120000000  0.4605800000000  0.5225910000000 1.0
C      1  0.5050110000000  0.4355980000000  0.4589910000000 1.0
C      1  0.5304730000000  0.5715840000000  0.4877940000000 1.0
C      1  0.4514970000000  0.5337890000000  0.4901710000000 1.0
C      1  0.4230590000000  0.4736840000000  0.4279740000000 1.0
C      1  0.4773170000000  0.4754440000000  0.4130250000000 1.0
C      1  0.5178850000000  0.5567980000000  0.5313970000000 1.0
C      1  0.4183580000000  0.4823260000000  0.5495750000000 1.0
C      1  0.4512310000000  0.4126920000000  0.5361950000000 1.0
C      1  0.6020320000000  0.4817300000000  0.4997160000000 1.0
C      1  0.4566940000000  0.5508240000000  0.5861730000000 1.0
C      1  0.4888630000000  0.4620600000000  0.4841410000000 1.0
C      1  0.5207280000000  0.5908860000000  0.5605870000000 1.0
C      1  0.5389080000000  0.5905980000000  0.4637960000000 1.0
C      1  0.5469950000000  0.5605160000000  0.4282700000000 1.0
C      1  0.4646280000000  0.5342270000000  0.4524460000000 1.0
C      1  0.4510580000000  0.6020990000000  0.4875030000000 1.0
C      1  0.5698580000000  0.5673650000000  0.5538740000000 1.0
C      1  0.5203250000000  0.4659680000000  0.4568750000000 1.0
C      1  0.5524290000000  0.4491900000000  0.5572690000000 1.0
C      1  0.4284050000000  0.5565810000000  0.4848720000000 1.0
C      1  0.5129770000000  0.4860230000000  0.4834250000000 1.0
C      1  0.4908390000000  0.5073580000000  0.4970860000000 1.0
C      1  0.4518920000000  0.5337830000000  0.5375580000000 1.0
C      1  0.5366290000000  0.4297250000000  0.4530080000000 1.0
C      1  0.5892630000000  0.5278030000000  0.4631550000000 1.0
C      1  0.4198970000000  0.5565550000000  0.4459580000000 1.0
C      1  0.4080660000000  0.4309870000000  0.4764130000000 1.0
C      1  0.4549910000000  0.4362880000000  0.5172360000000 1.0
C      1  0.4497630000000  0.4855750000000  0.4592750000000 1.0
C      1  0.4876650000000  0.4962580000000  0.5737400000000 1.0
C      1  0.4319640000000  0.4477990000000  0.4950240000000 1.0
C      1  0.4583340000000  0.5021540000000  0.6002830000000 1.0
C      1  0.5301100000000  0.4689690000000  0.5044560000000 1.0
C      1  0.4408870000000  0.5291210000000  0.5693890000000 1.0
C      1  0.5695910000000  0.5096520000000  0.4835090000000 1.0
C      1  0.5698830000000  0.4930360000000  0.5776160000000 1.0
C      1  0.4250790000000  0.4782410000000  0.4815070000000 1.0
C      1  0.3833120000000  0.4577670000000  0.5150220000000 1.0
C      1  0.6047900000000  0.4759780000000  0.4723830000000 1.0
C      1  0.4320540000000  0.5815310000000  0.5032870000000 1.0
C      1  0.4841040000000  0.4726400000000  0.5955980000000 1.0
C      1  0.4680610000000  0.4954470000000  0.5141850000000 1.0
C      1  0.4764310000000  0.5637880000000  0.5456340000000 1.0
C      1  0.4941770000000  0.4066060000000  0.4601460000000 1.0
C      1  0.5344400000000  0.5945400000000  0.5365200000000 1.0
C      1  0.4414530000000  0.5167260000000  0.4647050000000 1.0
C      1  0.5055530000000  0.5605460000000  0.5628810000000 1.0
C      1  0.5455720000000  0.5412480000000  0.5227580000000 1.0
C      1  0.4746880000000  0.4463930000000  0.4479970000000 1.0
C      1  0.4846680000000  0.5476930000000  0.5865650000000 1.0
C      1  0.4660450000000  0.4054360000000  0.4751050000000 1.0
C      1  0.5150130000000  0.3941880000000  0.5347790000000 1.0
C      1  0.5176110000000  0.4416880000000  0.6013860000000 1.0
END
