TITL C-2847952-8118-241 0.000199773850545446 125000 -203.337025405918 0 0 38 (C1) n - 1
REM
REM in /home/bkarasulu/work/CARBON/AIRSS/Generating-Clusters/AIREBO/with-SteepDescent/Only-C1/SD-CG-opt/Try1-1.4A-POS3A/HFTN-CG
REM
REM
REM
REM
REM
REM ./C.cell (11c1c37f851c82e70ff6c80c92926a4b)
REM
REM compiler GCC version 9.2.1 20190827 (Red Hat 9.2.1-1)
REM options -cpp -mtune=generic -march=x86-64 -g -O0 -fpre-include=/usr/include/finclude/math-vector-fortran.h
REM seed -1136472110 1146015092 120396794 -1895319171 -291809673 -545561679 1290129383 2066801784 1749265193 819957440 1859817899 -936124544 -1193936435 2092657559 309925235 1624210727 -616908974 -1400870292 -137443670 -1476283334 937697676 2013536044 396544531 354604404 -2117274173 1604032110 -566679234 723248083 -1860987376 -1542992228 1871559159 731197176 -1604460647
REM
CELL 1.54180   50.00000   50.00000   50.00000   90.00000   90.00000   90.00000
LATT -1
SFAC C  
C      1  0.5017640000000  0.4590410000000  0.5143190000000 1.0
C      1  0.5521230000000  0.4142980000000  0.4837060000000 1.0
C      1  0.5008260000000  0.4911760000000  0.4572060000000 1.0
C      1  0.5674760000000  0.3930580000000  0.4840980000000 1.0
C      1  0.5472050000000  0.4965820000000  0.5411560000000 1.0
C      1  0.5607400000000  0.5224070000000  0.5015730000000 1.0
C      1  0.5382650000000  0.4372210000000  0.4818300000000 1.0
C      1  0.4192410000000  0.5770790000000  0.4989300000000 1.0
C      1  0.5290100000000  0.4859830000000  0.4755010000000 1.0
C      1  0.5569200000000  0.5505210000000  0.5101830000000 1.0
C      1  0.5689800000000  0.4493450000000  0.5297050000000 1.0
C      1  0.5029980000000  0.5348060000000  0.5351030000000 1.0
C      1  0.5120370000000  0.5075510000000  0.5075950000000 1.0
C      1  0.4719290000000  0.4744870000000  0.5479870000000 1.0
C      1  0.4941370000000  0.4572280000000  0.4821970000000 1.0
C      1  0.3815980000000  0.6163650000000  0.4804430000000 1.0
C      1  0.5318860000000  0.4641580000000  0.4997900000000 1.0
C      1  0.4359130000000  0.5560820000000  0.5002490000000 1.0
C      1  0.5354420000000  0.5145930000000  0.4860830000000 1.0
C      1  0.3942870000000  0.6281350000000  0.5074540000000 1.0
C      1  0.4892960000000  0.4276930000000  0.5519310000000 1.0
C      1  0.4902400000000  0.4884410000000  0.5063260000000 1.0
C      1  0.4759790000000  0.5258380000000  0.5322030000000 1.0
C      1  0.5243560000000  0.4708810000000  0.4451430000000 1.0
C      1  0.5157620000000  0.4492630000000  0.4664650000000 1.0
C      1  0.5683330000000  0.5018920000000  0.5186450000000 1.0
C      1  0.5543570000000  0.4709270000000  0.5200110000000 1.0
C      1  0.5247030000000  0.5114460000000  0.5376670000000 1.0
C      1  0.4572060000000  0.5395840000000  0.5172520000000 1.0
C      1  0.4878080000000  0.4520480000000  0.5398230000000 1.0
C      1  0.4526660000000  0.5042300000000  0.4767870000000 1.0
C      1  0.4449190000000  0.5270960000000  0.4898110000000 1.0
C      1  0.5340310000000  0.4624160000000  0.4186560000000 1.0
C      1  0.4739460000000  0.4971770000000  0.5309450000000 1.0
C      1  0.5247700000000  0.5395870000000  0.5094160000000 1.0
C      1  0.4973740000000  0.5160960000000  0.4402250000000 1.0
C      1  0.4770050000000  0.4859810000000  0.4773970000000 1.0
C      1  0.4044700000000  0.5992880000000  0.4961890000000 1.0
END
