TITL C-2848497-6229-505 -0.00013881163893216 125000 -453.907443090233 0 0 82 (C1) n - 1
REM
REM in /home/bkarasulu/work/CARBON/AIRSS/Generating-Clusters/AIREBO/with-SteepDescent/Only-C1/SD-CG-opt/Try1-1.4A-POS3A/HFTN-CG
REM
REM
REM
REM
REM
REM ./C.cell (11c1c37f851c82e70ff6c80c92926a4b)
REM
REM compiler GCC version 9.2.1 20190827 (Red Hat 9.2.1-1)
REM options -cpp -mtune=generic -march=x86-64 -g -O0 -fpre-include=/usr/include/finclude/math-vector-fortran.h
REM seed -1083481232 641918610 1818665615 2030839235 5612809 9998846 -434723151 613654380 -2053450942 -262111348 312716461 401500769 -1484500431 -1558791438 -1936492632 -902612539 -2035845244 768761200 -655651672 -843913295 -443300872 -480197681 620475723 -1459874805 881055294 -1274789808 -263831771 1817472219 -1536899352 -1230674542 -2025184794 916913705 -739773521
REM
CELL 1.54180   50.00000   50.00000   50.00000   90.00000   90.00000   90.00000
LATT -1
SFAC C  
C      1  0.4829450000000  0.5630270000000  0.5347500000000 1.0
C      1  0.5318270000000  0.5314930000000  0.5059610000000 1.0
C      1  0.4827220000000  0.4897570000000  0.4856160000000 1.0
C      1  0.4623500000000  0.5560340000000  0.5560480000000 1.0
C      1  0.5167720000000  0.5712470000000  0.5232000000000 1.0
C      1  0.4677040000000  0.4454050000000  0.4893640000000 1.0
C      1  0.5036770000000  0.4582690000000  0.5518080000000 1.0
C      1  0.5172640000000  0.5368540000000  0.5677480000000 1.0
C      1  0.4309580000000  0.4747500000000  0.4860970000000 1.0
C      1  0.4651190000000  0.5667720000000  0.5087930000000 1.0
C      1  0.4341800000000  0.5047930000000  0.5519230000000 1.0
C      1  0.5461230000000  0.4224090000000  0.4619530000000 1.0
C      1  0.5213710000000  0.5126600000000  0.4546900000000 1.0
C      1  0.5039880000000  0.4156040000000  0.4817570000000 1.0
C      1  0.4991730000000  0.5200500000000  0.4184320000000 1.0
C      1  0.4360400000000  0.5703420000000  0.4932960000000 1.0
C      1  0.5082910000000  0.5670300000000  0.4426130000000 1.0
C      1  0.5685360000000  0.4463970000000  0.5027770000000 1.0
C      1  0.4255700000000  0.4819340000000  0.5402930000000 1.0
C      1  0.5272120000000  0.4882800000000  0.4790980000000 1.0
C      1  0.5131590000000  0.4157600000000  0.5255600000000 1.0
C      1  0.4416530000000  0.5271170000000  0.4392840000000 1.0
C      1  0.5364510000000  0.5000960000000  0.5061420000000 1.0
C      1  0.4848430000000  0.4530700000000  0.4614170000000 1.0
C      1  0.4764040000000  0.5374060000000  0.5048180000000 1.0
C      1  0.4596070000000  0.5163170000000  0.5235480000000 1.0
C      1  0.5690410000000  0.5211960000000  0.5541680000000 1.0
C      1  0.5594170000000  0.5039740000000  0.5309880000000 1.0
C      1  0.5484520000000  0.5703440000000  0.5201480000000 1.0
C      1  0.5716830000000  0.4686470000000  0.5171630000000 1.0
C      1  0.4630610000000  0.4652840000000  0.5103350000000 1.0
C      1  0.4949800000000  0.5377120000000  0.5845800000000 1.0
C      1  0.5158750000000  0.4265420000000  0.5509210000000 1.0
C      1  0.5423590000000  0.4436440000000  0.5556070000000 1.0
C      1  0.5078030000000  0.5393900000000  0.4399370000000 1.0
C      1  0.4712240000000  0.5336740000000  0.5708510000000 1.0
C      1  0.5478340000000  0.4829390000000  0.4551380000000 1.0
C      1  0.5785560000000  0.5311820000000  0.4988320000000 1.0
C      1  0.4777120000000  0.5977490000000  0.4679020000000 1.0
C      1  0.4948420000000  0.4913670000000  0.4558300000000 1.0
C      1  0.5503370000000  0.5113410000000  0.4369120000000 1.0
C      1  0.5043530000000  0.4921710000000  0.4249730000000 1.0
C      1  0.4438770000000  0.4549000000000  0.5342040000000 1.0
C      1  0.5486160000000  0.4342710000000  0.4878120000000 1.0
C      1  0.5967870000000  0.5007150000000  0.4810330000000 1.0
C      1  0.4803350000000  0.4394630000000  0.5633730000000 1.0
C      1  0.5830420000000  0.4988960000000  0.5094410000000 1.0
C      1  0.4482890000000  0.4941670000000  0.5050790000000 1.0
C      1  0.4672080000000  0.4738230000000  0.4464360000000 1.0
C      1  0.4206570000000  0.4663030000000  0.5123530000000 1.0
C      1  0.5002820000000  0.5808630000000  0.4663870000000 1.0
C      1  0.5569150000000  0.5467380000000  0.5076690000000 1.0
C      1  0.5494500000000  0.4742530000000  0.5425890000000 1.0
C      1  0.5048400000000  0.5431800000000  0.4975490000000 1.0
C      1  0.4935510000000  0.4280030000000  0.4452120000000 1.0
C      1  0.4651680000000  0.4715010000000  0.4161500000000 1.0
C      1  0.4933530000000  0.4885580000000  0.5513680000000 1.0
C      1  0.4575020000000  0.4367750000000  0.5535960000000 1.0
C      1  0.4217060000000  0.5303260000000  0.5541360000000 1.0
C      1  0.5163210000000  0.5819600000000  0.4214320000000 1.0
C      1  0.4583760000000  0.5910120000000  0.4864770000000 1.0
C      1  0.4392570000000  0.4739820000000  0.4607540000000 1.0
C      1  0.4874410000000  0.4876130000000  0.5186510000000 1.0
C      1  0.5757520000000  0.5023570000000  0.4555090000000 1.0
C      1  0.4618840000000  0.5163630000000  0.4840920000000 1.0
C      1  0.5253160000000  0.4911620000000  0.5587640000000 1.0
C      1  0.5191500000000  0.4158530000000  0.4556820000000 1.0
C      1  0.5184880000000  0.4383810000000  0.5007280000000 1.0
C      1  0.5097670000000  0.5424820000000  0.5385240000000 1.0
C      1  0.5058080000000  0.4648690000000  0.4835430000000 1.0
C      1  0.4256730000000  0.5488920000000  0.4793060000000 1.0
C      1  0.5085900000000  0.5718880000000  0.4911190000000 1.0
C      1  0.5882390000000  0.5303020000000  0.4698390000000 1.0
C      1  0.4340690000000  0.5554820000000  0.5533790000000 1.0
C      1  0.5259070000000  0.4562200000000  0.5264700000000 1.0
C      1  0.4417270000000  0.5297020000000  0.4665510000000 1.0
C      1  0.4667680000000  0.5080680000000  0.5542740000000 1.0
C      1  0.5321240000000  0.4852510000000  0.4249280000000 1.0
C      1  0.4675480000000  0.4103450000000  0.4508070000000 1.0
C      1  0.4760340000000  0.4184310000000  0.4797130000000 1.0
C      1  0.5332040000000  0.5141010000000  0.5710310000000 1.0
C      1  0.5095110000000  0.5125200000000  0.5227730000000 1.0
END
