TITL C-2848498-1409-258 0.000582846440882152 125000 -914.977865048286 0 0 168 (C1) n - 1
REM
REM in /home/bkarasulu/work/CARBON/AIRSS/Generating-Clusters/AIREBO/with-SteepDescent/Only-C1/SD-CG-opt/Try1-1.4A-POS3A/HFTN-CG
REM
REM
REM
REM
REM
REM ./C.cell (11c1c37f851c82e70ff6c80c92926a4b)
REM
REM compiler GCC version 9.2.1 20190827 (Red Hat 9.2.1-1)
REM options -cpp -mtune=generic -march=x86-64 -g -O0 -fpre-include=/usr/include/finclude/math-vector-fortran.h
REM seed 192004966 1657060983 -325618276 1060037777 -434631183 -1540129249 1448214675 1594038700 1501367215 1546546657 -946455036 -38693529 1792355592 951042376 415675540 -1640721594 -507729832 -203967270 984678087 424789674 -679550679 -420916920 1188585872 1641402207 -643923255 1734325448 2069309805 81920093 1536717643 339988925 1327683101 947462106 2071121573
REM
CELL 1.54180   50.00000   50.00000   50.00000   90.00000   90.00000   90.00000
LATT -1
SFAC C  
C      1  0.5127310000000  0.5679840000000  0.5365410000000 1.0
C      1  0.5174280000000  0.4122010000000  0.5500520000000 1.0
C      1  0.4087480000000  0.4925030000000  0.4210570000000 1.0
C      1  0.4980720000000  0.5951870000000  0.5079330000000 1.0
C      1  0.5336460000000  0.4625320000000  0.4426220000000 1.0
C      1  0.5001280000000  0.4506440000000  0.4873990000000 1.0
C      1  0.5424720000000  0.4296700000000  0.5003190000000 1.0
C      1  0.4524830000000  0.5444460000000  0.5873530000000 1.0
C      1  0.5765200000000  0.4281800000000  0.5022230000000 1.0
C      1  0.4967680000000  0.5685730000000  0.4906310000000 1.0
C      1  0.5535040000000  0.5314520000000  0.4268230000000 1.0
C      1  0.5527440000000  0.5608710000000  0.4407460000000 1.0
C      1  0.5239110000000  0.5046940000000  0.5818300000000 1.0
C      1  0.5076010000000  0.5106210000000  0.3896140000000 1.0
C      1  0.5938930000000  0.4597310000000  0.5397220000000 1.0
C      1  0.4466640000000  0.4272990000000  0.4896860000000 1.0
C      1  0.4411600000000  0.5135770000000  0.4732010000000 1.0
C      1  0.4489310000000  0.4613900000000  0.5358900000000 1.0
C      1  0.4863290000000  0.5321280000000  0.3892010000000 1.0
C      1  0.4890450000000  0.4696880000000  0.4431720000000 1.0
C      1  0.4280830000000  0.4931960000000  0.4490410000000 1.0
C      1  0.5711190000000  0.4318280000000  0.4479670000000 1.0
C      1  0.4708920000000  0.4135610000000  0.4709230000000 1.0
C      1  0.5297440000000  0.5879270000000  0.5148740000000 1.0
C      1  0.4841220000000  0.4709210000000  0.5796090000000 1.0
C      1  0.5352760000000  0.5055720000000  0.4393730000000 1.0
C      1  0.4372360000000  0.4238860000000  0.5430700000000 1.0
C      1  0.4451600000000  0.4899470000000  0.5975540000000 1.0
C      1  0.4052930000000  0.4860750000000  0.4818670000000 1.0
C      1  0.4705760000000  0.4806520000000  0.6070020000000 1.0
C      1  0.5161710000000  0.5902310000000  0.5830460000000 1.0
C      1  0.4699620000000  0.5268140000000  0.5167400000000 1.0
C      1  0.5294670000000  0.4717670000000  0.4101660000000 1.0
C      1  0.4163240000000  0.4640400000000  0.4620430000000 1.0
C      1  0.4956300000000  0.5862080000000  0.5589060000000 1.0
C      1  0.5488910000000  0.4605930000000  0.4876950000000 1.0
C      1  0.5306100000000  0.5252140000000  0.4049420000000 1.0
C      1  0.4122870000000  0.5215480000000  0.4388930000000 1.0
C      1  0.4510740000000  0.4254710000000  0.4500290000000 1.0
C      1  0.5006480000000  0.5186980000000  0.5045500000000 1.0
C      1  0.4758010000000  0.5471430000000  0.4788490000000 1.0
C      1  0.4262640000000  0.5597700000000  0.4933950000000 1.0
C      1  0.6013360000000  0.4689430000000  0.4630980000000 1.0
C      1  0.5728730000000  0.5671150000000  0.5395640000000 1.0
C      1  0.5289000000000  0.5769770000000  0.4335810000000 1.0
C      1  0.4173800000000  0.4306140000000  0.4999070000000 1.0
C      1  0.4500710000000  0.4750230000000  0.3972580000000 1.0
C      1  0.4796010000000  0.5148270000000  0.4176920000000 1.0
C      1  0.4987440000000  0.4801410000000  0.5503060000000 1.0
C      1  0.4519860000000  0.5793990000000  0.5535150000000 1.0
C      1  0.5817190000000  0.4201510000000  0.4704180000000 1.0
C      1  0.5876730000000  0.5162050000000  0.4672360000000 1.0
C      1  0.5985460000000  0.4736290000000  0.5148050000000 1.0
C      1  0.4323690000000  0.4696900000000  0.5813050000000 1.0
C      1  0.4481840000000  0.5168970000000  0.5858400000000 1.0
C      1  0.5364080000000  0.4046150000000  0.5225080000000 1.0
C      1  0.4884470000000  0.5529480000000  0.4116940000000 1.0
C      1  0.5046270000000  0.4873230000000  0.4677190000000 1.0
C      1  0.5393190000000  0.4926330000000  0.5087770000000 1.0
C      1  0.5918590000000  0.5406840000000  0.4510640000000 1.0
C      1  0.5127130000000  0.4785770000000  0.4977240000000 1.0
C      1  0.4307260000000  0.5471500000000  0.4288170000000 1.0
C      1  0.5043170000000  0.4280560000000  0.5760980000000 1.0
C      1  0.6006630000000  0.5212300000000  0.4961640000000 1.0
C      1  0.4307080000000  0.5774590000000  0.4668410000000 1.0
C      1  0.5192760000000  0.5397150000000  0.4600700000000 1.0
C      1  0.4561470000000  0.5964910000000  0.4739570000000 1.0
C      1  0.4025450000000  0.4408530000000  0.4792250000000 1.0
C      1  0.4296210000000  0.4698510000000  0.4159650000000 1.0
C      1  0.4444660000000  0.5084730000000  0.5066620000000 1.0
C      1  0.5500700000000  0.5507730000000  0.5797270000000 1.0
C      1  0.5019100000000  0.5128920000000  0.4386850000000 1.0
C      1  0.5143020000000  0.5512080000000  0.5621360000000 1.0
C      1  0.4985990000000  0.4259640000000  0.4647230000000 1.0
C      1  0.5341460000000  0.5274320000000  0.5641860000000 1.0
C      1  0.5170260000000  0.5475210000000  0.4269770000000 1.0
C      1  0.5380160000000  0.4858770000000  0.4669760000000 1.0
C      1  0.5251070000000  0.4749460000000  0.5681880000000 1.0
C      1  0.5828160000000  0.4588390000000  0.4892630000000 1.0
C      1  0.5258190000000  0.4123750000000  0.4625390000000 1.0
C      1  0.5486230000000  0.4966610000000  0.4032230000000 1.0
C      1  0.4672820000000  0.4976540000000  0.4757290000000 1.0
C      1  0.5000990000000  0.5545970000000  0.5914460000000 1.0
C      1  0.4899380000000  0.5039160000000  0.5808590000000 1.0
C      1  0.3940870000000  0.5051140000000  0.4988580000000 1.0
C      1  0.5036060000000  0.4832260000000  0.3970470000000 1.0
C      1  0.4821130000000  0.5349930000000  0.5463360000000 1.0
C      1  0.5744320000000  0.5550420000000  0.5678720000000 1.0
C      1  0.5478990000000  0.4373410000000  0.5441690000000 1.0
C      1  0.4562890000000  0.5540870000000  0.5059040000000 1.0
C      1  0.5663190000000  0.4728170000000  0.5802320000000 1.0
C      1  0.5686730000000  0.5646070000000  0.4866270000000 1.0
C      1  0.4790460000000  0.4406030000000  0.5759940000000 1.0
C      1  0.4668790000000  0.6053240000000  0.5024590000000 1.0
C      1  0.4132440000000  0.5078830000000  0.5632960000000 1.0
C      1  0.5629300000000  0.4871980000000  0.4318480000000 1.0
C      1  0.5419450000000  0.4295930000000  0.4444330000000 1.0
C      1  0.4517520000000  0.5249760000000  0.4443990000000 1.0
C      1  0.4609560000000  0.4903400000000  0.5302520000000 1.0
C      1  0.6084400000000  0.4891270000000  0.4880570000000 1.0
C      1  0.4632500000000  0.5522130000000  0.4284870000000 1.0
C      1  0.5012090000000  0.5511480000000  0.5146930000000 1.0
C      1  0.4467120000000  0.4571970000000  0.5046590000000 1.0
C      1  0.5750210000000  0.5615200000000  0.4594450000000 1.0
C      1  0.4232760000000  0.5681990000000  0.5234830000000 1.0
C      1  0.5087880000000  0.5909910000000  0.4514140000000 1.0
C      1  0.5146250000000  0.4446780000000  0.5413730000000 1.0
C      1  0.5801830000000  0.5420570000000  0.5094430000000 1.0
C      1  0.5058160000000  0.3909130000000  0.5041540000000 1.0
C      1  0.5854130000000  0.5344960000000  0.4242440000000 1.0
C      1  0.4489750000000  0.4452620000000  0.5658340000000 1.0
C      1  0.5382040000000  0.5180250000000  0.4781610000000 1.0
C      1  0.4639970000000  0.4694950000000  0.4607750000000 1.0
C      1  0.5903090000000  0.4782400000000  0.5605020000000 1.0
C      1  0.5438620000000  0.5781530000000  0.4881200000000 1.0
C      1  0.5830750000000  0.5009900000000  0.5163640000000 1.0
C      1  0.5088160000000  0.4257330000000  0.5033120000000 1.0
C      1  0.5896690000000  0.5382840000000  0.5421130000000 1.0
C      1  0.5345360000000  0.5159950000000  0.5322920000000 1.0
C      1  0.4359470000000  0.5220950000000  0.5472930000000 1.0
C      1  0.4816520000000  0.4904960000000  0.5048060000000 1.0
C      1  0.5343340000000  0.3987700000000  0.4886760000000 1.0
C      1  0.4791360000000  0.4753920000000  0.4141260000000 1.0
C      1  0.4935910000000  0.5257870000000  0.6016180000000 1.0
C      1  0.5517310000000  0.4767080000000  0.5500230000000 1.0
C      1  0.4173650000000  0.4366350000000  0.5274700000000 1.0
C      1  0.4605210000000  0.5028620000000  0.3922030000000 1.0
C      1  0.5515460000000  0.4459540000000  0.5754500000000 1.0
C      1  0.5788200000000  0.4582540000000  0.4419810000000 1.0
C      1  0.4461230000000  0.5504020000000  0.5384660000000 1.0
C      1  0.5233390000000  0.4467750000000  0.5852300000000 1.0
C      1  0.4154910000000  0.4676770000000  0.5361120000000 1.0
C      1  0.4697750000000  0.5645810000000  0.4546780000000 1.0
C      1  0.4843760000000  0.4254980000000  0.5241150000000 1.0
C      1  0.5204460000000  0.5688610000000  0.4716640000000 1.0
C      1  0.4942110000000  0.5195450000000  0.4711570000000 1.0
C      1  0.3942840000000  0.4913470000000  0.5237490000000 1.0
C      1  0.4841930000000  0.6042290000000  0.5347710000000 1.0
C      1  0.4699300000000  0.4514050000000  0.4836670000000 1.0
C      1  0.4758410000000  0.5601910000000  0.5682830000000 1.0
C      1  0.5471160000000  0.5347470000000  0.5068670000000 1.0
C      1  0.4137510000000  0.4807340000000  0.5639910000000 1.0
C      1  0.4199150000000  0.5287720000000  0.5178340000000 1.0
C      1  0.4818660000000  0.4532410000000  0.5382620000000 1.0
C      1  0.5900700000000  0.4944170000000  0.4478100000000 1.0
C      1  0.5648900000000  0.5036040000000  0.5412970000000 1.0
C      1  0.4805170000000  0.5922360000000  0.4545760000000 1.0
C      1  0.5950310000000  0.5084810000000  0.5537910000000 1.0
C      1  0.4048740000000  0.5355080000000  0.4880820000000 1.0
C      1  0.4128160000000  0.5498280000000  0.4577720000000 1.0
C      1  0.5475660000000  0.4922470000000  0.5969500000000 1.0
C      1  0.4997090000000  0.4418740000000  0.4390960000000 1.0
C      1  0.5501850000000  0.5638300000000  0.5242180000000 1.0
C      1  0.4755170000000  0.4023320000000  0.5011700000000 1.0
C      1  0.5317680000000  0.5672980000000  0.5938140000000 1.0
C      1  0.4565930000000  0.4085620000000  0.5288540000000 1.0
C      1  0.5504500000000  0.4043750000000  0.5521260000000 1.0
C      1  0.4654090000000  0.5087070000000  0.5577730000000 1.0
C      1  0.3965280000000  0.5521810000000  0.5256610000000 1.0
C      1  0.5653840000000  0.5037340000000  0.4898870000000 1.0
C      1  0.4529090000000  0.5848770000000  0.5199750000000 1.0
C      1  0.5483450000000  0.4628340000000  0.5216460000000 1.0
C      1  0.5016810000000  0.5087220000000  0.5371980000000 1.0
C      1  0.5242670000000  0.4399750000000  0.4178290000000 1.0
C      1  0.4568680000000  0.4948860000000  0.4310100000000 1.0
C      1  0.4396640000000  0.4555480000000  0.4424270000000 1.0
C      1  0.4314000000000  0.4803580000000  0.4952220000000 1.0
C      1  0.5795260000000  0.4360130000000  0.5336530000000 1.0
END
