TITL C-2847947-6848-26 -0.00261218453412551 125000 -321.565286237381 0 0 59 (C1) n - 1
REM
REM in /home/bkarasulu/work/CARBON/AIRSS/Generating-Clusters/AIREBO/with-SteepDescent/Only-C1/SD-CG-opt/Try1-1.4A-POS3A/HFTN-CG
REM
REM
REM
REM
REM
REM ./C.cell (11c1c37f851c82e70ff6c80c92926a4b)
REM
REM compiler GCC version 9.2.1 20190827 (Red Hat 9.2.1-1)
REM options -cpp -mtune=generic -march=x86-64 -g -O0 -fpre-include=/usr/include/finclude/math-vector-fortran.h
REM seed 971794757 -1335051481 360981639 -892656257 -1566624953 1014604433 -1834943532 531816190 621310198 -400834246 716672681 -214105887 112693254 -2093448321 -581789041 551608730 -1734509916 -1697404879 1671174298 238034098 1209742881 -1367516254 1840993212 535154391 665917736 449403653 -112770964 -1764612046 -814416739 800312994 82988839 -197354728 -1550182628
REM
CELL 1.54180   50.00000   50.00000   50.00000   90.00000   90.00000   90.00000
LATT -1
SFAC C  
C      1  0.4728910000000  0.4511010000000  0.4947250000000 1.0
C      1  0.5032090000000  0.5095450000000  0.4536610000000 1.0
C      1  0.4989110000000  0.5561120000000  0.4921420000000 1.0
C      1  0.4890680000000  0.4593180000000  0.4472040000000 1.0
C      1  0.5088790000000  0.5392320000000  0.4483980000000 1.0
C      1  0.5120760000000  0.4977590000000  0.5387000000000 1.0
C      1  0.4852350000000  0.4280280000000  0.4901850000000 1.0
C      1  0.4365330000000  0.4594980000000  0.4810010000000 1.0
C      1  0.5609880000000  0.5342340000000  0.5236320000000 1.0
C      1  0.4618530000000  0.5009080000000  0.5103870000000 1.0
C      1  0.5279400000000  0.5831070000000  0.5253030000000 1.0
C      1  0.4563850000000  0.5230850000000  0.4851960000000 1.0
C      1  0.5514470000000  0.4493960000000  0.4870210000000 1.0
C      1  0.4564430000000  0.4742230000000  0.5395330000000 1.0
C      1  0.4716730000000  0.4757750000000  0.4713550000000 1.0
C      1  0.4844720000000  0.5037640000000  0.4779500000000 1.0
C      1  0.4430220000000  0.5587190000000  0.4973840000000 1.0
C      1  0.5328060000000  0.4713810000000  0.5145670000000 1.0
C      1  0.5516750000000  0.5351920000000  0.5524720000000 1.0
C      1  0.5335190000000  0.4279890000000  0.4960970000000 1.0
C      1  0.5533450000000  0.5823850000000  0.5141860000000 1.0
C      1  0.4031660000000  0.5200310000000  0.4967290000000 1.0
C      1  0.5440640000000  0.5492020000000  0.4787080000000 1.0
C      1  0.4511910000000  0.4706640000000  0.5080380000000 1.0
C      1  0.5359640000000  0.4658750000000  0.4637870000000 1.0
C      1  0.4460330000000  0.4825920000000  0.4500750000000 1.0
C      1  0.4953310000000  0.5057630000000  0.5101220000000 1.0
C      1  0.5263480000000  0.4282110000000  0.5239970000000 1.0
C      1  0.5149130000000  0.5302740000000  0.5067880000000 1.0
C      1  0.5352880000000  0.4887000000000  0.4889180000000 1.0
C      1  0.5108600000000  0.4268660000000  0.4784340000000 1.0
C      1  0.5008390000000  0.4839480000000  0.4322780000000 1.0
C      1  0.5618930000000  0.4982240000000  0.5171040000000 1.0
C      1  0.5594810000000  0.5571550000000  0.5030010000000 1.0
C      1  0.4429160000000  0.5218020000000  0.4548510000000 1.0
C      1  0.5204360000000  0.4544470000000  0.5324740000000 1.0
C      1  0.5457680000000  0.5201260000000  0.4966840000000 1.0
C      1  0.5039980000000  0.4686710000000  0.5543590000000 1.0
C      1  0.5137380000000  0.4452440000000  0.4573960000000 1.0
C      1  0.5308190000000  0.4914670000000  0.4461690000000 1.0
C      1  0.4769550000000  0.4850940000000  0.5530340000000 1.0
C      1  0.5246340000000  0.5428530000000  0.5579490000000 1.0
C      1  0.4606210000000  0.5235590000000  0.5785600000000 1.0
C      1  0.4140440000000  0.4736570000000  0.4725640000000 1.0
C      1  0.5185610000000  0.5540820000000  0.4689420000000 1.0
C      1  0.5047890000000  0.5229320000000  0.5573290000000 1.0
C      1  0.5578210000000  0.5090060000000  0.5659170000000 1.0
C      1  0.5655680000000  0.4688930000000  0.5057880000000 1.0
C      1  0.4192510000000  0.4995370000000  0.4510940000000 1.0
C      1  0.5446210000000  0.4971770000000  0.5425570000000 1.0
C      1  0.3988200000000  0.5008140000000  0.4772820000000 1.0
C      1  0.5661080000000  0.5150590000000  0.4699030000000 1.0
C      1  0.4565050000000  0.4501820000000  0.4548730000000 1.0
C      1  0.4792440000000  0.5111980000000  0.5636630000000 1.0
C      1  0.4266580000000  0.5339850000000  0.4993970000000 1.0
C      1  0.4705720000000  0.5533630000000  0.4913660000000 1.0
C      1  0.5127760000000  0.5613470000000  0.5210290000000 1.0
C      1  0.5568610000000  0.5074420000000  0.4476510000000 1.0
C      1  0.5101760000000  0.4598070000000  0.5800920000000 1.0
END
