TITL C-2848504-8560-327 0.000767524361955973 125000 -776.457052951818 0 0 144 (C1) n - 1
REM
REM in /home/bkarasulu/work/CARBON/AIRSS/Generating-Clusters/AIREBO/with-SteepDescent/Only-C1/SD-CG-opt/Try1-1.4A-POS3A/HFTN-CG
REM
REM
REM
REM
REM
REM ./C.cell (11c1c37f851c82e70ff6c80c92926a4b)
REM
REM compiler GCC version 9.2.1 20190827 (Red Hat 9.2.1-1)
REM options -cpp -mtune=generic -march=x86-64 -g -O0 -fpre-include=/usr/include/finclude/math-vector-fortran.h
REM seed -532377363 143982570 -1000836492 -1185710225 -1144766316 554466382 -512925006 -671362591 -422716408 -447388348 -1865381059 842169522 1023099795 -441609783 -1554824955 -1195367681 433516765 1069411327 1457722073 590403174 -1324496454 1521320577 556955462 730318916 -1428470357 -944546456 -550954440 -1980846764 -64937623 -106818418 463846251 837555742 1190728145
REM
CELL 1.54180   50.00000   50.00000   50.00000   90.00000   90.00000   90.00000
LATT -1
SFAC C  
C      1  0.5689260000000  0.5298030000000  0.5522240000000 1.0
C      1  0.5176010000000  0.4683260000000  0.5276550000000 1.0
C      1  0.4751730000000  0.5121150000000  0.5641730000000 1.0
C      1  0.4950820000000  0.5063780000000  0.4256430000000 1.0
C      1  0.5527430000000  0.5055300000000  0.4605490000000 1.0
C      1  0.5748260000000  0.5538770000000  0.4442070000000 1.0
C      1  0.4750560000000  0.4026600000000  0.4772830000000 1.0
C      1  0.5490530000000  0.4854780000000  0.5803610000000 1.0
C      1  0.4752490000000  0.5305950000000  0.4644880000000 1.0
C      1  0.4161770000000  0.5223930000000  0.5202750000000 1.0
C      1  0.5916970000000  0.5142160000000  0.5234480000000 1.0
C      1  0.4252840000000  0.5627840000000  0.4505520000000 1.0
C      1  0.4770590000000  0.5771570000000  0.4414210000000 1.0
C      1  0.4325880000000  0.4407190000000  0.4862490000000 1.0
C      1  0.4561230000000  0.4995740000000  0.4491060000000 1.0
C      1  0.4872910000000  0.4140320000000  0.4523810000000 1.0
C      1  0.5126460000000  0.5113990000000  0.5470970000000 1.0
C      1  0.5179740000000  0.5311250000000  0.5732530000000 1.0
C      1  0.5353840000000  0.5192070000000  0.4385550000000 1.0
C      1  0.5071940000000  0.5840230000000  0.5213720000000 1.0
C      1  0.5936200000000  0.5289380000000  0.4450680000000 1.0
C      1  0.5138290000000  0.4133040000000  0.4417560000000 1.0
C      1  0.4533700000000  0.5326190000000  0.4415120000000 1.0
C      1  0.5111980000000  0.4557870000000  0.4187580000000 1.0
C      1  0.5023980000000  0.5556760000000  0.4334630000000 1.0
C      1  0.5708620000000  0.4716660000000  0.5357400000000 1.0
C      1  0.5197850000000  0.3968960000000  0.5224620000000 1.0
C      1  0.4365210000000  0.4449930000000  0.4587290000000 1.0
C      1  0.5526550000000  0.5446120000000  0.4254150000000 1.0
C      1  0.5615790000000  0.5038060000000  0.5353040000000 1.0
C      1  0.4910770000000  0.5382510000000  0.5021230000000 1.0
C      1  0.4718700000000  0.4140610000000  0.5275510000000 1.0
C      1  0.4900370000000  0.3998860000000  0.5052950000000 1.0
C      1  0.4455770000000  0.5322790000000  0.5357080000000 1.0
C      1  0.5390030000000  0.5486840000000  0.5151920000000 1.0
C      1  0.5493090000000  0.5897430000000  0.5812590000000 1.0
C      1  0.5751620000000  0.4283590000000  0.4993150000000 1.0
C      1  0.4629470000000  0.5504560000000  0.5164730000000 1.0
C      1  0.4574450000000  0.5981200000000  0.5732840000000 1.0
C      1  0.5352350000000  0.4898410000000  0.4992660000000 1.0
C      1  0.5490840000000  0.5402290000000  0.5723270000000 1.0
C      1  0.5858730000000  0.4835950000000  0.4580080000000 1.0
C      1  0.5358630000000  0.4099090000000  0.4865320000000 1.0
C      1  0.4827320000000  0.4572010000000  0.5597970000000 1.0
C      1  0.4831540000000  0.4632290000000  0.4275250000000 1.0
C      1  0.5737760000000  0.4728650000000  0.5669020000000 1.0
C      1  0.4751410000000  0.4887560000000  0.4751640000000 1.0
C      1  0.5545710000000  0.4442480000000  0.4294340000000 1.0
C      1  0.5059300000000  0.5933730000000  0.4946460000000 1.0
C      1  0.5546030000000  0.5834660000000  0.4851900000000 1.0
C      1  0.5918690000000  0.5454770000000  0.5374800000000 1.0
C      1  0.4671000000000  0.4693800000000  0.5944880000000 1.0
C      1  0.5116770000000  0.4945660000000  0.4599620000000 1.0
C      1  0.5109530000000  0.4711090000000  0.4845810000000 1.0
C      1  0.5166520000000  0.5551580000000  0.4901110000000 1.0
C      1  0.5653390000000  0.5617640000000  0.4701500000000 1.0
C      1  0.5565990000000  0.5793650000000  0.5131640000000 1.0
C      1  0.5745410000000  0.5217710000000  0.4206320000000 1.0
C      1  0.4959810000000  0.5386080000000  0.5353090000000 1.0
C      1  0.5055990000000  0.4401560000000  0.5751580000000 1.0
C      1  0.4507830000000  0.5631600000000  0.4364730000000 1.0
C      1  0.5295450000000  0.4597250000000  0.5892890000000 1.0
C      1  0.5901770000000  0.5129900000000  0.4726700000000 1.0
C      1  0.5281740000000  0.4354790000000  0.4254060000000 1.0
C      1  0.5301690000000  0.4093530000000  0.5462420000000 1.0
C      1  0.5619020000000  0.4976470000000  0.4126870000000 1.0
C      1  0.5853860000000  0.4669570000000  0.5053580000000 1.0
C      1  0.4975350000000  0.4562710000000  0.4570620000000 1.0
C      1  0.4701710000000  0.4746910000000  0.5121290000000 1.0
C      1  0.4893700000000  0.5316040000000  0.5792950000000 1.0
C      1  0.4607440000000  0.4258960000000  0.4976000000000 1.0
C      1  0.4700090000000  0.5842190000000  0.5559590000000 1.0
C      1  0.4836770000000  0.4029620000000  0.5550500000000 1.0
C      1  0.5066180000000  0.5497380000000  0.4055680000000 1.0
C      1  0.5656400000000  0.4765840000000  0.4327470000000 1.0
C      1  0.5434690000000  0.5701210000000  0.5650380000000 1.0
C      1  0.4458140000000  0.5003010000000  0.5592610000000 1.0
C      1  0.5278530000000  0.5166160000000  0.5171350000000 1.0
C      1  0.4534440000000  0.5724820000000  0.4846920000000 1.0
C      1  0.4227720000000  0.4636920000000  0.4427230000000 1.0
C      1  0.4625710000000  0.4833150000000  0.4229020000000 1.0
C      1  0.4098880000000  0.4970960000000  0.5421770000000 1.0
C      1  0.4937770000000  0.4864550000000  0.5604780000000 1.0
C      1  0.4227850000000  0.5234370000000  0.5593430000000 1.0
C      1  0.5046860000000  0.5267160000000  0.4511430000000 1.0
C      1  0.4466040000000  0.4869310000000  0.5296220000000 1.0
C      1  0.5286320000000  0.5257610000000  0.4843920000000 1.0
C      1  0.4284980000000  0.4465240000000  0.5692390000000 1.0
C      1  0.5394070000000  0.5138370000000  0.5920100000000 1.0
C      1  0.4171420000000  0.4928520000000  0.5034120000000 1.0
C      1  0.4550740000000  0.4487220000000  0.5776920000000 1.0
C      1  0.5622980000000  0.5300480000000  0.4820950000000 1.0
C      1  0.5080840000000  0.4133430000000  0.5640620000000 1.0
C      1  0.4736440000000  0.4468650000000  0.5291250000000 1.0
C      1  0.4967990000000  0.4656860000000  0.5962400000000 1.0
C      1  0.5489980000000  0.4317810000000  0.5442810000000 1.0
C      1  0.5005170000000  0.4490230000000  0.5083790000000 1.0
C      1  0.5174380000000  0.4833210000000  0.4303100000000 1.0
C      1  0.4377390000000  0.4962620000000  0.4775390000000 1.0
C      1  0.4736360000000  0.5063390000000  0.4005010000000 1.0
C      1  0.5364210000000  0.4871410000000  0.5488290000000 1.0
C      1  0.5222520000000  0.5959700000000  0.4499850000000 1.0
C      1  0.5304730000000  0.4512480000000  0.4650710000000 1.0
C      1  0.4691490000000  0.4566800000000  0.4850590000000 1.0
C      1  0.5473080000000  0.4624940000000  0.5129730000000 1.0
C      1  0.4005110000000  0.5550320000000  0.5985420000000 1.0
C      1  0.4955590000000  0.4919440000000  0.5167790000000 1.0
C      1  0.4395900000000  0.4539340000000  0.5317030000000 1.0
C      1  0.5701410000000  0.5366110000000  0.5128680000000 1.0
C      1  0.5647460000000  0.4846070000000  0.4846280000000 1.0
C      1  0.4994350000000  0.5997760000000  0.4334390000000 1.0
C      1  0.4742820000000  0.5147960000000  0.5302890000000 1.0
C      1  0.4532480000000  0.5094610000000  0.5040920000000 1.0
C      1  0.5112650000000  0.4949420000000  0.5883800000000 1.0
C      1  0.4213650000000  0.5393520000000  0.4720470000000 1.0
C      1  0.3980960000000  0.5767050000000  0.5070010000000 1.0
C      1  0.4107990000000  0.5403720000000  0.5803690000000 1.0
C      1  0.4351930000000  0.4692080000000  0.4176050000000 1.0
C      1  0.5567430000000  0.4455640000000  0.4848900000000 1.0
C      1  0.4166850000000  0.4709660000000  0.5504970000000 1.0
C      1  0.5310210000000  0.5041560000000  0.4086850000000 1.0
C      1  0.5349890000000  0.4207340000000  0.4618380000000 1.0
C      1  0.4273010000000  0.5745970000000  0.4954970000000 1.0
C      1  0.4243150000000  0.4614870000000  0.5035570000000 1.0
C      1  0.5694810000000  0.4538060000000  0.4574710000000 1.0
C      1  0.5993280000000  0.4970480000000  0.4997430000000 1.0
C      1  0.5764740000000  0.4392050000000  0.5273120000000 1.0
C      1  0.5040590000000  0.5216780000000  0.3975950000000 1.0
C      1  0.4533400000000  0.4924360000000  0.5909690000000 1.0
C      1  0.4675350000000  0.4403700000000  0.4552680000000 1.0
C      1  0.5397100000000  0.4543100000000  0.5576210000000 1.0
C      1  0.4837230000000  0.5695360000000  0.5333360000000 1.0
C      1  0.4521600000000  0.5385460000000  0.4865020000000 1.0
C      1  0.4991980000000  0.5090270000000  0.4880980000000 1.0
C      1  0.4801850000000  0.5830590000000  0.4748980000000 1.0
C      1  0.5332460000000  0.5741770000000  0.5369550000000 1.0
C      1  0.5123210000000  0.4222790000000  0.5038210000000 1.0
C      1  0.5086590000000  0.5680800000000  0.4638990000000 1.0
C      1  0.4485420000000  0.5191080000000  0.4122420000000 1.0
C      1  0.4154880000000  0.4869980000000  0.4560570000000 1.0
C      1  0.4104700000000  0.5454410000000  0.5019490000000 1.0
C      1  0.5303070000000  0.5980690000000  0.4786940000000 1.0
C      1  0.4061270000000  0.5139140000000  0.4606370000000 1.0
C      1  0.4236490000000  0.4267390000000  0.5444600000000 1.0
END
