TITL C-2847944-5688-579 0.000979993492672159 125000 -401.893935941 0 0 76 (C1) n - 1
REM
REM in /home/bkarasulu/work/CARBON/AIRSS/Generating-Clusters/AIREBO/with-SteepDescent/Only-C1/SD-CG-opt/Try1-1.4A-POS3A/HFTN-CG
REM
REM
REM
REM
REM
REM ./C.cell (11c1c37f851c82e70ff6c80c92926a4b)
REM
REM compiler GCC version 9.2.1 20190827 (Red Hat 9.2.1-1)
REM options -cpp -mtune=generic -march=x86-64 -g -O0 -fpre-include=/usr/include/finclude/math-vector-fortran.h
REM seed -968866612 -531324133 1403981741 -1690887576 152679395 955790685 271228163 -1493145507 1828660565 -914819091 -485896308 -1472887302 1178648025 308051495 1207359118 -1142054782 1887247726 -149231370 -746530431 -890475423 -1225653246 -185694498 -1088880980 1000430830 341871517 -880006506 -513416897 200146652 46828308 -82163259 -604458089 1880628688 -451568009
REM
CELL 1.54180   50.00000   50.00000   50.00000   90.00000   90.00000   90.00000
LATT -1
SFAC C  
C      1  0.4904930000000  0.5308950000000  0.5234330000000 1.0
C      1  0.4909420000000  0.4860020000000  0.4531580000000 1.0
C      1  0.4991580000000  0.4840990000000  0.5530510000000 1.0
C      1  0.4461910000000  0.5077050000000  0.5346430000000 1.0
C      1  0.4961700000000  0.5171990000000  0.4657600000000 1.0
C      1  0.4662980000000  0.5260340000000  0.5547890000000 1.0
C      1  0.4911360000000  0.5798410000000  0.4922580000000 1.0
C      1  0.4902580000000  0.4448800000000  0.3852090000000 1.0
C      1  0.5641080000000  0.5245910000000  0.5051930000000 1.0
C      1  0.5273350000000  0.4916510000000  0.4271180000000 1.0
C      1  0.5745810000000  0.5088460000000  0.4800180000000 1.0
C      1  0.5115660000000  0.5461010000000  0.5649770000000 1.0
C      1  0.5346870000000  0.5643410000000  0.5132520000000 1.0
C      1  0.4753220000000  0.5540570000000  0.5401100000000 1.0
C      1  0.4598350000000  0.5736510000000  0.4920010000000 1.0
C      1  0.5224740000000  0.4924280000000  0.5304070000000 1.0
C      1  0.4981820000000  0.5701510000000  0.4468290000000 1.0
C      1  0.5467160000000  0.4668490000000  0.4517240000000 1.0
C      1  0.4770020000000  0.5105310000000  0.5096820000000 1.0
C      1  0.4355270000000  0.5308440000000  0.5119710000000 1.0
C      1  0.5145280000000  0.5367690000000  0.4759820000000 1.0
C      1  0.5214700000000  0.4879070000000  0.4604050000000 1.0
C      1  0.5455340000000  0.4722110000000  0.5734820000000 1.0
C      1  0.5284560000000  0.4720550000000  0.4869290000000 1.0
C      1  0.4533810000000  0.4583090000000  0.4481470000000 1.0
C      1  0.4401270000000  0.4694700000000  0.4752280000000 1.0
C      1  0.5172590000000  0.4740910000000  0.5836190000000 1.0
C      1  0.5141990000000  0.4409830000000  0.4845360000000 1.0
C      1  0.5364480000000  0.5458230000000  0.5417350000000 1.0
C      1  0.4425760000000  0.5517820000000  0.4873550000000 1.0
C      1  0.5179060000000  0.4488990000000  0.4540770000000 1.0
C      1  0.4919620000000  0.4406470000000  0.3594050000000 1.0
C      1  0.4487620000000  0.4578070000000  0.5569900000000 1.0
C      1  0.4752530000000  0.5067170000000  0.4832950000000 1.0
C      1  0.4865820000000  0.4542710000000  0.4419620000000 1.0
C      1  0.4315700000000  0.4830620000000  0.5489660000000 1.0
C      1  0.4753120000000  0.5879720000000  0.4645880000000 1.0
C      1  0.5078210000000  0.4681680000000  0.5129450000000 1.0
C      1  0.4942580000000  0.5691290000000  0.5601250000000 1.0
C      1  0.4760140000000  0.4588750000000  0.5170200000000 1.0
C      1  0.4680290000000  0.4099650000000  0.4856620000000 1.0
C      1  0.5607900000000  0.4464780000000  0.5035190000000 1.0
C      1  0.4738880000000  0.4882760000000  0.5310780000000 1.0
C      1  0.5145040000000  0.4370960000000  0.5371260000000 1.0
C      1  0.4860600000000  0.4876020000000  0.5842420000000 1.0
C      1  0.5611570000000  0.5194930000000  0.4573740000000 1.0
C      1  0.5455630000000  0.5153400000000  0.5535680000000 1.0
C      1  0.4799170000000  0.4292000000000  0.4633270000000 1.0
C      1  0.4292260000000  0.4757390000000  0.4994580000000 1.0
C      1  0.4913120000000  0.5188640000000  0.5710000000000 1.0
C      1  0.5675820000000  0.5491540000000  0.5284540000000 1.0
C      1  0.5483980000000  0.4763160000000  0.5453860000000 1.0
C      1  0.4730670000000  0.4593330000000  0.5700240000000 1.0
C      1  0.5511820000000  0.5465750000000  0.4638390000000 1.0
C      1  0.5650040000000  0.4601560000000  0.4767880000000 1.0
C      1  0.4969920000000  0.4501610000000  0.5527830000000 1.0
C      1  0.5223000000000  0.5590200000000  0.4546550000000 1.0
C      1  0.4835740000000  0.4387110000000  0.4954530000000 1.0
C      1  0.5168840000000  0.4237460000000  0.5116480000000 1.0
C      1  0.5577290000000  0.4858340000000  0.4978530000000 1.0
C      1  0.5189200000000  0.5224170000000  0.5243850000000 1.0
C      1  0.4239390000000  0.5351760000000  0.4448590000000 1.0
C      1  0.5616130000000  0.5003170000000  0.5284130000000 1.0
C      1  0.4211810000000  0.5017030000000  0.5039610000000 1.0
C      1  0.5540570000000  0.4985830000000  0.4401410000000 1.0
C      1  0.4654560000000  0.5609050000000  0.4472690000000 1.0
C      1  0.4885750000000  0.4491760000000  0.4111890000000 1.0
C      1  0.5378250000000  0.4560290000000  0.5234850000000 1.0
C      1  0.5325280000000  0.5273500000000  0.4984190000000 1.0
C      1  0.5621000000000  0.5568140000000  0.4945000000000 1.0
C      1  0.5134240000000  0.5649930000000  0.4942570000000 1.0
C      1  0.4430350000000  0.5478520000000  0.4588770000000 1.0
C      1  0.4433510000000  0.4638750000000  0.5234880000000 1.0
C      1  0.4586720000000  0.4914580000000  0.4623730000000 1.0
C      1  0.5219080000000  0.5042330000000  0.5685910000000 1.0
C      1  0.4428620000000  0.5464160000000  0.5401820000000 1.0
END
