TITL C-2847949-8115-594 0.00014202926213706 125000 -159.816254554994 0 0 30 (C1) n - 1
REM
REM in /home/bkarasulu/work/CARBON/AIRSS/Generating-Clusters/AIREBO/with-SteepDescent/Only-C1/SD-CG-opt/Try1-1.4A-POS3A/HFTN-CG
REM
REM
REM
REM
REM
REM ./C.cell (11c1c37f851c82e70ff6c80c92926a4b)
REM
REM compiler GCC version 9.2.1 20190827 (Red Hat 9.2.1-1)
REM options -cpp -mtune=generic -march=x86-64 -g -O0 -fpre-include=/usr/include/finclude/math-vector-fortran.h
REM seed -675666618 438163480 -459511786 360706872 -335289019 -854215451 -1729694387 410752577 -332032170 -1724401197 -1055211203 -852950800 -1143832910 1902532723 -2048982892 1244702582 1347240328 1247707099 -57453180 -445416366 -1584147598 751070292 -751168518 -888938528 -1166816357 -1115855855 -448027533 -657446235 -754469765 -943884824 -297409035 1578408658 1602748888
REM
CELL 1.54180   50.00000   50.00000   50.00000   90.00000   90.00000   90.00000
LATT -1
SFAC C  
C      1  0.6189080000000  0.5050230000000  0.4362180000000 1.0
C      1  0.6008720000000  0.4896670000000  0.4474410000000 1.0
C      1  0.4967750000000  0.4991720000000  0.5767270000000 1.0
C      1  0.4563750000000  0.4894990000000  0.5134980000000 1.0
C      1  0.5056580000000  0.5392130000000  0.4497160000000 1.0
C      1  0.5003520000000  0.4393050000000  0.5201560000000 1.0
C      1  0.5234040000000  0.4845980000000  0.4632510000000 1.0
C      1  0.5521180000000  0.4711570000000  0.4715950000000 1.0
C      1  0.4647170000000  0.4688040000000  0.5554840000000 1.0
C      1  0.5030380000000  0.4648430000000  0.5090480000000 1.0
C      1  0.4794490000000  0.5749410000000  0.4726510000000 1.0
C      1  0.4846500000000  0.5275930000000  0.4901340000000 1.0
C      1  0.4896510000000  0.4822750000000  0.5553540000000 1.0
C      1  0.5137840000000  0.5145350000000  0.4553740000000 1.0
C      1  0.4958680000000  0.4982680000000  0.4782720000000 1.0
C      1  0.4778360000000  0.4765070000000  0.4927590000000 1.0
C      1  0.4452910000000  0.5104170000000  0.4774020000000 1.0
C      1  0.4556540000000  0.5229190000000  0.5072780000000 1.0
C      1  0.4926610000000  0.5135630000000  0.5191220000000 1.0
C      1  0.4802300000000  0.5412190000000  0.5595120000000 1.0
C      1  0.4744940000000  0.5340000000000  0.5336610000000 1.0
C      1  0.5729010000000  0.4450210000000  0.4660060000000 1.0
C      1  0.4879110000000  0.5249860000000  0.5802930000000 1.0
C      1  0.4982450000000  0.4887720000000  0.5289940000000 1.0
C      1  0.4885910000000  0.5494420000000  0.4699240000000 1.0
C      1  0.5814890000000  0.4737290000000  0.4564580000000 1.0
C      1  0.4476460000000  0.4753350000000  0.5347130000000 1.0
C      1  0.5272240000000  0.4691590000000  0.4927520000000 1.0
C      1  0.4527160000000  0.4861820000000  0.4738110000000 1.0
C      1  0.4314920000000  0.5398570000000  0.5123960000000 1.0
END
