TITL C-2848505-4874-646 -0.00329245721133065 125000 -974.229993620109 0 0 178 (C1) n - 1
REM
REM in /home/bkarasulu/work/CARBON/AIRSS/Generating-Clusters/AIREBO/with-SteepDescent/Only-C1/SD-CG-opt/Try1-1.4A-POS3A/HFTN-CG
REM
REM
REM
REM
REM
REM ./C.cell (11c1c37f851c82e70ff6c80c92926a4b)
REM
REM compiler GCC version 9.2.1 20190827 (Red Hat 9.2.1-1)
REM options -cpp -mtune=generic -march=x86-64 -g -O0 -fpre-include=/usr/include/finclude/math-vector-fortran.h
REM seed 1948662077 -892717325 172428890 -1427885995 1091431787 -327230343 -687380766 -1435308333 108467138 623970318 -477168510 -447562027 -1907894050 -793316922 741759938 -81883683 -1378423825 -1816507956 2000322353 979689047 -66700651 -1606271730 1037687074 1690937504 1026415607 954393154 689439716 2045769378 264221780 -1258709131 -1918569122 1270970562 -1068139539
REM
CELL 1.54180   50.00000   50.00000   50.00000   90.00000   90.00000   90.00000
LATT -1
SFAC C  
C      1  0.4446290000000  0.5319670000000  0.4238990000000 1.0
C      1  0.5966560000000  0.5468510000000  0.4500790000000 1.0
C      1  0.4402660000000  0.4790920000000  0.4475230000000 1.0
C      1  0.4439260000000  0.5912190000000  0.5250990000000 1.0
C      1  0.4170490000000  0.4866280000000  0.4162570000000 1.0
C      1  0.5487680000000  0.5547390000000  0.5997800000000 1.0
C      1  0.4562550000000  0.5965830000000  0.4938650000000 1.0
C      1  0.5415530000000  0.6082710000000  0.4890790000000 1.0
C      1  0.5327690000000  0.4137450000000  0.5466970000000 1.0
C      1  0.4945950000000  0.3863490000000  0.5529360000000 1.0
C      1  0.4773700000000  0.4906060000000  0.3963610000000 1.0
C      1  0.4053260000000  0.4680650000000  0.5508290000000 1.0
C      1  0.4811710000000  0.4840320000000  0.5263280000000 1.0
C      1  0.5015990000000  0.4427480000000  0.4075580000000 1.0
C      1  0.5080540000000  0.4235280000000  0.4662470000000 1.0
C      1  0.4553140000000  0.4874530000000  0.4828870000000 1.0
C      1  0.5139870000000  0.5327220000000  0.4423670000000 1.0
C      1  0.4766690000000  0.3869690000000  0.5305790000000 1.0
C      1  0.5299790000000  0.4412780000000  0.4184090000000 1.0
C      1  0.4032520000000  0.5084680000000  0.5019000000000 1.0
C      1  0.5473030000000  0.4575790000000  0.4003550000000 1.0
C      1  0.4822560000000  0.5302190000000  0.5407640000000 1.0
C      1  0.5216480000000  0.5744000000000  0.4963230000000 1.0
C      1  0.5290340000000  0.4762400000000  0.4754880000000 1.0
C      1  0.5186120000000  0.4472020000000  0.4882540000000 1.0
C      1  0.4140580000000  0.5496710000000  0.5141380000000 1.0
C      1  0.4516000000000  0.5154610000000  0.5403080000000 1.0
C      1  0.5042230000000  0.4900010000000  0.5683800000000 1.0
C      1  0.5188740000000  0.5294510000000  0.4088780000000 1.0
C      1  0.5811080000000  0.4953870000000  0.5328580000000 1.0
C      1  0.5575030000000  0.4504040000000  0.4677700000000 1.0
C      1  0.4423820000000  0.5578630000000  0.4074490000000 1.0
C      1  0.4459630000000  0.5586380000000  0.5217680000000 1.0
C      1  0.5240210000000  0.5661730000000  0.4649880000000 1.0
C      1  0.4236120000000  0.4372160000000  0.5115710000000 1.0
C      1  0.4266060000000  0.4102070000000  0.5628650000000 1.0
C      1  0.4691140000000  0.5134880000000  0.4170670000000 1.0
C      1  0.4848540000000  0.4347820000000  0.5365530000000 1.0
C      1  0.5011450000000  0.4704970000000  0.5447590000000 1.0
C      1  0.4934790000000  0.5008770000000  0.5019680000000 1.0
C      1  0.5845500000000  0.4578430000000  0.4394910000000 1.0
C      1  0.4276080000000  0.5433280000000  0.5702420000000 1.0
C      1  0.5680950000000  0.5077740000000  0.5618050000000 1.0
C      1  0.5546630000000  0.4309660000000  0.4920910000000 1.0
C      1  0.4829660000000  0.5563010000000  0.5599430000000 1.0
C      1  0.5531720000000  0.5710950000000  0.4520260000000 1.0
C      1  0.4728200000000  0.5249010000000  0.5083850000000 1.0
C      1  0.4105220000000  0.5289260000000  0.4529320000000 1.0
C      1  0.4909290000000  0.5894030000000  0.5548100000000 1.0
C      1  0.5638070000000  0.4807250000000  0.4536720000000 1.0
C      1  0.4500240000000  0.5713160000000  0.6018360000000 1.0
C      1  0.5259380000000  0.5506050000000  0.5511810000000 1.0
C      1  0.4483610000000  0.5015230000000  0.5118760000000 1.0
C      1  0.4921370000000  0.4392120000000  0.5694870000000 1.0
C      1  0.4521200000000  0.4696020000000  0.5674220000000 1.0
C      1  0.5041920000000  0.5871470000000  0.4365190000000 1.0
C      1  0.4373210000000  0.4704400000000  0.5139480000000 1.0
C      1  0.5529410000000  0.5453040000000  0.5309620000000 1.0
C      1  0.5941900000000  0.4467010000000  0.5128580000000 1.0
C      1  0.5867020000000  0.5454240000000  0.4943850000000 1.0
C      1  0.5078450000000  0.4615210000000  0.5850910000000 1.0
C      1  0.4427100000000  0.4245990000000  0.5801590000000 1.0
C      1  0.5915640000000  0.5438620000000  0.4217800000000 1.0
C      1  0.4241450000000  0.4764370000000  0.5686390000000 1.0
C      1  0.5609180000000  0.5640460000000  0.5037380000000 1.0
C      1  0.5792220000000  0.5667930000000  0.4683000000000 1.0
C      1  0.5870030000000  0.5322310000000  0.5472620000000 1.0
C      1  0.5085160000000  0.4108940000000  0.5606260000000 1.0
C      1  0.4589220000000  0.5793940000000  0.5532280000000 1.0
C      1  0.4090960000000  0.5028370000000  0.4411130000000 1.0
C      1  0.5660850000000  0.5830230000000  0.5319160000000 1.0
C      1  0.4681610000000  0.4564900000000  0.5172380000000 1.0
C      1  0.5304560000000  0.4036160000000  0.4498780000000 1.0
C      1  0.5213980000000  0.5415800000000  0.5055550000000 1.0
C      1  0.4631860000000  0.4128880000000  0.5333300000000 1.0
C      1  0.4404130000000  0.5452620000000  0.4552360000000 1.0
C      1  0.5560190000000  0.5178330000000  0.6318880000000 1.0
C      1  0.4885550000000  0.4490890000000  0.4907440000000 1.0
C      1  0.4848070000000  0.6139740000000  0.4970160000000 1.0
C      1  0.4633910000000  0.5152010000000  0.5836320000000 1.0
C      1  0.5040240000000  0.5427670000000  0.4794280000000 1.0
C      1  0.5430120000000  0.5167420000000  0.4018790000000 1.0
C      1  0.4502640000000  0.4391670000000  0.4940880000000 1.0
C      1  0.4004640000000  0.4584260000000  0.5184470000000 1.0
C      1  0.4353800000000  0.5205090000000  0.5856260000000 1.0
C      1  0.5358830000000  0.4111000000000  0.4810710000000 1.0
C      1  0.5119710000000  0.4296570000000  0.5166150000000 1.0
C      1  0.6013090000000  0.4716570000000  0.4637590000000 1.0
C      1  0.5265790000000  0.3832880000000  0.4964680000000 1.0
C      1  0.5100580000000  0.3837110000000  0.4689410000000 1.0
C      1  0.5627560000000  0.5913350000000  0.4851500000000 1.0
C      1  0.5711790000000  0.4732740000000  0.4152190000000 1.0
C      1  0.4101410000000  0.4788630000000  0.4635070000000 1.0
C      1  0.5235020000000  0.4512650000000  0.5369940000000 1.0
C      1  0.5341710000000  0.5048590000000  0.5621510000000 1.0
C      1  0.6012070000000  0.5237090000000  0.4641900000000 1.0
C      1  0.4639070000000  0.5536070000000  0.4965910000000 1.0
C      1  0.6043880000000  0.4985150000000  0.5091840000000 1.0
C      1  0.5285250000000  0.4014350000000  0.5189410000000 1.0
C      1  0.5748690000000  0.5154760000000  0.4833320000000 1.0
C      1  0.4627370000000  0.3912990000000  0.4998470000000 1.0
C      1  0.5498360000000  0.5595350000000  0.5736580000000 1.0
C      1  0.4408220000000  0.5704310000000  0.4781300000000 1.0
C      1  0.4429990000000  0.4580560000000  0.4710140000000 1.0
C      1  0.4271200000000  0.5350620000000  0.5419410000000 1.0
C      1  0.4749000000000  0.5937310000000  0.4443310000000 1.0
C      1  0.5577370000000  0.5106600000000  0.4384560000000 1.0
C      1  0.4919730000000  0.5683890000000  0.5078950000000 1.0
C      1  0.5596980000000  0.4852650000000  0.4871190000000 1.0
C      1  0.5783300000000  0.4690340000000  0.5494280000000 1.0
C      1  0.5069860000000  0.5392320000000  0.5770380000000 1.0
C      1  0.5442670000000  0.5419810000000  0.4368860000000 1.0
C      1  0.4187300000000  0.5313590000000  0.4858370000000 1.0
C      1  0.4346580000000  0.4086840000000  0.5364070000000 1.0
C      1  0.5401770000000  0.4781890000000  0.5419130000000 1.0
C      1  0.4902290000000  0.4995930000000  0.4681270000000 1.0
C      1  0.4612660000000  0.4446800000000  0.5740560000000 1.0
C      1  0.5240570000000  0.5145250000000  0.5931470000000 1.0
C      1  0.4744390000000  0.4204570000000  0.4895070000000 1.0
C      1  0.4942110000000  0.4708810000000  0.4049070000000 1.0
C      1  0.4702870000000  0.5543650000000  0.6103030000000 1.0
C      1  0.6104840000000  0.4987230000000  0.4762300000000 1.0
C      1  0.5134300000000  0.5213900000000  0.5408650000000 1.0
C      1  0.4657330000000  0.4976300000000  0.4446130000000 1.0
C      1  0.3760100000000  0.4605570000000  0.5416820000000 1.0
C      1  0.5411640000000  0.4881470000000  0.4087670000000 1.0
C      1  0.5075300000000  0.4851480000000  0.6322590000000 1.0
C      1  0.4490110000000  0.5202770000000  0.4766390000000 1.0
C      1  0.4953060000000  0.4599280000000  0.4430990000000 1.0
C      1  0.4810730000000  0.4688920000000  0.4704270000000 1.0
C      1  0.5473130000000  0.4190190000000  0.4313050000000 1.0
C      1  0.4636730000000  0.4480920000000  0.4382850000000 1.0
C      1  0.5090720000000  0.5715360000000  0.5340950000000 1.0
C      1  0.4802970000000  0.5343870000000  0.5932190000000 1.0
C      1  0.5493920000000  0.6037340000000  0.5400150000000 1.0
C      1  0.5736800000000  0.5605180000000  0.5532010000000 1.0
C      1  0.4317790000000  0.4052710000000  0.5027000000000 1.0
C      1  0.3900770000000  0.4569460000000  0.4556990000000 1.0
C      1  0.5976360000000  0.5287840000000  0.5194610000000 1.0
C      1  0.5310100000000  0.5871360000000  0.4317340000000 1.0
C      1  0.4722690000000  0.4948940000000  0.5578210000000 1.0
C      1  0.4381830000000  0.4625860000000  0.4205260000000 1.0
C      1  0.5284650000000  0.4536260000000  0.4500880000000 1.0
C      1  0.4188890000000  0.4975960000000  0.5868200000000 1.0
C      1  0.5147010000000  0.4829740000000  0.4271710000000 1.0
C      1  0.4783520000000  0.5286310000000  0.4690210000000 1.0
C      1  0.5128830000000  0.4873770000000  0.6067700000000 1.0
C      1  0.3853020000000  0.5492860000000  0.5199190000000 1.0
C      1  0.4430370000000  0.4281700000000  0.4565860000000 1.0
C      1  0.5363210000000  0.4667290000000  0.5736950000000 1.0
C      1  0.4577570000000  0.5674830000000  0.4362080000000 1.0
C      1  0.5447830000000  0.5669600000000  0.4138170000000 1.0
C      1  0.5895560000000  0.4712090000000  0.4953260000000 1.0
C      1  0.4403130000000  0.5677370000000  0.5755610000000 1.0
C      1  0.4203820000000  0.5818690000000  0.5024100000000 1.0
C      1  0.4269950000000  0.4098870000000  0.4698240000000 1.0
C      1  0.5773410000000  0.4457930000000  0.5343440000000 1.0
C      1  0.4849910000000  0.5672380000000  0.4736460000000 1.0
C      1  0.5195080000000  0.5016260000000  0.4549700000000 1.0
C      1  0.4882600000000  0.5384120000000  0.4130570000000 1.0
C      1  0.4809850000000  0.3945210000000  0.4707310000000 1.0
C      1  0.4108490000000  0.4813350000000  0.4955470000000 1.0
C      1  0.5575900000000  0.5176340000000  0.5247970000000 1.0
C      1  0.4627190000000  0.6101090000000  0.4632600000000 1.0
C      1  0.4813320000000  0.4214540000000  0.4499410000000 1.0
C      1  0.5130580000000  0.6044410000000  0.5064220000000 1.0
C      1  0.5436910000000  0.4916210000000  0.5146630000000 1.0
C      1  0.5200230000000  0.5115980000000  0.5126340000000 1.0
C      1  0.5437300000000  0.5448640000000  0.4816030000000 1.0
C      1  0.5641460000000  0.4762280000000  0.5738620000000 1.0
C      1  0.5506240000000  0.4341210000000  0.5257170000000 1.0
C      1  0.5437680000000  0.5293940000000  0.6104350000000 1.0
C      1  0.5177480000000  0.6029220000000  0.5383190000000 1.0
C      1  0.5710500000000  0.5265840000000  0.4122090000000 1.0
C      1  0.4897830000000  0.5567770000000  0.4416430000000 1.0
C      1  0.5736900000000  0.4277510000000  0.4356740000000 1.0
C      1  0.4859290000000  0.4227160000000  0.4172870000000 1.0
C      1  0.5462280000000  0.5177860000000  0.4684340000000 1.0
END
