TITL C-2847954-6904-343 -0.00133944060799644 125000 -259.896203682189 0 0 47 (C1) n - 1
REM
REM in /home/bkarasulu/work/CARBON/AIRSS/Generating-Clusters/AIREBO/with-SteepDescent/Only-C1/SD-CG-opt/Try1-1.4A-POS3A/HFTN-CG
REM
REM
REM
REM
REM
REM ./C.cell (11c1c37f851c82e70ff6c80c92926a4b)
REM
REM compiler GCC version 9.2.1 20190827 (Red Hat 9.2.1-1)
REM options -cpp -mtune=generic -march=x86-64 -g -O0 -fpre-include=/usr/include/finclude/math-vector-fortran.h
REM seed 1627478621 931670385 852445468 140803220 -994949025 1484225760 1984082791 209000226 974360950 -789944548 -77270364 1622788895 1872306891 -958812677 -1909450502 -1140759787 1058567590 635968792 -1001536522 -339123316 1702222073 1033788710 251894361 -212023822 -1033853822 1535118943 788393941 -1312610534 -361769648 -49433157 -1766408031 -508148198 -1262324071
REM
CELL 1.54180   50.00000   50.00000   50.00000   90.00000   90.00000   90.00000
LATT -1
SFAC C  
C      1  0.4833350000000  0.4478810000000  0.5355950000000 1.0
C      1  0.4748890000000  0.5106520000000  0.5498880000000 1.0
C      1  0.5068470000000  0.4675270000000  0.5265210000000 1.0
C      1  0.5091670000000  0.4706330000000  0.4589680000000 1.0
C      1  0.4887800000000  0.4455210000000  0.4694680000000 1.0
C      1  0.4953580000000  0.5159640000000  0.5258910000000 1.0
C      1  0.4831390000000  0.5254880000000  0.4712030000000 1.0
C      1  0.5705990000000  0.5290110000000  0.5069430000000 1.0
C      1  0.4845470000000  0.5605590000000  0.5062370000000 1.0
C      1  0.5087230000000  0.4893710000000  0.5524330000000 1.0
C      1  0.4718050000000  0.4488360000000  0.4904650000000 1.0
C      1  0.5436350000000  0.4571960000000  0.4967680000000 1.0
C      1  0.4822320000000  0.5215880000000  0.5755290000000 1.0
C      1  0.5295810000000  0.5481890000000  0.5274010000000 1.0
C      1  0.5016040000000  0.5456460000000  0.5220620000000 1.0
C      1  0.5132920000000  0.4946930000000  0.4826960000000 1.0
C      1  0.5291820000000  0.5247760000000  0.4834370000000 1.0
C      1  0.5194810000000  0.5163650000000  0.4377380000000 1.0
C      1  0.5339600000000  0.4497140000000  0.4691960000000 1.0
C      1  0.4736160000000  0.4961530000000  0.4726630000000 1.0
C      1  0.4565520000000  0.5065460000000  0.4451520000000 1.0
C      1  0.5539140000000  0.4819750000000  0.4843910000000 1.0
C      1  0.4770720000000  0.4767410000000  0.5511120000000 1.0
C      1  0.5447700000000  0.5440450000000  0.5040590000000 1.0
C      1  0.4513620000000  0.5286900000000  0.5365120000000 1.0
C      1  0.4470770000000  0.5154820000000  0.4210260000000 1.0
C      1  0.4440110000000  0.5326400000000  0.5107830000000 1.0
C      1  0.4439920000000  0.5226590000000  0.4723360000000 1.0
C      1  0.5470880000000  0.5044090000000  0.5032470000000 1.0
C      1  0.4807890000000  0.4822220000000  0.4442340000000 1.0
C      1  0.5574620000000  0.4501040000000  0.4483140000000 1.0
C      1  0.5505420000000  0.4728430000000  0.5434810000000 1.0
C      1  0.5359170000000  0.4608680000000  0.5232600000000 1.0
C      1  0.4435680000000  0.4869540000000  0.5108750000000 1.0
C      1  0.5264980000000  0.5022660000000  0.5264640000000 1.0
C      1  0.4657030000000  0.5435530000000  0.4901950000000 1.0
C      1  0.5395930000000  0.5347290000000  0.5508910000000 1.0
C      1  0.4308610000000  0.5090770000000  0.4977580000000 1.0
C      1  0.4671440000000  0.4779320000000  0.4956620000000 1.0
C      1  0.4836230000000  0.5878280000000  0.5047800000000 1.0
C      1  0.4479350000000  0.4870500000000  0.5382000000000 1.0
C      1  0.5090070000000  0.5281960000000  0.4612840000000 1.0
C      1  0.5303810000000  0.4905520000000  0.4413810000000 1.0
C      1  0.4718470000000  0.4346460000000  0.5149620000000 1.0
C      1  0.5399330000000  0.5021560000000  0.5571000000000 1.0
C      1  0.5548400000000  0.4806450000000  0.4552400000000 1.0
C      1  0.4947430000000  0.4894290000000  0.5062000000000 1.0
END
