TITL C-2847957-7266-598 0.00150914761730704 125000 -755.137947826781 0 0 139 (C1) n - 1
REM
REM in /home/bkarasulu/work/CARBON/AIRSS/Generating-Clusters/AIREBO/with-SteepDescent/Only-C1/SD-CG-opt/Try1-1.4A-POS3A/HFTN-CG
REM
REM
REM
REM
REM
REM ./C.cell (11c1c37f851c82e70ff6c80c92926a4b)
REM
REM compiler GCC version 9.2.1 20190827 (Red Hat 9.2.1-1)
REM options -cpp -mtune=generic -march=x86-64 -g -O0 -fpre-include=/usr/include/finclude/math-vector-fortran.h
REM seed -1101978514 1061112063 -562721972 -1370359239 1045750159 -1737375632 784533810 -578152182 995171192 -510492479 -1682568337 -1014604117 1459660023 31807876 360591054 -564077145 1380232963 803758358 -492579838 1602226124 377627684 1459288882 -1277773367 79722872 -1590852828 -527140936 651286322 1307483443 60044785 882912186 1709484257 738435024 -221374285
REM
CELL 1.54180   50.00000   50.00000   50.00000   90.00000   90.00000   90.00000
LATT -1
SFAC C  
C      1  0.5252640000000  0.4531730000000  0.4917070000000 1.0
C      1  0.4772970000000  0.4190320000000  0.5463150000000 1.0
C      1  0.4796920000000  0.5448620000000  0.4656820000000 1.0
C      1  0.4505740000000  0.4546160000000  0.5164490000000 1.0
C      1  0.5046380000000  0.4353330000000  0.4721060000000 1.0
C      1  0.4069570000000  0.5200810000000  0.5588430000000 1.0
C      1  0.4726090000000  0.5387350000000  0.4187130000000 1.0
C      1  0.5791580000000  0.5290920000000  0.4519790000000 1.0
C      1  0.5918240000000  0.5356140000000  0.5300260000000 1.0
C      1  0.5307950000000  0.4214450000000  0.5357470000000 1.0
C      1  0.4508460000000  0.4322900000000  0.4452630000000 1.0
C      1  0.5630420000000  0.5162210000000  0.4973620000000 1.0
C      1  0.4890610000000  0.5107040000000  0.4080320000000 1.0
C      1  0.4837240000000  0.5921480000000  0.5239160000000 1.0
C      1  0.5214850000000  0.4842020000000  0.4840500000000 1.0
C      1  0.5366760000000  0.4171920000000  0.4553380000000 1.0
C      1  0.5615360000000  0.4572140000000  0.4548930000000 1.0
C      1  0.5189320000000  0.4547250000000  0.4195890000000 1.0
C      1  0.5518120000000  0.4628320000000  0.4227950000000 1.0
C      1  0.4691840000000  0.5092720000000  0.4351580000000 1.0
C      1  0.5772760000000  0.5070790000000  0.5435610000000 1.0
C      1  0.5787220000000  0.4953830000000  0.4520880000000 1.0
C      1  0.5059270000000  0.4038620000000  0.4780060000000 1.0
C      1  0.5531840000000  0.4880720000000  0.5840130000000 1.0
C      1  0.5188750000000  0.5114560000000  0.4115340000000 1.0
C      1  0.5682710000000  0.4250120000000  0.4967630000000 1.0
C      1  0.5148740000000  0.5465670000000  0.4637170000000 1.0
C      1  0.4899900000000  0.5075050000000  0.4724840000000 1.0
C      1  0.4831340000000  0.5001020000000  0.5839490000000 1.0
C      1  0.4713310000000  0.5876900000000  0.4794320000000 1.0
C      1  0.4389320000000  0.4703800000000  0.5696510000000 1.0
C      1  0.5589400000000  0.5430400000000  0.4835280000000 1.0
C      1  0.5130880000000  0.5753410000000  0.4362870000000 1.0
C      1  0.5166750000000  0.4130590000000  0.5072660000000 1.0
C      1  0.4436690000000  0.4150450000000  0.5020490000000 1.0
C      1  0.4996610000000  0.3820360000000  0.4661860000000 1.0
C      1  0.5812630000000  0.4745900000000  0.4765550000000 1.0
C      1  0.4759160000000  0.4503890000000  0.4823260000000 1.0
C      1  0.5367550000000  0.5743520000000  0.4209100000000 1.0
C      1  0.4871250000000  0.5460510000000  0.4988590000000 1.0
C      1  0.6065330000000  0.4693220000000  0.5205490000000 1.0
C      1  0.6034530000000  0.4904010000000  0.4973060000000 1.0
C      1  0.5096260000000  0.5211050000000  0.4936190000000 1.0
C      1  0.5254570000000  0.5786680000000  0.5560970000000 1.0
C      1  0.5001810000000  0.5369630000000  0.5289650000000 1.0
C      1  0.5053290000000  0.5176980000000  0.5966480000000 1.0
C      1  0.4534540000000  0.5844900000000  0.5246350000000 1.0
C      1  0.4479390000000  0.5729660000000  0.4957050000000 1.0
C      1  0.5923380000000  0.5144240000000  0.5072460000000 1.0
C      1  0.5519060000000  0.5294210000000  0.5398520000000 1.0
C      1  0.5303270000000  0.5371100000000  0.5153300000000 1.0
C      1  0.5008280000000  0.4603560000000  0.5443040000000 1.0
C      1  0.5690030000000  0.5070960000000  0.4042960000000 1.0
C      1  0.4546410000000  0.5580430000000  0.5724710000000 1.0
C      1  0.4495370000000  0.5197210000000  0.5051770000000 1.0
C      1  0.4804050000000  0.4396920000000  0.5713910000000 1.0
C      1  0.4196090000000  0.4541940000000  0.4775540000000 1.0
C      1  0.4469640000000  0.4870280000000  0.4091910000000 1.0
C      1  0.5279410000000  0.4499010000000  0.4520250000000 1.0
C      1  0.5085140000000  0.4832440000000  0.5128970000000 1.0
C      1  0.5085940000000  0.4241000000000  0.5586270000000 1.0
C      1  0.4626490000000  0.5742010000000  0.5520950000000 1.0
C      1  0.5554350000000  0.5652830000000  0.5020890000000 1.0
C      1  0.4300660000000  0.4453640000000  0.4326960000000 1.0
C      1  0.4957320000000  0.5519940000000  0.5548650000000 1.0
C      1  0.5478060000000  0.4634090000000  0.5715200000000 1.0
C      1  0.5102900000000  0.4867180000000  0.6097630000000 1.0
C      1  0.4900280000000  0.4578540000000  0.5121490000000 1.0
C      1  0.5319050000000  0.5086630000000  0.5818810000000 1.0
C      1  0.5669860000000  0.4561740000000  0.5517560000000 1.0
C      1  0.4735020000000  0.5876620000000  0.4489690000000 1.0
C      1  0.5475220000000  0.5052020000000  0.4507500000000 1.0
C      1  0.4581050000000  0.5193730000000  0.4722740000000 1.0
C      1  0.3763360000000  0.4447640000000  0.5005130000000 1.0
C      1  0.5002750000000  0.4653000000000  0.5945990000000 1.0
C      1  0.4464660000000  0.4343070000000  0.4768030000000 1.0
C      1  0.5669400000000  0.5587470000000  0.5314790000000 1.0
C      1  0.4144820000000  0.5466680000000  0.4546860000000 1.0
C      1  0.5380750000000  0.5092210000000  0.4801950000000 1.0
C      1  0.4330720000000  0.5037240000000  0.5731050000000 1.0
C      1  0.5458990000000  0.5380570000000  0.5722790000000 1.0
C      1  0.4913720000000  0.4871230000000  0.5610380000000 1.0
C      1  0.4941990000000  0.4282420000000  0.5216300000000 1.0
C      1  0.5468130000000  0.5394770000000  0.4536210000000 1.0
C      1  0.4717380000000  0.5568610000000  0.5935740000000 1.0
C      1  0.5438470000000  0.5833690000000  0.5355320000000 1.0
C      1  0.4025450000000  0.4519450000000  0.4998260000000 1.0
C      1  0.4191660000000  0.5424630000000  0.5363050000000 1.0
C      1  0.4355850000000  0.5370780000000  0.5655890000000 1.0
C      1  0.4749890000000  0.4431400000000  0.4366970000000 1.0
C      1  0.4227560000000  0.5061590000000  0.4125110000000 1.0
C      1  0.4905750000000  0.4595940000000  0.4161530000000 1.0
C      1  0.5553260000000  0.4416470000000  0.5234560000000 1.0
C      1  0.4680820000000  0.4579060000000  0.5454450000000 1.0
C      1  0.4668380000000  0.4638770000000  0.5884590000000 1.0
C      1  0.4672140000000  0.5069820000000  0.5274320000000 1.0
C      1  0.5374590000000  0.4700230000000  0.5177900000000 1.0
C      1  0.4299010000000  0.4468480000000  0.5492050000000 1.0
C      1  0.4180790000000  0.4625020000000  0.5226180000000 1.0
C      1  0.5609090000000  0.4920750000000  0.5178100000000 1.0
C      1  0.5879530000000  0.4747960000000  0.5442130000000 1.0
C      1  0.5040690000000  0.5919950000000  0.4617130000000 1.0
C      1  0.4379390000000  0.5468500000000  0.4769320000000 1.0
C      1  0.4342920000000  0.4905050000000  0.5127000000000 1.0
C      1  0.4504310000000  0.4851550000000  0.5421440000000 1.0
C      1  0.5393480000000  0.4235450000000  0.4875130000000 1.0
C      1  0.4950360000000  0.5846710000000  0.5520280000000 1.0
C      1  0.5261950000000  0.5110670000000  0.5506400000000 1.0
C      1  0.5487840000000  0.5487620000000  0.4228390000000 1.0
C      1  0.5470150000000  0.5252090000000  0.4070890000000 1.0
C      1  0.5384780000000  0.6000460000000  0.5122580000000 1.0
C      1  0.5769520000000  0.5001810000000  0.5766650000000 1.0
C      1  0.5010980000000  0.5463780000000  0.5877570000000 1.0
C      1  0.5207440000000  0.6003530000000  0.4901720000000 1.0
C      1  0.4962460000000  0.5788080000000  0.4984840000000 1.0
C      1  0.5075670000000  0.5111830000000  0.4436100000000 1.0
C      1  0.5754690000000  0.4643780000000  0.5077540000000 1.0
C      1  0.4831080000000  0.4683310000000  0.4544460000000 1.0
C      1  0.4500280000000  0.4247670000000  0.5327280000000 1.0
C      1  0.4016550000000  0.5303350000000  0.4790480000000 1.0
C      1  0.5283810000000  0.5597190000000  0.5764740000000 1.0
C      1  0.4683620000000  0.5611940000000  0.4414600000000 1.0
C      1  0.4985690000000  0.5041970000000  0.5336970000000 1.0
C      1  0.5800910000000  0.4351240000000  0.4728980000000 1.0
C      1  0.5366360000000  0.4908650000000  0.4267130000000 1.0
C      1  0.4579890000000  0.4882850000000  0.4584090000000 1.0
C      1  0.4560470000000  0.4955960000000  0.5943160000000 1.0
C      1  0.5111670000000  0.4793350000000  0.4550410000000 1.0
C      1  0.4352910000000  0.4763660000000  0.4360550000000 1.0
C      1  0.4326150000000  0.5460520000000  0.5105050000000 1.0
C      1  0.4196140000000  0.4787450000000  0.4635300000000 1.0
C      1  0.4258800000000  0.5104410000000  0.4658700000000 1.0
C      1  0.5236930000000  0.5601070000000  0.4911790000000 1.0
C      1  0.4747550000000  0.4827460000000  0.4058860000000 1.0
C      1  0.5179110000000  0.4542360000000  0.5713610000000 1.0
C      1  0.5757320000000  0.4864350000000  0.4215540000000 1.0
C      1  0.4170590000000  0.5224200000000  0.4349290000000 1.0
C      1  0.5026540000000  0.5431410000000  0.4330790000000 1.0
C      1  0.4548890000000  0.4759460000000  0.4901420000000 1.0
END
