TITL C-2848502-4955-637 -0.000336773677131788 125000 -1058.42484556036 0 0 194 (C1) n - 1
REM
REM in /home/bkarasulu/work/CARBON/AIRSS/Generating-Clusters/AIREBO/with-SteepDescent/Only-C1/SD-CG-opt/Try1-1.4A-POS3A/HFTN-CG
REM
REM
REM
REM
REM
REM ./C.cell (11c1c37f851c82e70ff6c80c92926a4b)
REM
REM compiler GCC version 9.2.1 20190827 (Red Hat 9.2.1-1)
REM options -cpp -mtune=generic -march=x86-64 -g -O0 -fpre-include=/usr/include/finclude/math-vector-fortran.h
REM seed 1323198379 -1258632862 -681379580 -1466605132 -1261162834 1582241967 -363215787 -1889528566 -922498329 1381170863 1029273161 -1819858315 -354932838 -792221265 1235626546 -355995495 760245891 -1065444312 -321875531 1598122145 581037165 -732559219 470217967 -166343763 -465575252 1469962579 154765775 2129371158 1114958599 192411328 -1195897868 -1530834932 1818981625
REM
CELL 1.54180   50.00000   50.00000   50.00000   90.00000   90.00000   90.00000
LATT -1
SFAC C  
C      1  0.5091690000000  0.4820870000000  0.4464150000000 1.0
C      1  0.4095500000000  0.4827850000000  0.4352720000000 1.0
C      1  0.3978900000000  0.4665640000000  0.4543000000000 1.0
C      1  0.4414510000000  0.5609180000000  0.4878700000000 1.0
C      1  0.4481350000000  0.5102990000000  0.4767180000000 1.0
C      1  0.4699400000000  0.4517620000000  0.3964630000000 1.0
C      1  0.4034500000000  0.5228070000000  0.4482460000000 1.0
C      1  0.5943340000000  0.4563380000000  0.5321210000000 1.0
C      1  0.5531260000000  0.4089530000000  0.4806270000000 1.0
C      1  0.4721050000000  0.5491410000000  0.4093080000000 1.0
C      1  0.4170840000000  0.5561890000000  0.5622720000000 1.0
C      1  0.5449330000000  0.5895180000000  0.4991600000000 1.0
C      1  0.5354640000000  0.5605940000000  0.5132140000000 1.0
C      1  0.4675170000000  0.4703600000000  0.5336430000000 1.0
C      1  0.5056750000000  0.4019960000000  0.5452150000000 1.0
C      1  0.4682830000000  0.4326700000000  0.4164690000000 1.0
C      1  0.5629010000000  0.4553250000000  0.5275100000000 1.0
C      1  0.4358740000000  0.4687770000000  0.5284820000000 1.0
C      1  0.5646030000000  0.5617130000000  0.5663300000000 1.0
C      1  0.4963070000000  0.4367250000000  0.5277200000000 1.0
C      1  0.5369970000000  0.5233920000000  0.4991600000000 1.0
C      1  0.4734450000000  0.5753730000000  0.5310330000000 1.0
C      1  0.5031580000000  0.3879080000000  0.4708510000000 1.0
C      1  0.4398210000000  0.5182920000000  0.5845880000000 1.0
C      1  0.4025840000000  0.4339900000000  0.5134330000000 1.0
C      1  0.4996920000000  0.4665100000000  0.3904070000000 1.0
C      1  0.4344600000000  0.5746990000000  0.4634480000000 1.0
C      1  0.4841050000000  0.5770320000000  0.5809230000000 1.0
C      1  0.5211160000000  0.4181610000000  0.5195750000000 1.0
C      1  0.4491540000000  0.6137970000000  0.5082880000000 1.0
C      1  0.4270530000000  0.4264500000000  0.5333880000000 1.0
C      1  0.5673170000000  0.4335540000000  0.4176380000000 1.0
C      1  0.4057670000000  0.4399660000000  0.4574290000000 1.0
C      1  0.4322680000000  0.5193610000000  0.5154840000000 1.0
C      1  0.5503450000000  0.5346500000000  0.4698150000000 1.0
C      1  0.4680850000000  0.4179230000000  0.4638880000000 1.0
C      1  0.4752780000000  0.4491520000000  0.5590720000000 1.0
C      1  0.5328080000000  0.5077430000000  0.5990060000000 1.0
C      1  0.5045940000000  0.4160440000000  0.4159430000000 1.0
C      1  0.4797000000000  0.5692130000000  0.4284170000000 1.0
C      1  0.5780130000000  0.5359360000000  0.4849200000000 1.0
C      1  0.4557900000000  0.5980940000000  0.5333030000000 1.0
C      1  0.5706020000000  0.5771670000000  0.5432130000000 1.0
C      1  0.5614700000000  0.4854080000000  0.5348800000000 1.0
C      1  0.4430280000000  0.4980930000000  0.5594320000000 1.0
C      1  0.4906020000000  0.4209920000000  0.5704150000000 1.0
C      1  0.5369440000000  0.4565210000000  0.5578950000000 1.0
C      1  0.5146170000000  0.4980860000000  0.4177560000000 1.0
C      1  0.5856010000000  0.5650960000000  0.4960540000000 1.0
C      1  0.4670150000000  0.4268670000000  0.5347560000000 1.0
C      1  0.4263780000000  0.5117450000000  0.4293800000000 1.0
C      1  0.5723330000000  0.4970750000000  0.4062680000000 1.0
C      1  0.5683640000000  0.4374940000000  0.4801940000000 1.0
C      1  0.5387240000000  0.4353290000000  0.5916450000000 1.0
C      1  0.4466520000000  0.5961750000000  0.4507910000000 1.0
C      1  0.5089750000000  0.4476330000000  0.4161840000000 1.0
C      1  0.5102520000000  0.4908040000000  0.4794510000000 1.0
C      1  0.5022770000000  0.6024430000000  0.5718700000000 1.0
C      1  0.4681680000000  0.5526300000000  0.5633790000000 1.0
C      1  0.5444950000000  0.4879280000000  0.4159730000000 1.0
C      1  0.4050030000000  0.5400700000000  0.5416600000000 1.0
C      1  0.4580100000000  0.4792730000000  0.5788210000000 1.0
C      1  0.5469990000000  0.4309960000000  0.5377880000000 1.0
C      1  0.5974550000000  0.4336450000000  0.4903830000000 1.0
C      1  0.5099530000000  0.3867980000000  0.4972360000000 1.0
C      1  0.5077630000000  0.4571320000000  0.5523840000000 1.0
C      1  0.4914310000000  0.3915210000000  0.5172870000000 1.0
C      1  0.5788150000000  0.5530870000000  0.4487990000000 1.0
C      1  0.5872100000000  0.5026690000000  0.5235110000000 1.0
C      1  0.5347360000000  0.5076690000000  0.4629490000000 1.0
C      1  0.4971590000000  0.5815820000000  0.5096970000000 1.0
C      1  0.4707130000000  0.4928130000000  0.6071890000000 1.0
C      1  0.5541610000000  0.4934920000000  0.4948890000000 1.0
C      1  0.4814380000000  0.5726520000000  0.4814500000000 1.0
C      1  0.4921700000000  0.5356260000000  0.4457110000000 1.0
C      1  0.5455600000000  0.5570220000000  0.4446330000000 1.0
C      1  0.4109220000000  0.5010030000000  0.4964020000000 1.0
C      1  0.5320790000000  0.5747960000000  0.3952040000000 1.0
C      1  0.5202340000000  0.5781090000000  0.5588060000000 1.0
C      1  0.5410510000000  0.5692590000000  0.5789450000000 1.0
C      1  0.4387680000000  0.5435830000000  0.5762270000000 1.0
C      1  0.4896800000000  0.5277650000000  0.5685280000000 1.0
C      1  0.4521630000000  0.5819840000000  0.5696480000000 1.0
C      1  0.4640720000000  0.4972530000000  0.3959860000000 1.0
C      1  0.5540400000000  0.4609450000000  0.4982110000000 1.0
C      1  0.4422820000000  0.5400290000000  0.4192280000000 1.0
C      1  0.5518790000000  0.4805930000000  0.5767590000000 1.0
C      1  0.5401490000000  0.3949530000000  0.5035920000000 1.0
C      1  0.5248950000000  0.6083410000000  0.5469690000000 1.0
C      1  0.5554280000000  0.5416030000000  0.5331490000000 1.0
C      1  0.4688560000000  0.4961330000000  0.4977350000000 1.0
C      1  0.5489290000000  0.4651890000000  0.6009760000000 1.0
C      1  0.3878270000000  0.4822340000000  0.4799540000000 1.0
C      1  0.4939560000000  0.5525650000000  0.6018290000000 1.0
C      1  0.4690780000000  0.5558380000000  0.4571260000000 1.0
C      1  0.6106090000000  0.4750120000000  0.4590390000000 1.0
C      1  0.5021430000000  0.4887030000000  0.5410820000000 1.0
C      1  0.4113580000000  0.4994090000000  0.5647020000000 1.0
C      1  0.5483550000000  0.5263430000000  0.5836990000000 1.0
C      1  0.4469220000000  0.4001450000000  0.5363320000000 1.0
C      1  0.4436970000000  0.4787100000000  0.5007120000000 1.0
C      1  0.5147560000000  0.6078770000000  0.5178010000000 1.0
C      1  0.5709180000000  0.5853020000000  0.4835390000000 1.0
C      1  0.5191830000000  0.5371840000000  0.5711990000000 1.0
C      1  0.5853590000000  0.5030400000000  0.4893950000000 1.0
C      1  0.5603250000000  0.5953390000000  0.4346840000000 1.0
C      1  0.4377030000000  0.4736690000000  0.4257290000000 1.0
C      1  0.4111490000000  0.5746000000000  0.5099300000000 1.0
C      1  0.5232330000000  0.4200240000000  0.5678910000000 1.0
C      1  0.4059020000000  0.4842540000000  0.5257210000000 1.0
C      1  0.6062890000000  0.4552680000000  0.5065470000000 1.0
C      1  0.5809290000000  0.5317490000000  0.5171740000000 1.0
C      1  0.6344300000000  0.4832650000000  0.4470010000000 1.0
C      1  0.5414880000000  0.4552140000000  0.4564630000000 1.0
C      1  0.6081430000000  0.4786070000000  0.4908480000000 1.0
C      1  0.4711440000000  0.4727800000000  0.4510650000000 1.0
C      1  0.5326720000000  0.5241890000000  0.5470130000000 1.0
C      1  0.4823780000000  0.5248560000000  0.6076370000000 1.0
C      1  0.4557920000000  0.4151900000000  0.4348900000000 1.0
C      1  0.5084320000000  0.4537650000000  0.4652410000000 1.0
C      1  0.5169700000000  0.5549910000000  0.4852290000000 1.0
C      1  0.4144730000000  0.5483440000000  0.5156310000000 1.0
C      1  0.4577140000000  0.5344360000000  0.4987000000000 1.0
C      1  0.5037800000000  0.5065620000000  0.5911010000000 1.0
C      1  0.4490600000000  0.4413130000000  0.5133740000000 1.0
C      1  0.5323740000000  0.4627840000000  0.4003920000000 1.0
C      1  0.4913180000000  0.6024920000000  0.4730890000000 1.0
C      1  0.4375820000000  0.5440610000000  0.4520300000000 1.0
C      1  0.5185100000000  0.6068610000000  0.4866030000000 1.0
C      1  0.4421010000000  0.4822550000000  0.4583660000000 1.0
C      1  0.5180860000000  0.5543970000000  0.4573400000000 1.0
C      1  0.5343050000000  0.4954650000000  0.5365400000000 1.0
C      1  0.5499970000000  0.5929640000000  0.5316210000000 1.0
C      1  0.5913730000000  0.4943750000000  0.4227090000000 1.0
C      1  0.5433730000000  0.5765220000000  0.4195320000000 1.0
C      1  0.5047580000000  0.4419900000000  0.5931460000000 1.0
C      1  0.3665720000000  0.5020270000000  0.4688520000000 1.0
C      1  0.4586010000000  0.5029120000000  0.5294560000000 1.0
C      1  0.6088740000000  0.5005850000000  0.5470660000000 1.0
C      1  0.4953500000000  0.4671130000000  0.5143660000000 1.0
C      1  0.4850020000000  0.5320750000000  0.3923380000000 1.0
C      1  0.5226400000000  0.4954250000000  0.5074930000000 1.0
C      1  0.4322670000000  0.4301710000000  0.4763670000000 1.0
C      1  0.4634670000000  0.3944320000000  0.5118190000000 1.0
C      1  0.5143720000000  0.5352220000000  0.5216500000000 1.0
C      1  0.5327680000000  0.4225770000000  0.4603400000000 1.0
C      1  0.4634150000000  0.5440720000000  0.5308120000000 1.0
C      1  0.5785410000000  0.4954510000000  0.5617660000000 1.0
C      1  0.6015530000000  0.4469330000000  0.4529090000000 1.0
C      1  0.4201920000000  0.5256710000000  0.4748100000000 1.0
C      1  0.6333410000000  0.5048180000000  0.5527680000000 1.0
C      1  0.4870490000000  0.4441350000000  0.4406190000000 1.0
C      1  0.4894160000000  0.4863090000000  0.5725220000000 1.0
C      1  0.5861350000000  0.4622930000000  0.5611190000000 1.0
C      1  0.5889750000000  0.5289210000000  0.4471580000000 1.0
C      1  0.4896610000000  0.4656050000000  0.5990740000000 1.0
C      1  0.3985740000000  0.5131120000000  0.5428220000000 1.0
C      1  0.5153110000000  0.4294550000000  0.4880110000000 1.0
C      1  0.4878780000000  0.5191010000000  0.5356960000000 1.0
C      1  0.4874260000000  0.5408530000000  0.4906990000000 1.0
C      1  0.5559520000000  0.4431820000000  0.3975500000000 1.0
C      1  0.4521560000000  0.4051280000000  0.4887080000000 1.0
C      1  0.5128020000000  0.5052480000000  0.3642090000000 1.0
C      1  0.4241130000000  0.5950690000000  0.5277380000000 1.0
C      1  0.5248820000000  0.5541010000000  0.6001370000000 1.0
C      1  0.6146420000000  0.4254340000000  0.4674490000000 1.0
C      1  0.5843530000000  0.4963930000000  0.4559240000000 1.0
C      1  0.5551250000000  0.4015140000000  0.5320390000000 1.0
C      1  0.5696660000000  0.5284740000000  0.5611590000000 1.0
C      1  0.4673690000000  0.6190650000000  0.4889130000000 1.0
C      1  0.5875890000000  0.5640760000000  0.5253800000000 1.0
C      1  0.3939970000000  0.4782030000000  0.5764930000000 1.0
C      1  0.4281970000000  0.4637270000000  0.4800350000000 1.0
C      1  0.5712190000000  0.4428520000000  0.4466710000000 1.0
C      1  0.4969330000000  0.5003830000000  0.3891140000000 1.0
C      1  0.4595130000000  0.5118100000000  0.4214470000000 1.0
C      1  0.4226770000000  0.4443050000000  0.5571910000000 1.0
C      1  0.4018870000000  0.4629140000000  0.5519090000000 1.0
C      1  0.4268180000000  0.5836000000000  0.5569180000000 1.0
C      1  0.3767340000000  0.5206760000000  0.4510770000000 1.0
C      1  0.4521670000000  0.4727330000000  0.4015860000000 1.0
C      1  0.5030600000000  0.5203690000000  0.4710080000000 1.0
C      1  0.4621890000000  0.4434940000000  0.4855270000000 1.0
C      1  0.4829620000000  0.5031730000000  0.4412160000000 1.0
C      1  0.4837880000000  0.4696560000000  0.4824810000000 1.0
C      1  0.5242230000000  0.4560930000000  0.5018470000000 1.0
C      1  0.4746820000000  0.5937420000000  0.4457230000000 1.0
C      1  0.5524940000000  0.4863590000000  0.4483150000000 1.0
C      1  0.5040170000000  0.5633960000000  0.5376310000000 1.0
C      1  0.5739810000000  0.5826480000000  0.4559530000000 1.0
C      1  0.4452610000000  0.4505830000000  0.5735870000000 1.0
C      1  0.5651320000000  0.4434820000000  0.5717350000000 1.0
C      1  0.4021730000000  0.4604610000000  0.5017120000000 1.0
C      1  0.5000820000000  0.4156140000000  0.4537960000000 1.0
END
