TITL C-2848501-3133-413 -0.000425064880509738 125000 -1020.03759526801 0 0 190 (C1) n - 1
REM
REM in /home/bkarasulu/work/CARBON/AIRSS/Generating-Clusters/AIREBO/with-SteepDescent/Only-C1/SD-CG-opt/Try1-1.4A-POS3A/HFTN-CG
REM
REM
REM
REM
REM
REM ./C.cell (11c1c37f851c82e70ff6c80c92926a4b)
REM
REM compiler GCC version 9.2.1 20190827 (Red Hat 9.2.1-1)
REM options -cpp -mtune=generic -march=x86-64 -g -O0 -fpre-include=/usr/include/finclude/math-vector-fortran.h
REM seed -289303282 1193739540 1324783938 2134437070 344774637 239333171 27061763 509480593 -234745499 -760336263 -571533163 698647506 1588693478 -503665534 -1900396238 -262517874 -245864261 63875090 1590507695 -306192335 -745606363 249410568 1992451175 -847893115 -543934287 495077235 1830130226 1135888063 1589368412 -1622538043 1880188941 1219023973 -1855443026
REM
CELL 1.54180   50.00000   50.00000   50.00000   90.00000   90.00000   90.00000
LATT -1
SFAC C  
C      1  0.4448880000000  0.4246700000000  0.4393540000000 1.0
C      1  0.5170870000000  0.4202430000000  0.5583690000000 1.0
C      1  0.5773920000000  0.5775030000000  0.4863530000000 1.0
C      1  0.5529630000000  0.4068630000000  0.4530670000000 1.0
C      1  0.6032480000000  0.4780320000000  0.4861630000000 1.0
C      1  0.5405300000000  0.4597450000000  0.5871550000000 1.0
C      1  0.4109920000000  0.5359900000000  0.4289600000000 1.0
C      1  0.5274620000000  0.4721350000000  0.5344540000000 1.0
C      1  0.6066010000000  0.5067390000000  0.5302700000000 1.0
C      1  0.4717580000000  0.4190850000000  0.5723740000000 1.0
C      1  0.4170700000000  0.4548540000000  0.4943300000000 1.0
C      1  0.4830840000000  0.5107030000000  0.4810060000000 1.0
C      1  0.5524770000000  0.6002880000000  0.4953890000000 1.0
C      1  0.4800490000000  0.5472200000000  0.5972610000000 1.0
C      1  0.4049820000000  0.4942930000000  0.5318290000000 1.0
C      1  0.5371550000000  0.4489320000000  0.4406860000000 1.0
C      1  0.5662490000000  0.5173320000000  0.4052350000000 1.0
C      1  0.4625390000000  0.5323770000000  0.4347950000000 1.0
C      1  0.5605560000000  0.5393020000000  0.5314180000000 1.0
C      1  0.5144240000000  0.5106090000000  0.4198760000000 1.0
C      1  0.4648400000000  0.6070970000000  0.5174070000000 1.0
C      1  0.4576320000000  0.5425080000000  0.5646090000000 1.0
C      1  0.6087240000000  0.4773920000000  0.4526100000000 1.0
C      1  0.5774050000000  0.5406120000000  0.5609280000000 1.0
C      1  0.5340160000000  0.5298970000000  0.5996930000000 1.0
C      1  0.4480460000000  0.4475720000000  0.4592150000000 1.0
C      1  0.6046660000000  0.5117640000000  0.5568490000000 1.0
C      1  0.5443930000000  0.5768930000000  0.4464330000000 1.0
C      1  0.5137160000000  0.5999750000000  0.5290190000000 1.0
C      1  0.5108290000000  0.4137510000000  0.5268820000000 1.0
C      1  0.4454300000000  0.5555840000000  0.4771040000000 1.0
C      1  0.4437020000000  0.3893090000000  0.5012980000000 1.0
C      1  0.5257270000000  0.5826300000000  0.5707650000000 1.0
C      1  0.4516240000000  0.5366080000000  0.5928030000000 1.0
C      1  0.4785260000000  0.4662040000000  0.5631200000000 1.0
C      1  0.3892890000000  0.4885000000000  0.5844540000000 1.0
C      1  0.4987880000000  0.5221120000000  0.3919460000000 1.0
C      1  0.5623960000000  0.4013670000000  0.5330080000000 1.0
C      1  0.5767340000000  0.5397340000000  0.4228990000000 1.0
C      1  0.3869720000000  0.4954840000000  0.4821170000000 1.0
C      1  0.5720820000000  0.4875790000000  0.4797340000000 1.0
C      1  0.5148580000000  0.3925610000000  0.4627740000000 1.0
C      1  0.5759310000000  0.4404830000000  0.4281730000000 1.0
C      1  0.4473730000000  0.4907390000000  0.4137120000000 1.0
C      1  0.5421830000000  0.5017250000000  0.4374230000000 1.0
C      1  0.4450180000000  0.5683320000000  0.5508890000000 1.0
C      1  0.4268700000000  0.5174510000000  0.5445240000000 1.0
C      1  0.5524730000000  0.4115540000000  0.4844580000000 1.0
C      1  0.5679320000000  0.4894090000000  0.4188580000000 1.0
C      1  0.5394710000000  0.4903200000000  0.5995420000000 1.0
C      1  0.4804120000000  0.4073410000000  0.5235300000000 1.0
C      1  0.5704790000000  0.4305690000000  0.4528850000000 1.0
C      1  0.4468310000000  0.5002360000000  0.4686790000000 1.0
C      1  0.4221130000000  0.4558090000000  0.4300580000000 1.0
C      1  0.4897490000000  0.4674500000000  0.4708150000000 1.0
C      1  0.4891810000000  0.4552180000000  0.5147600000000 1.0
C      1  0.3941790000000  0.5138390000000  0.4367970000000 1.0
C      1  0.5138680000000  0.4067070000000  0.4109840000000 1.0
C      1  0.4999110000000  0.5354490000000  0.4799410000000 1.0
C      1  0.5956640000000  0.5299880000000  0.5079890000000 1.0
C      1  0.4555040000000  0.4916230000000  0.5151560000000 1.0
C      1  0.4454480000000  0.5449820000000  0.3794730000000 1.0
C      1  0.4302030000000  0.4322300000000  0.5302550000000 1.0
C      1  0.6001830000000  0.5576070000000  0.4886510000000 1.0
C      1  0.5506600000000  0.4377380000000  0.5237070000000 1.0
C      1  0.4734880000000  0.5291280000000  0.3862110000000 1.0
C      1  0.4074210000000  0.5105600000000  0.5018510000000 1.0
C      1  0.4892880000000  0.4191070000000  0.4208530000000 1.0
C      1  0.4620950000000  0.4555780000000  0.5353090000000 1.0
C      1  0.5053470000000  0.5083630000000  0.5212540000000 1.0
C      1  0.5572650000000  0.4945010000000  0.5708690000000 1.0
C      1  0.5257630000000  0.6091450000000  0.5002310000000 1.0
C      1  0.4828680000000  0.6010450000000  0.5379050000000 1.0
C      1  0.4349220000000  0.4728590000000  0.4638600000000 1.0
C      1  0.5487740000000  0.5498110000000  0.4370800000000 1.0
C      1  0.4603600000000  0.4227560000000  0.5431500000000 1.0
C      1  0.5586430000000  0.4502800000000  0.4742390000000 1.0
C      1  0.5063480000000  0.4785520000000  0.4181230000000 1.0
C      1  0.5469960000000  0.5248740000000  0.4570780000000 1.0
C      1  0.4453820000000  0.4620020000000  0.5063950000000 1.0
C      1  0.4846850000000  0.5851190000000  0.4849770000000 1.0
C      1  0.4659710000000  0.4554040000000  0.4819390000000 1.0
C      1  0.5654020000000  0.5890360000000  0.4592510000000 1.0
C      1  0.5990850000000  0.5405000000000  0.4382150000000 1.0
C      1  0.4731640000000  0.5849320000000  0.5602890000000 1.0
C      1  0.4532550000000  0.5820080000000  0.4975760000000 1.0
C      1  0.5320650000000  0.6050130000000  0.5533810000000 1.0
C      1  0.5296960000000  0.4367690000000  0.4859490000000 1.0
C      1  0.4203170000000  0.5870540000000  0.5029700000000 1.0
C      1  0.4934100000000  0.5570510000000  0.4546240000000 1.0
C      1  0.4481960000000  0.5383860000000  0.5039680000000 1.0
C      1  0.5059430000000  0.4800650000000  0.5576350000000 1.0
C      1  0.4542040000000  0.5042150000000  0.5428200000000 1.0
C      1  0.4033940000000  0.4723050000000  0.4684760000000 1.0
C      1  0.5567220000000  0.5720320000000  0.5094090000000 1.0
C      1  0.5805370000000  0.5160300000000  0.5785960000000 1.0
C      1  0.4959960000000  0.4789320000000  0.6191770000000 1.0
C      1  0.4575860000000  0.4866570000000  0.5646340000000 1.0
C      1  0.4664230000000  0.5733730000000  0.4608380000000 1.0
C      1  0.3972490000000  0.5984040000000  0.4527900000000 1.0
C      1  0.5157400000000  0.4007600000000  0.4957680000000 1.0
C      1  0.4749770000000  0.4980150000000  0.4505140000000 1.0
C      1  0.5717400000000  0.5193810000000  0.4739990000000 1.0
C      1  0.4772740000000  0.5249590000000  0.5113260000000 1.0
C      1  0.4818290000000  0.5742880000000  0.5862490000000 1.0
C      1  0.4725090000000  0.4295910000000  0.4998350000000 1.0
C      1  0.4258240000000  0.5372440000000  0.4041020000000 1.0
C      1  0.4828130000000  0.4559600000000  0.6136810000000 1.0
C      1  0.5916040000000  0.5527640000000  0.5329120000000 1.0
C      1  0.4390680000000  0.5096230000000  0.4957370000000 1.0
C      1  0.5250770000000  0.4629710000000  0.4052590000000 1.0
C      1  0.5007270000000  0.5247320000000  0.5949770000000 1.0
C      1  0.5980160000000  0.5334410000000  0.4682410000000 1.0
C      1  0.5879510000000  0.4597550000000  0.5377590000000 1.0
C      1  0.4404940000000  0.4543990000000  0.5823480000000 1.0
C      1  0.5850950000000  0.4257700000000  0.5400180000000 1.0
C      1  0.5691110000000  0.5775320000000  0.5389830000000 1.0
C      1  0.4084040000000  0.4841030000000  0.4369340000000 1.0
C      1  0.4111740000000  0.5592260000000  0.5133020000000 1.0
C      1  0.4709160000000  0.4461900000000  0.5872580000000 1.0
C      1  0.6275950000000  0.5703650000000  0.4914690000000 1.0
C      1  0.5556300000000  0.4615750000000  0.4150910000000 1.0
C      1  0.5288300000000  0.5348500000000  0.5688320000000 1.0
C      1  0.5683360000000  0.4542800000000  0.5036170000000 1.0
C      1  0.5422050000000  0.5604860000000  0.5508990000000 1.0
C      1  0.4317870000000  0.5457580000000  0.5315950000000 1.0
C      1  0.4394050000000  0.4212920000000  0.5005340000000 1.0
C      1  0.5028910000000  0.5135530000000  0.5629050000000 1.0
C      1  0.4890380000000  0.5570920000000  0.5363890000000 1.0
C      1  0.5960620000000  0.4448140000000  0.4871340000000 1.0
C      1  0.4643820000000  0.5679100000000  0.5252810000000 1.0
C      1  0.4533780000000  0.5201170000000  0.4089190000000 1.0
C      1  0.5602800000000  0.4759060000000  0.5263530000000 1.0
C      1  0.3838640000000  0.5005240000000  0.5556440000000 1.0
C      1  0.5275400000000  0.5547530000000  0.4751220000000 1.0
C      1  0.5014290000000  0.3821730000000  0.5868910000000 1.0
C      1  0.5591540000000  0.6058500000000  0.5483730000000 1.0
C      1  0.4967230000000  0.4060030000000  0.5744910000000 1.0
C      1  0.4150670000000  0.6081340000000  0.5211100000000 1.0
C      1  0.5407090000000  0.5425200000000  0.5039890000000 1.0
C      1  0.5083710000000  0.6047400000000  0.4782840000000 1.0
C      1  0.5210930000000  0.4523190000000  0.5684750000000 1.0
C      1  0.5120350000000  0.4979130000000  0.6092240000000 1.0
C      1  0.3933250000000  0.4736800000000  0.5074210000000 1.0
C      1  0.5540990000000  0.4754830000000  0.4535330000000 1.0
C      1  0.4829520000000  0.4673210000000  0.4381560000000 1.0
C      1  0.4547420000000  0.5922890000000  0.4405260000000 1.0
C      1  0.5234160000000  0.4178220000000  0.4416660000000 1.0
C      1  0.3955950000000  0.5398230000000  0.5019710000000 1.0
C      1  0.4625910000000  0.4254040000000  0.4158170000000 1.0
C      1  0.5159960000000  0.5811010000000  0.4581480000000 1.0
C      1  0.4101110000000  0.5131230000000  0.5732110000000 1.0
C      1  0.5612110000000  0.5154650000000  0.6044030000000 1.0
C      1  0.4255550000000  0.5272360000000  0.5960910000000 1.0
C      1  0.5378680000000  0.4995250000000  0.5165380000000 1.0
C      1  0.5212850000000  0.5327840000000  0.5301440000000 1.0
C      1  0.5477890000000  0.4242080000000  0.5528780000000 1.0
C      1  0.4930980000000  0.5254570000000  0.4418390000000 1.0
C      1  0.4125420000000  0.4611550000000  0.5332890000000 1.0
C      1  0.5458000000000  0.3948410000000  0.5107360000000 1.0
C      1  0.4550500000000  0.4582640000000  0.4202740000000 1.0
C      1  0.4500380000000  0.4702770000000  0.3874480000000 1.0
C      1  0.5715540000000  0.4396900000000  0.5679270000000 1.0
C      1  0.5830440000000  0.4188150000000  0.4928400000000 1.0
C      1  0.4345250000000  0.4554390000000  0.5552210000000 1.0
C      1  0.4163780000000  0.4280820000000  0.4774280000000 1.0
C      1  0.4987160000000  0.4247510000000  0.4786730000000 1.0
C      1  0.5145920000000  0.4867660000000  0.4846620000000 1.0
C      1  0.4335910000000  0.5054140000000  0.4403020000000 1.0
C      1  0.4362420000000  0.5373360000000  0.4519590000000 1.0
C      1  0.4952960000000  0.4367070000000  0.4464730000000 1.0
C      1  0.6137210000000  0.5103800000000  0.4857410000000 1.0
C      1  0.5395460000000  0.5318370000000  0.4112460000000 1.0
C      1  0.5194400000000  0.4447650000000  0.5173720000000 1.0
C      1  0.6051770000000  0.4799370000000  0.5200920000000 1.0
C      1  0.4145170000000  0.4292050000000  0.4486730000000 1.0
C      1  0.4873420000000  0.4870080000000  0.5050300000000 1.0
C      1  0.4790830000000  0.5265370000000  0.5452560000000 1.0
C      1  0.4653450000000  0.3823470000000  0.5131580000000 1.0
C      1  0.5044270000000  0.5642030000000  0.4966800000000 1.0
C      1  0.5680830000000  0.5102790000000  0.5051950000000 1.0
C      1  0.5185310000000  0.5663680000000  0.5271730000000 1.0
C      1  0.4069240000000  0.5922070000000  0.4755820000000 1.0
C      1  0.5954980000000  0.4854570000000  0.4332280000000 1.0
C      1  0.5724740000000  0.4696460000000  0.5652410000000 1.0
C      1  0.5332380000000  0.5144330000000  0.4863200000000 1.0
C      1  0.5201420000000  0.4604670000000  0.4667370000000 1.0
C      1  0.3769040000000  0.5133600000000  0.4586490000000 1.0
C      1  0.4448370000000  0.6083960000000  0.4233980000000 1.0
C      1  0.5398250000000  0.5105890000000  0.5486390000000 1.0
END
