TITL C-2848509-3138-613 0.000100601086791795 125000 -602.788734191454 0 0 111 (C1) n - 1
REM
REM in /home/bkarasulu/work/CARBON/AIRSS/Generating-Clusters/AIREBO/with-SteepDescent/Only-C1/SD-CG-opt/Try1-1.4A-POS3A/HFTN-CG
REM
REM
REM
REM
REM
REM ./C.cell (11c1c37f851c82e70ff6c80c92926a4b)
REM
REM compiler GCC version 9.2.1 20190827 (Red Hat 9.2.1-1)
REM options -cpp -mtune=generic -march=x86-64 -g -O0 -fpre-include=/usr/include/finclude/math-vector-fortran.h
REM seed 1945337516 -1258056408 -1446967487 968392739 631470883 -387137643 -1153030246 -1102700633 189540124 1811596375 1287476848 524892367 -1068751753 1624603788 1878422976 -840913301 -41754861 -944436630 1710274217 -1855901832 995675094 -1688500704 1957050505 1834938893 651671677 -314168244 -1098960714 1258776350 -297366939 1864488388 -368252894 -1787670917 204620720
REM
CELL 1.54180   50.00000   50.00000   50.00000   90.00000   90.00000   90.00000
LATT -1
SFAC C  
C      1  0.4169360000000  0.4626520000000  0.4774040000000 1.0
C      1  0.6021910000000  0.4747820000000  0.4999620000000 1.0
C      1  0.5281390000000  0.4736110000000  0.4632280000000 1.0
C      1  0.4731930000000  0.5960210000000  0.5091290000000 1.0
C      1  0.4789790000000  0.4111370000000  0.5403780000000 1.0
C      1  0.4877160000000  0.4081760000000  0.4780210000000 1.0
C      1  0.4798060000000  0.5047000000000  0.5908120000000 1.0
C      1  0.5807860000000  0.4571290000000  0.4958000000000 1.0
C      1  0.5350300000000  0.5036670000000  0.4173500000000 1.0
C      1  0.4524120000000  0.4581140000000  0.5415750000000 1.0
C      1  0.4361320000000  0.4442390000000  0.4610660000000 1.0
C      1  0.4588980000000  0.5218030000000  0.4884790000000 1.0
C      1  0.5517990000000  0.4519240000000  0.4395590000000 1.0
C      1  0.4349820000000  0.4127110000000  0.5147880000000 1.0
C      1  0.5026240000000  0.5572500000000  0.4942070000000 1.0
C      1  0.4855990000000  0.4444110000000  0.4429070000000 1.0
C      1  0.5135280000000  0.4239720000000  0.5229600000000 1.0
C      1  0.4867370000000  0.4616880000000  0.4910490000000 1.0
C      1  0.4650450000000  0.4843520000000  0.5771780000000 1.0
C      1  0.5231890000000  0.5500710000000  0.5412800000000 1.0
C      1  0.4866490000000  0.4132320000000  0.5089930000000 1.0
C      1  0.4251360000000  0.5497050000000  0.4644600000000 1.0
C      1  0.5287200000000  0.5891230000000  0.4784620000000 1.0
C      1  0.4989730000000  0.5174960000000  0.4520790000000 1.0
C      1  0.5536060000000  0.4714680000000  0.5648030000000 1.0
C      1  0.5509680000000  0.5740030000000  0.5572590000000 1.0
C      1  0.5254700000000  0.5059500000000  0.4670690000000 1.0
C      1  0.5077070000000  0.5789750000000  0.5322000000000 1.0
C      1  0.4854830000000  0.5822210000000  0.5493390000000 1.0
C      1  0.5309730000000  0.4551820000000  0.5622010000000 1.0
C      1  0.4860200000000  0.5171970000000  0.5213410000000 1.0
C      1  0.4309030000000  0.5210560000000  0.5479310000000 1.0
C      1  0.4695520000000  0.5321630000000  0.4280470000000 1.0
C      1  0.4967220000000  0.5344140000000  0.5557930000000 1.0
C      1  0.4835370000000  0.5473520000000  0.5205510000000 1.0
C      1  0.5589910000000  0.4866150000000  0.4572860000000 1.0
C      1  0.5036680000000  0.5499940000000  0.4609920000000 1.0
C      1  0.5872890000000  0.5279850000000  0.5072910000000 1.0
C      1  0.5496350000000  0.5757870000000  0.4918670000000 1.0
C      1  0.4614760000000  0.5731560000000  0.5186880000000 1.0
C      1  0.4591490000000  0.4576660000000  0.5081960000000 1.0
C      1  0.5014920000000  0.5191570000000  0.5830470000000 1.0
C      1  0.5272150000000  0.4297210000000  0.5527780000000 1.0
C      1  0.5396520000000  0.5499410000000  0.4436510000000 1.0
C      1  0.5645110000000  0.5144020000000  0.4677360000000 1.0
C      1  0.5350100000000  0.4304160000000  0.4395930000000 1.0
C      1  0.4568230000000  0.4265640000000  0.5112990000000 1.0
C      1  0.4992880000000  0.5011830000000  0.4967110000000 1.0
C      1  0.5350920000000  0.4641970000000  0.5052590000000 1.0
C      1  0.4924400000000  0.4996810000000  0.4238530000000 1.0
C      1  0.5601260000000  0.5096810000000  0.4981370000000 1.0
C      1  0.5206630000000  0.5302820000000  0.4292000000000 1.0
C      1  0.4645190000000  0.4268000000000  0.4629490000000 1.0
C      1  0.5807530000000  0.5541810000000  0.5045780000000 1.0
C      1  0.4297630000000  0.4925070000000  0.4602840000000 1.0
C      1  0.5954910000000  0.4987370000000  0.5122370000000 1.0
C      1  0.3972760000000  0.4956300000000  0.5106280000000 1.0
C      1  0.4888100000000  0.5707740000000  0.4385310000000 1.0
C      1  0.5508300000000  0.4949280000000  0.5805650000000 1.0
C      1  0.4007560000000  0.4926420000000  0.4769370000000 1.0
C      1  0.4549440000000  0.5090350000000  0.5271050000000 1.0
C      1  0.4556640000000  0.4906760000000  0.4462640000000 1.0
C      1  0.4397840000000  0.4828930000000  0.5611400000000 1.0
C      1  0.5614420000000  0.5412090000000  0.4594520000000 1.0
C      1  0.4884690000000  0.3788030000000  0.4701940000000 1.0
C      1  0.5625250000000  0.4588310000000  0.5169630000000 1.0
C      1  0.5069480000000  0.4733370000000  0.5547230000000 1.0
C      1  0.4478660000000  0.5649320000000  0.4635250000000 1.0
C      1  0.4698980000000  0.4839430000000  0.5358070000000 1.0
C      1  0.4204590000000  0.5206890000000  0.4768830000000 1.0
C      1  0.5372400000000  0.5183960000000  0.5392680000000 1.0
C      1  0.5714400000000  0.5617440000000  0.4775920000000 1.0
C      1  0.5470630000000  0.4814710000000  0.4274390000000 1.0
C      1  0.4629430000000  0.5050930000000  0.4199310000000 1.0
C      1  0.5033240000000  0.4779520000000  0.4104430000000 1.0
C      1  0.4805340000000  0.4945180000000  0.4691410000000 1.0
C      1  0.5246400000000  0.5743090000000  0.4547420000000 1.0
C      1  0.5334250000000  0.4435770000000  0.4782660000000 1.0
C      1  0.4685690000000  0.5311750000000  0.4588160000000 1.0
C      1  0.5332290000000  0.5547790000000  0.5094330000000 1.0
C      1  0.5666760000000  0.4746300000000  0.5400820000000 1.0
C      1  0.4975860000000  0.4670670000000  0.4633840000000 1.0
C      1  0.4966710000000  0.4515860000000  0.4143180000000 1.0
C      1  0.4732150000000  0.4065130000000  0.5711790000000 1.0
C      1  0.4820080000000  0.4638830000000  0.5681420000000 1.0
C      1  0.4715620000000  0.5535640000000  0.5518190000000 1.0
C      1  0.4935030000000  0.5461660000000  0.4217540000000 1.0
C      1  0.5327750000000  0.5234430000000  0.5870030000000 1.0
C      1  0.5583610000000  0.5225960000000  0.5646240000000 1.0
C      1  0.5096520000000  0.4271480000000  0.4602710000000 1.0
C      1  0.4552950000000  0.4599290000000  0.4431930000000 1.0
C      1  0.4024810000000  0.5244760000000  0.5198390000000 1.0
C      1  0.5659150000000  0.4556710000000  0.4695710000000 1.0
C      1  0.5073010000000  0.5041620000000  0.5444320000000 1.0
C      1  0.4706530000000  0.5532350000000  0.4833190000000 1.0
C      1  0.4320020000000  0.5258400000000  0.5084560000000 1.0
C      1  0.4269680000000  0.4804360000000  0.5040310000000 1.0
C      1  0.5040360000000  0.5906590000000  0.5003830000000 1.0
C      1  0.4921450000000  0.4778380000000  0.5180930000000 1.0
C      1  0.5318250000000  0.4938420000000  0.4975170000000 1.0
C      1  0.5140020000000  0.4563770000000  0.5260860000000 1.0
C      1  0.4690120000000  0.4375410000000  0.5577740000000 1.0
C      1  0.5666950000000  0.5036680000000  0.5306960000000 1.0
C      1  0.4572030000000  0.4881490000000  0.4930670000000 1.0
C      1  0.5764320000000  0.5440320000000  0.5515980000000 1.0
C      1  0.4624950000000  0.5797460000000  0.4440260000000 1.0
C      1  0.5354990000000  0.5541730000000  0.5727070000000 1.0
C      1  0.5363080000000  0.4203960000000  0.5002750000000 1.0
C      1  0.4451970000000  0.5473860000000  0.5318420000000 1.0
C      1  0.4203560000000  0.4911590000000  0.5356120000000 1.0
C      1  0.5609090000000  0.5627500000000  0.5278240000000 1.0
END
