TITL C-2847948-6138-473 0.000479105084109549 125000 -1041.65477052675 0 0 196 (C1) n - 1
REM
REM in /home/bkarasulu/work/CARBON/AIRSS/Generating-Clusters/AIREBO/with-SteepDescent/Only-C1/SD-CG-opt/Try1-1.4A-POS3A/HFTN-CG
REM
REM
REM
REM
REM
REM ./C.cell (11c1c37f851c82e70ff6c80c92926a4b)
REM
REM compiler GCC version 9.2.1 20190827 (Red Hat 9.2.1-1)
REM options -cpp -mtune=generic -march=x86-64 -g -O0 -fpre-include=/usr/include/finclude/math-vector-fortran.h
REM seed 1849802217 -533390373 456632441 298296355 -1939568475 -1637547859 1860226848 1957595304 1932826965 -1760975292 2137162783 952614155 -515553569 -2012257578 1068054462 650811076 1641013052 -1591293434 1392060889 -2087223231 1986157744 -650671461 -553957515 -826962850 -590354018 -2020188045 -1364316982 -499743467 1557185054 1916726263 -1304519496 1122661238 -900063730
REM
CELL 1.54180   50.00000   50.00000   50.00000   90.00000   90.00000   90.00000
LATT -1
SFAC C  
C      1  0.5032040000000  0.4659170000000  0.4934690000000 1.0
C      1  0.3785430000000  0.5073790000000  0.5098140000000 1.0
C      1  0.5574920000000  0.5055360000000  0.4027010000000 1.0
C      1  0.4222910000000  0.4365760000000  0.5264590000000 1.0
C      1  0.4037820000000  0.5746220000000  0.4819920000000 1.0
C      1  0.5338730000000  0.5131330000000  0.5838940000000 1.0
C      1  0.5041530000000  0.4871360000000  0.6159550000000 1.0
C      1  0.5861530000000  0.3987610000000  0.5168210000000 1.0
C      1  0.3941120000000  0.4454400000000  0.4646470000000 1.0
C      1  0.4134800000000  0.5724790000000  0.4139640000000 1.0
C      1  0.4044450000000  0.4355100000000  0.4434670000000 1.0
C      1  0.5017610000000  0.5456570000000  0.4793810000000 1.0
C      1  0.4486870000000  0.5128570000000  0.5098810000000 1.0
C      1  0.4677110000000  0.5544690000000  0.4059370000000 1.0
C      1  0.4900170000000  0.5169350000000  0.4823020000000 1.0
C      1  0.6276220000000  0.5092680000000  0.4776800000000 1.0
C      1  0.5069690000000  0.5191280000000  0.6047440000000 1.0
C      1  0.5523090000000  0.5981350000000  0.5373200000000 1.0
C      1  0.4904320000000  0.4639620000000  0.6025370000000 1.0
C      1  0.5972010000000  0.5494390000000  0.5979830000000 1.0
C      1  0.5074660000000  0.4823280000000  0.5370410000000 1.0
C      1  0.5166790000000  0.5548350000000  0.4038100000000 1.0
C      1  0.4157160000000  0.5282420000000  0.4734100000000 1.0
C      1  0.4064530000000  0.5040040000000  0.4280540000000 1.0
C      1  0.5291470000000  0.5290240000000  0.5092690000000 1.0
C      1  0.5915870000000  0.5332720000000  0.4377500000000 1.0
C      1  0.4828490000000  0.5855870000000  0.5820980000000 1.0
C      1  0.4975160000000  0.4518480000000  0.5257040000000 1.0
C      1  0.6111220000000  0.5466180000000  0.5188100000000 1.0
C      1  0.5421150000000  0.4689370000000  0.5026540000000 1.0
C      1  0.4263570000000  0.5342820000000  0.5050670000000 1.0
C      1  0.5327890000000  0.4097140000000  0.5172100000000 1.0
C      1  0.4948260000000  0.5984120000000  0.4833070000000 1.0
C      1  0.5791390000000  0.4912320000000  0.5531310000000 1.0
C      1  0.6069050000000  0.4784520000000  0.4455790000000 1.0
C      1  0.5263470000000  0.5136660000000  0.4354470000000 1.0
C      1  0.4242840000000  0.5612050000000  0.4341550000000 1.0
C      1  0.4652040000000  0.5093710000000  0.4216570000000 1.0
C      1  0.4764870000000  0.5899040000000  0.5176650000000 1.0
C      1  0.5128990000000  0.3829720000000  0.5164980000000 1.0
C      1  0.4295430000000  0.5836010000000  0.4874700000000 1.0
C      1  0.5241190000000  0.5931830000000  0.5528450000000 1.0
C      1  0.5244630000000  0.5603390000000  0.5227230000000 1.0
C      1  0.5301410000000  0.4434270000000  0.5210340000000 1.0
C      1  0.4239510000000  0.4912400000000  0.5186480000000 1.0
C      1  0.5917750000000  0.5032660000000  0.4939610000000 1.0
C      1  0.4698520000000  0.3838240000000  0.4740740000000 1.0
C      1  0.5129070000000  0.4874440000000  0.3862910000000 1.0
C      1  0.4449230000000  0.4430130000000  0.5055530000000 1.0
C      1  0.4318660000000  0.5063760000000  0.4156520000000 1.0
C      1  0.5973700000000  0.4952930000000  0.5705960000000 1.0
C      1  0.4929770000000  0.4935700000000  0.5641870000000 1.0
C      1  0.5179340000000  0.5562150000000  0.5862070000000 1.0
C      1  0.4398810000000  0.5933320000000  0.5493190000000 1.0
C      1  0.4622510000000  0.5281810000000  0.4493930000000 1.0
C      1  0.3942580000000  0.5477310000000  0.4856100000000 1.0
C      1  0.4538490000000  0.4490260000000  0.4065570000000 1.0
C      1  0.4776480000000  0.4737650000000  0.4390490000000 1.0
C      1  0.5159460000000  0.4675470000000  0.4119920000000 1.0
C      1  0.5278350000000  0.4352720000000  0.5868320000000 1.0
C      1  0.4656650000000  0.3791990000000  0.5012260000000 1.0
C      1  0.5292870000000  0.5245650000000  0.5416870000000 1.0
C      1  0.6120050000000  0.4790710000000  0.4771610000000 1.0
C      1  0.5313880000000  0.5434480000000  0.4714360000000 1.0
C      1  0.4984230000000  0.5225760000000  0.5499300000000 1.0
C      1  0.4064930000000  0.4718750000000  0.4794100000000 1.0
C      1  0.5605850000000  0.4568950000000  0.4308710000000 1.0
C      1  0.6101060000000  0.4520470000000  0.4897930000000 1.0
C      1  0.5494020000000  0.5590050000000  0.4024890000000 1.0
C      1  0.5065720000000  0.4000700000000  0.5453800000000 1.0
C      1  0.5167920000000  0.4518270000000  0.4418340000000 1.0
C      1  0.4098530000000  0.5053690000000  0.5679020000000 1.0
C      1  0.5578040000000  0.5414430000000  0.5340340000000 1.0
C      1  0.4672210000000  0.5489510000000  0.5003920000000 1.0
C      1  0.5343500000000  0.4916350000000  0.6102370000000 1.0
C      1  0.5413470000000  0.4845570000000  0.4262340000000 1.0
C      1  0.6041200000000  0.5101850000000  0.4541300000000 1.0
C      1  0.5585900000000  0.3933120000000  0.5033980000000 1.0
C      1  0.4469010000000  0.5664490000000  0.5646860000000 1.0
C      1  0.4931490000000  0.4996030000000  0.4533090000000 1.0
C      1  0.5538550000000  0.4317990000000  0.5424790000000 1.0
C      1  0.4729320000000  0.5957350000000  0.5569570000000 1.0
C      1  0.5075790000000  0.4334240000000  0.5524580000000 1.0
C      1  0.4601000000000  0.4793090000000  0.5465480000000 1.0
C      1  0.5533080000000  0.5271490000000  0.4511830000000 1.0
C      1  0.4638780000000  0.5649850000000  0.5291810000000 1.0
C      1  0.4815790000000  0.4230820000000  0.4124290000000 1.0
C      1  0.5125410000000  0.3977650000000  0.4443810000000 1.0
C      1  0.4641020000000  0.4318170000000  0.5770240000000 1.0
C      1  0.4488540000000  0.4815570000000  0.4324080000000 1.0
C      1  0.4061420000000  0.5010690000000  0.4619270000000 1.0
C      1  0.4282920000000  0.5397010000000  0.5590680000000 1.0
C      1  0.6182660000000  0.5224010000000  0.5033690000000 1.0
C      1  0.5008820000000  0.4954390000000  0.5065710000000 1.0
C      1  0.4384170000000  0.4753500000000  0.5846740000000 1.0
C      1  0.4973040000000  0.3813420000000  0.4645030000000 1.0
C      1  0.5730120000000  0.5469250000000  0.5902470000000 1.0
C      1  0.4346250000000  0.5893090000000  0.5174410000000 1.0
C      1  0.4100600000000  0.4708390000000  0.5663790000000 1.0
C      1  0.5503850000000  0.4853250000000  0.4650780000000 1.0
C      1  0.4750310000000  0.5275120000000  0.5256300000000 1.0
C      1  0.5319090000000  0.5008580000000  0.4968560000000 1.0
C      1  0.5704360000000  0.4289030000000  0.5160540000000 1.0
C      1  0.5852830000000  0.5588150000000  0.5296380000000 1.0
C      1  0.5030230000000  0.5911750000000  0.4450130000000 1.0
C      1  0.5513600000000  0.5499980000000  0.4956000000000 1.0
C      1  0.4066430000000  0.4750880000000  0.4396410000000 1.0
C      1  0.4804670000000  0.4353930000000  0.4597750000000 1.0
C      1  0.3844120000000  0.5345990000000  0.5093130000000 1.0
C      1  0.4819710000000  0.4170670000000  0.5944390000000 1.0
C      1  0.4357190000000  0.4546860000000  0.4761420000000 1.0
C      1  0.5357920000000  0.4665230000000  0.5751290000000 1.0
C      1  0.4827250000000  0.3831310000000  0.5302010000000 1.0
C      1  0.4552560000000  0.6095320000000  0.5030950000000 1.0
C      1  0.4754390000000  0.5115010000000  0.6009970000000 1.0
C      1  0.5380880000000  0.4128120000000  0.4387350000000 1.0
C      1  0.4496690000000  0.3991500000000  0.4613090000000 1.0
C      1  0.4365980000000  0.5451050000000  0.4571420000000 1.0
C      1  0.4619620000000  0.5035220000000  0.5661720000000 1.0
C      1  0.5716570000000  0.4557260000000  0.5014880000000 1.0
C      1  0.4984420000000  0.5021990000000  0.4205350000000 1.0
C      1  0.5509050000000  0.4383300000000  0.4572310000000 1.0
C      1  0.5030790000000  0.4337350000000  0.6028910000000 1.0
C      1  0.6080220000000  0.4578560000000  0.5174980000000 1.0
C      1  0.4463490000000  0.4729940000000  0.5097570000000 1.0
C      1  0.5089240000000  0.5533190000000  0.4353450000000 1.0
C      1  0.5909450000000  0.4625240000000  0.4314610000000 1.0
C      1  0.5847020000000  0.5562060000000  0.4598940000000 1.0
C      1  0.5174560000000  0.3849250000000  0.4854580000000 1.0
C      1  0.4580030000000  0.4035260000000  0.5225160000000 1.0
C      1  0.4311310000000  0.4529110000000  0.4315640000000 1.0
C      1  0.5727170000000  0.5841330000000  0.5155920000000 1.0
C      1  0.4717880000000  0.4887770000000  0.5165580000000 1.0
C      1  0.4306410000000  0.4112960000000  0.5344510000000 1.0
C      1  0.4300070000000  0.4885440000000  0.5477690000000 1.0
C      1  0.4078750000000  0.5436990000000  0.5321760000000 1.0
C      1  0.4782940000000  0.5550700000000  0.4362610000000 1.0
C      1  0.5414210000000  0.5817790000000  0.5024870000000 1.0
C      1  0.4450280000000  0.5037650000000  0.5956640000000 1.0
C      1  0.3914320000000  0.5217330000000  0.5522640000000 1.0
C      1  0.4843780000000  0.5714030000000  0.4654630000000 1.0
C      1  0.5333300000000  0.4939100000000  0.5558310000000 1.0
C      1  0.4590700000000  0.4582460000000  0.5906940000000 1.0
C      1  0.4749380000000  0.4297010000000  0.5131770000000 1.0
C      1  0.4718930000000  0.5601970000000  0.5950940000000 1.0
C      1  0.5115610000000  0.5828760000000  0.5803650000000 1.0
C      1  0.5849980000000  0.4815230000000  0.5166530000000 1.0
C      1  0.4119590000000  0.5767380000000  0.5369260000000 1.0
C      1  0.4988910000000  0.6036590000000  0.5364100000000 1.0
C      1  0.5520670000000  0.4580100000000  0.3979590000000 1.0
C      1  0.5630740000000  0.4209420000000  0.4838110000000 1.0
C      1  0.5220110000000  0.4996550000000  0.4661620000000 1.0
C      1  0.3968490000000  0.4803960000000  0.5094260000000 1.0
C      1  0.5549690000000  0.5661430000000  0.4595080000000 1.0
C      1  0.4516170000000  0.4199330000000  0.4220170000000 1.0
C      1  0.5578800000000  0.4418670000000  0.5723790000000 1.0
C      1  0.5730530000000  0.5060850000000  0.4657070000000 1.0
C      1  0.4561220000000  0.4794270000000  0.4719670000000 1.0
C      1  0.4773500000000  0.5559360000000  0.5559020000000 1.0
C      1  0.4571910000000  0.5296310000000  0.5528780000000 1.0
C      1  0.5771300000000  0.6094280000000  0.4711410000000 1.0
C      1  0.4063000000000  0.4592230000000  0.5346140000000 1.0
C      1  0.4910090000000  0.5363620000000  0.5801330000000 1.0
C      1  0.5327650000000  0.4130370000000  0.5615850000000 1.0
C      1  0.5930370000000  0.5508570000000  0.4912590000000 1.0
C      1  0.5130980000000  0.6003230000000  0.5056610000000 1.0
C      1  0.5842450000000  0.5233570000000  0.4117410000000 1.0
C      1  0.4588430000000  0.5094190000000  0.4776000000000 1.0
C      1  0.4740050000000  0.4543300000000  0.5538100000000 1.0
C      1  0.4689810000000  0.5289490000000  0.3943510000000 1.0
C      1  0.5321250000000  0.4082930000000  0.4775800000000 1.0
C      1  0.5037940000000  0.4195740000000  0.5032210000000 1.0
C      1  0.5544780000000  0.4829310000000  0.5315710000000 1.0
C      1  0.5361980000000  0.5276760000000  0.4060660000000 1.0
C      1  0.5376840000000  0.5620110000000  0.5521510000000 1.0
C      1  0.4526490000000  0.5649530000000  0.4767880000000 1.0
C      1  0.5231580000000  0.6035070000000  0.4542640000000 1.0
C      1  0.4866680000000  0.4560330000000  0.4158860000000 1.0
C      1  0.5454900000000  0.5423870000000  0.5788060000000 1.0
C      1  0.4967970000000  0.5640030000000  0.5071460000000 1.0
C      1  0.5831730000000  0.5815670000000  0.4832920000000 1.0
C      1  0.5105430000000  0.4314260000000  0.4751330000000 1.0
C      1  0.5953060000000  0.4311110000000  0.4800410000000 1.0
C      1  0.5000050000000  0.4247550000000  0.4372190000000 1.0
C      1  0.5415410000000  0.5544440000000  0.4346520000000 1.0
C      1  0.5432180000000  0.4820200000000  0.3866190000000 1.0
C      1  0.4414880000000  0.5533950000000  0.5941630000000 1.0
C      1  0.4841820000000  0.4645730000000  0.4702120000000 1.0
C      1  0.4241670000000  0.5261090000000  0.5900530000000 1.0
C      1  0.5292790000000  0.4597020000000  0.4725010000000 1.0
C      1  0.4475500000000  0.4321720000000  0.4534840000000 1.0
C      1  0.4735760000000  0.6173490000000  0.4837780000000 1.0
C      1  0.4910810000000  0.5077450000000  0.3898750000000 1.0
C      1  0.5731860000000  0.5287540000000  0.5064760000000 1.0
C      1  0.5472310000000  0.5936510000000  0.4711450000000 1.0
C      1  0.5024400000000  0.4615890000000  0.5708150000000 1.0
END
