TITL C-2847946-5639-122 0.000769189712904799 125000 -927.790180831796 0 0 174 (C1) n - 1
REM
REM in /home/bkarasulu/work/CARBON/AIRSS/Generating-Clusters/AIREBO/with-SteepDescent/Only-C1/SD-CG-opt/Try1-1.4A-POS3A/HFTN-CG
REM
REM
REM
REM
REM
REM ./C.cell (11c1c37f851c82e70ff6c80c92926a4b)
REM
REM compiler GCC version 9.2.1 20190827 (Red Hat 9.2.1-1)
REM options -cpp -mtune=generic -march=x86-64 -g -O0 -fpre-include=/usr/include/finclude/math-vector-fortran.h
REM seed 1726368127 391379535 -1947158430 1904395580 997983496 1130931711 -1601770460 1876761814 -1950306973 -827717850 954025864 428427587 -1392522143 752713404 510664755 -711750172 -1990054522 -1789959251 754570716 -1215421782 -1294714906 -2102166486 85741743 205466714 -509624519 -1171290622 1404173246 118232512 -1673389199 -1057572241 -1538572003 -134072763 1842764756
REM
CELL 1.54180   50.00000   50.00000   50.00000   90.00000   90.00000   90.00000
LATT -1
SFAC C  
C      1  0.4793490000000  0.5564770000000  0.5804340000000 1.0
C      1  0.4134210000000  0.5600920000000  0.5184640000000 1.0
C      1  0.4367890000000  0.5641500000000  0.4689650000000 1.0
C      1  0.5551910000000  0.5830260000000  0.4634720000000 1.0
C      1  0.5065840000000  0.5965750000000  0.4826740000000 1.0
C      1  0.4997520000000  0.4641300000000  0.5811250000000 1.0
C      1  0.4025280000000  0.4487000000000  0.5341210000000 1.0
C      1  0.5325290000000  0.5399270000000  0.3981450000000 1.0
C      1  0.4287310000000  0.5312910000000  0.4723740000000 1.0
C      1  0.6084110000000  0.4673990000000  0.4589280000000 1.0
C      1  0.4798540000000  0.4536410000000  0.4025000000000 1.0
C      1  0.6100920000000  0.4911860000000  0.4714380000000 1.0
C      1  0.5504740000000  0.5331390000000  0.4440120000000 1.0
C      1  0.5269180000000  0.5562210000000  0.4522960000000 1.0
C      1  0.4674550000000  0.4572300000000  0.5892580000000 1.0
C      1  0.5400860000000  0.4332910000000  0.4807950000000 1.0
C      1  0.4882730000000  0.4088780000000  0.5383750000000 1.0
C      1  0.5376840000000  0.5118910000000  0.3937180000000 1.0
C      1  0.3962570000000  0.5268630000000  0.5525670000000 1.0
C      1  0.4333330000000  0.5137290000000  0.5191940000000 1.0
C      1  0.4244190000000  0.4352100000000  0.4893770000000 1.0
C      1  0.4069530000000  0.5673030000000  0.4531620000000 1.0
C      1  0.5281390000000  0.4579660000000  0.4493820000000 1.0
C      1  0.4656340000000  0.4622230000000  0.5561710000000 1.0
C      1  0.6034370000000  0.5401330000000  0.4834310000000 1.0
C      1  0.4350670000000  0.4574360000000  0.5291940000000 1.0
C      1  0.4519790000000  0.5140870000000  0.5714150000000 1.0
C      1  0.4628030000000  0.5373950000000  0.5933840000000 1.0
C      1  0.4328100000000  0.4288970000000  0.4143600000000 1.0
C      1  0.4954310000000  0.5990400000000  0.5115870000000 1.0
C      1  0.4547200000000  0.4350620000000  0.4877330000000 1.0
C      1  0.5843580000000  0.4561480000000  0.4887390000000 1.0
C      1  0.5359830000000  0.5236840000000  0.5216800000000 1.0
C      1  0.4820370000000  0.6009850000000  0.5427780000000 1.0
C      1  0.4030580000000  0.4862770000000  0.4533230000000 1.0
C      1  0.5545730000000  0.4181900000000  0.5076060000000 1.0
C      1  0.5820680000000  0.5096270000000  0.4499010000000 1.0
C      1  0.5570350000000  0.5484560000000  0.5613600000000 1.0
C      1  0.4008020000000  0.5132360000000  0.4960430000000 1.0
C      1  0.4559290000000  0.5346970000000  0.4880590000000 1.0
C      1  0.4869050000000  0.5025570000000  0.5404010000000 1.0
C      1  0.5646870000000  0.4781020000000  0.4118540000000 1.0
C      1  0.5827320000000  0.5314140000000  0.5722820000000 1.0
C      1  0.5122600000000  0.3897700000000  0.4724310000000 1.0
C      1  0.5017840000000  0.5518080000000  0.4960680000000 1.0
C      1  0.4702380000000  0.5416730000000  0.4115660000000 1.0
C      1  0.4958020000000  0.5020160000000  0.4028780000000 1.0
C      1  0.3948790000000  0.5025720000000  0.5399310000000 1.0
C      1  0.5346040000000  0.5594010000000  0.4191050000000 1.0
C      1  0.5278170000000  0.4810850000000  0.5331420000000 1.0
C      1  0.4494490000000  0.4400550000000  0.4341480000000 1.0
C      1  0.4288680000000  0.5178990000000  0.4411220000000 1.0
C      1  0.5231490000000  0.4824650000000  0.4029070000000 1.0
C      1  0.4889040000000  0.5202770000000  0.4216140000000 1.0
C      1  0.3919700000000  0.5445810000000  0.4643560000000 1.0
C      1  0.6067220000000  0.5457620000000  0.5579780000000 1.0
C      1  0.4521960000000  0.5130220000000  0.4083500000000 1.0
C      1  0.5028190000000  0.4835590000000  0.4665580000000 1.0
C      1  0.5290830000000  0.5660110000000  0.5528260000000 1.0
C      1  0.4166470000000  0.4251680000000  0.5150550000000 1.0
C      1  0.4583920000000  0.4908410000000  0.5483000000000 1.0
C      1  0.5443040000000  0.4558360000000  0.4028850000000 1.0
C      1  0.4366860000000  0.5621310000000  0.5444330000000 1.0
C      1  0.4416770000000  0.4251340000000  0.5363240000000 1.0
C      1  0.4810550000000  0.3929610000000  0.5091530000000 1.0
C      1  0.4635440000000  0.4036730000000  0.4836920000000 1.0
C      1  0.5478730000000  0.5017320000000  0.5403230000000 1.0
C      1  0.5095990000000  0.4518180000000  0.4087660000000 1.0
C      1  0.5176170000000  0.4256460000000  0.5422760000000 1.0
C      1  0.5914470000000  0.4948630000000  0.4957000000000 1.0
C      1  0.5187970000000  0.4598040000000  0.4812280000000 1.0
C      1  0.6096390000000  0.4881720000000  0.5234500000000 1.0
C      1  0.5561260000000  0.4177320000000  0.5350820000000 1.0
C      1  0.4574400000000  0.5380480000000  0.5200490000000 1.0
C      1  0.5499400000000  0.6000230000000  0.4906590000000 1.0
C      1  0.4895810000000  0.4955130000000  0.5728840000000 1.0
C      1  0.4369590000000  0.5095530000000  0.3856830000000 1.0
C      1  0.4835400000000  0.4481430000000  0.5345050000000 1.0
C      1  0.5157860000000  0.5122040000000  0.4687500000000 1.0
C      1  0.4159990000000  0.4566140000000  0.5641880000000 1.0
C      1  0.4800730000000  0.4695860000000  0.4289990000000 1.0
C      1  0.4269180000000  0.5359860000000  0.5642020000000 1.0
C      1  0.4746540000000  0.5112890000000  0.4965660000000 1.0
C      1  0.4719170000000  0.4524700000000  0.4561540000000 1.0
C      1  0.5659470000000  0.5284250000000  0.4731980000000 1.0
C      1  0.5535060000000  0.4575240000000  0.5005360000000 1.0
C      1  0.6059750000000  0.5201910000000  0.5111690000000 1.0
C      1  0.4716380000000  0.5057050000000  0.5982350000000 1.0
C      1  0.4701120000000  0.5596280000000  0.5504870000000 1.0
C      1  0.5589910000000  0.4338670000000  0.4543510000000 1.0
C      1  0.5352770000000  0.4506920000000  0.5274450000000 1.0
C      1  0.5026460000000  0.5208830000000  0.4969220000000 1.0
C      1  0.4739760000000  0.4757040000000  0.4756250000000 1.0
C      1  0.4412370000000  0.5973520000000  0.5109820000000 1.0
C      1  0.5834720000000  0.4645220000000  0.5472610000000 1.0
C      1  0.4593910000000  0.5691970000000  0.5078800000000 1.0
C      1  0.5762470000000  0.5599900000000  0.4749090000000 1.0
C      1  0.4425240000000  0.4437560000000  0.5713250000000 1.0
C      1  0.5779470000000  0.4572280000000  0.4565860000000 1.0
C      1  0.3996520000000  0.4670230000000  0.5059250000000 1.0
C      1  0.4464910000000  0.4871750000000  0.4820600000000 1.0
C      1  0.3973170000000  0.5418220000000  0.4946780000000 1.0
C      1  0.4145520000000  0.5113680000000  0.5841900000000 1.0
C      1  0.5121690000000  0.4205140000000  0.4661720000000 1.0
C      1  0.4877780000000  0.5676670000000  0.5222260000000 1.0
C      1  0.4205600000000  0.5012180000000  0.4763460000000 1.0
C      1  0.5653750000000  0.4822000000000  0.4424230000000 1.0
C      1  0.5172370000000  0.5383030000000  0.5435340000000 1.0
C      1  0.5641240000000  0.5655810000000  0.5335870000000 1.0
C      1  0.5235530000000  0.5949950000000  0.4598640000000 1.0
C      1  0.4566250000000  0.5066080000000  0.4572160000000 1.0
C      1  0.4869360000000  0.5214460000000  0.4528600000000 1.0
C      1  0.4565670000000  0.4910820000000  0.5140030000000 1.0
C      1  0.4662770000000  0.4223910000000  0.5596340000000 1.0
C      1  0.5392390000000  0.5110750000000  0.5909780000000 1.0
C      1  0.6067960000000  0.4593940000000  0.5054970000000 1.0
C      1  0.4696640000000  0.3991530000000  0.4571720000000 1.0
C      1  0.5330160000000  0.5855990000000  0.5101590000000 1.0
C      1  0.5067690000000  0.5488240000000  0.5830910000000 1.0
C      1  0.5362870000000  0.5407370000000  0.5863520000000 1.0
C      1  0.5827150000000  0.5524320000000  0.5074320000000 1.0
C      1  0.5542520000000  0.5875730000000  0.5541150000000 1.0
C      1  0.4514910000000  0.5924090000000  0.5394330000000 1.0
C      1  0.5573310000000  0.4473430000000  0.5518540000000 1.0
C      1  0.5381230000000  0.3995310000000  0.5489790000000 1.0
C      1  0.6103410000000  0.5196740000000  0.4615790000000 1.0
C      1  0.4254810000000  0.4881490000000  0.5401930000000 1.0
C      1  0.3981820000000  0.5199110000000  0.4492690000000 1.0
C      1  0.4132500000000  0.4620470000000  0.4749000000000 1.0
C      1  0.5037600000000  0.3784570000000  0.4934000000000 1.0
C      1  0.3914770000000  0.4937510000000  0.5127340000000 1.0
C      1  0.4739450000000  0.5867770000000  0.4360810000000 1.0
C      1  0.4842500000000  0.5662370000000  0.4142330000000 1.0
C      1  0.4868860000000  0.4260930000000  0.5094600000000 1.0
C      1  0.5376750000000  0.5018840000000  0.4448560000000 1.0
C      1  0.5149830000000  0.5915620000000  0.5383810000000 1.0
C      1  0.4152340000000  0.4862770000000  0.5725640000000 1.0
C      1  0.4627750000000  0.4579420000000  0.5095990000000 1.0
C      1  0.4876570000000  0.4348950000000  0.4792380000000 1.0
C      1  0.5425340000000  0.5141730000000  0.4896790000000 1.0
C      1  0.5738440000000  0.5227820000000  0.4212150000000 1.0
C      1  0.5422360000000  0.4583450000000  0.5803380000000 1.0
C      1  0.5037800000000  0.4937950000000  0.5174860000000 1.0
C      1  0.4750760000000  0.4178720000000  0.4373770000000 1.0
C      1  0.4535840000000  0.4885290000000  0.4307430000000 1.0
C      1  0.4615000000000  0.5850180000000  0.4605460000000 1.0
C      1  0.5055440000000  0.5785260000000  0.4380770000000 1.0
C      1  0.4841180000000  0.5320490000000  0.5387590000000 1.0
C      1  0.5717850000000  0.4748520000000  0.5768290000000 1.0
C      1  0.5045740000000  0.4657460000000  0.5479910000000 1.0
C      1  0.5642570000000  0.5046250000000  0.4017790000000 1.0
C      1  0.5488810000000  0.5490640000000  0.5080630000000 1.0
C      1  0.4958390000000  0.4893510000000  0.6117310000000 1.0
C      1  0.5241890000000  0.4841930000000  0.5936730000000 1.0
C      1  0.4632820000000  0.5451970000000  0.4586740000000 1.0
C      1  0.5074220000000  0.5204980000000  0.5690100000000 1.0
C      1  0.5294930000000  0.5620970000000  0.4857770000000 1.0
C      1  0.4339750000000  0.4669950000000  0.4483550000000 1.0
C      1  0.5602690000000  0.5060170000000  0.5695870000000 1.0
C      1  0.5254960000000  0.4339670000000  0.5848370000000 1.0
C      1  0.5930880000000  0.4994990000000  0.5635440000000 1.0
C      1  0.5400410000000  0.4355070000000  0.4283160000000 1.0
C      1  0.5620100000000  0.4886100000000  0.4954040000000 1.0
C      1  0.5072210000000  0.4282260000000  0.4334270000000 1.0
C      1  0.4802310000000  0.5750880000000  0.4836680000000 1.0
C      1  0.5005470000000  0.4582460000000  0.6149130000000 1.0
C      1  0.4226710000000  0.5786150000000  0.4963980000000 1.0
C      1  0.4940600000000  0.4690150000000  0.5021620000000 1.0
C      1  0.4976600000000  0.4324180000000  0.5689900000000 1.0
C      1  0.6060740000000  0.5448760000000  0.5309620000000 1.0
C      1  0.5627670000000  0.5641860000000  0.4375460000000 1.0
C      1  0.5111220000000  0.4828140000000  0.4347110000000 1.0
C      1  0.5777840000000  0.4949690000000  0.5332010000000 1.0
C      1  0.6053390000000  0.4495990000000  0.5326930000000 1.0
END
