TITL C-2847951-7423-63 -0.00152819858685322 125000 -458.435653098654 0 0 83 (C1) n - 1
REM
REM in /home/bkarasulu/work/CARBON/AIRSS/Generating-Clusters/AIREBO/with-SteepDescent/Only-C1/SD-CG-opt/Try1-1.4A-POS3A/HFTN-CG
REM
REM
REM
REM
REM
REM ./C.cell (11c1c37f851c82e70ff6c80c92926a4b)
REM
REM compiler GCC version 9.2.1 20190827 (Red Hat 9.2.1-1)
REM options -cpp -mtune=generic -march=x86-64 -g -O0 -fpre-include=/usr/include/finclude/math-vector-fortran.h
REM seed 1241010127 -330656004 -2090512330 380921541 -754704753 -956513969 -2044586880 948645259 1539875591 1158249679 77845105 557797798 -451316576 -1271515169 1463141783 -288033687 -397100897 -398886138 1529894019 75932091 342861732 -1514010074 1170102294 -1557126762 -1085314886 54733120 1933527382 1687426311 1685684331 -426882837 393101993 -68127296 -1274301008
REM
CELL 1.54180   50.00000   50.00000   50.00000   90.00000   90.00000   90.00000
LATT -1
SFAC C  
C      1  0.4876540000000  0.4276100000000  0.5456970000000 1.0
C      1  0.5485500000000  0.5214200000000  0.5631160000000 1.0
C      1  0.5082410000000  0.4564520000000  0.5257640000000 1.0
C      1  0.4443000000000  0.4503420000000  0.5083830000000 1.0
C      1  0.4850540000000  0.4832730000000  0.4136180000000 1.0
C      1  0.4294090000000  0.4736310000000  0.5165520000000 1.0
C      1  0.4592740000000  0.5597590000000  0.4560380000000 1.0
C      1  0.4355120000000  0.5103640000000  0.4644730000000 1.0
C      1  0.5262980000000  0.4383940000000  0.4713220000000 1.0
C      1  0.4966840000000  0.5090940000000  0.4116150000000 1.0
C      1  0.5308390000000  0.4762090000000  0.5422450000000 1.0
C      1  0.5253360000000  0.4895360000000  0.5114380000000 1.0
C      1  0.5829510000000  0.4862900000000  0.5360650000000 1.0
C      1  0.5036530000000  0.5250210000000  0.5471950000000 1.0
C      1  0.4290150000000  0.5233790000000  0.5080710000000 1.0
C      1  0.4750830000000  0.4494160000000  0.5228360000000 1.0
C      1  0.4578230000000  0.4788880000000  0.5651480000000 1.0
C      1  0.5344420000000  0.5652890000000  0.4990730000000 1.0
C      1  0.5106050000000  0.4304110000000  0.5560290000000 1.0
C      1  0.5924950000000  0.4514300000000  0.5238580000000 1.0
C      1  0.4924240000000  0.5546980000000  0.4503980000000 1.0
C      1  0.5003530000000  0.4660440000000  0.4357690000000 1.0
C      1  0.5217080000000  0.5680460000000  0.5244700000000 1.0
C      1  0.4219550000000  0.4946140000000  0.4914160000000 1.0
C      1  0.4917970000000  0.4928730000000  0.5168920000000 1.0
C      1  0.5114540000000  0.4844670000000  0.4579080000000 1.0
C      1  0.5526960000000  0.4663020000000  0.4389070000000 1.0
C      1  0.4949780000000  0.5769320000000  0.5232420000000 1.0
C      1  0.5055770000000  0.4704590000000  0.4825390000000 1.0
C      1  0.5618640000000  0.5304850000000  0.5200460000000 1.0
C      1  0.4676910000000  0.4861270000000  0.5886680000000 1.0
C      1  0.4391160000000  0.4478680000000  0.4785210000000 1.0
C      1  0.4608610000000  0.5180150000000  0.4262580000000 1.0
C      1  0.5053000000000  0.4275080000000  0.5084910000000 1.0
C      1  0.5377020000000  0.5020650000000  0.4823130000000 1.0
C      1  0.4497750000000  0.5307200000000  0.4047270000000 1.0
C      1  0.4494270000000  0.4958800000000  0.4412800000000 1.0
C      1  0.5599440000000  0.5522170000000  0.5017480000000 1.0
C      1  0.4852810000000  0.5258430000000  0.5185950000000 1.0
C      1  0.5109300000000  0.5474760000000  0.5881830000000 1.0
C      1  0.4549350000000  0.5170650000000  0.4891590000000 1.0
C      1  0.4975960000000  0.5262460000000  0.5748520000000 1.0
C      1  0.5635970000000  0.5252000000000  0.4625920000000 1.0
C      1  0.5169430000000  0.5617370000000  0.4728790000000 1.0
C      1  0.4772790000000  0.4981370000000  0.4882030000000 1.0
C      1  0.4779540000000  0.4254940000000  0.4618050000000 1.0
C      1  0.4340010000000  0.5536190000000  0.5228010000000 1.0
C      1  0.5934620000000  0.4959610000000  0.4881210000000 1.0
C      1  0.4802510000000  0.5700960000000  0.4996360000000 1.0
C      1  0.4379280000000  0.5164920000000  0.5370170000000 1.0
C      1  0.4958790000000  0.5094130000000  0.4637690000000 1.0
C      1  0.4900690000000  0.5261060000000  0.4388990000000 1.0
C      1  0.4778270000000  0.4644790000000  0.4924670000000 1.0
C      1  0.4617310000000  0.5460920000000  0.5047320000000 1.0
C      1  0.5073420000000  0.4189650000000  0.4573230000000 1.0
C      1  0.5340250000000  0.5562910000000  0.5760190000000 1.0
C      1  0.5307100000000  0.4235850000000  0.5222590000000 1.0
C      1  0.4665040000000  0.4680260000000  0.4383150000000 1.0
C      1  0.4798240000000  0.5765820000000  0.4731420000000 1.0
C      1  0.5420200000000  0.4869990000000  0.4566010000000 1.0
C      1  0.5798920000000  0.5158590000000  0.5352600000000 1.0
C      1  0.4741800000000  0.4783300000000  0.5373880000000 1.0
C      1  0.5879680000000  0.5144710000000  0.4689820000000 1.0
C      1  0.5290500000000  0.4581150000000  0.4989180000000 1.0
C      1  0.5276470000000  0.4507160000000  0.4439790000000 1.0
C      1  0.4162440000000  0.4663070000000  0.4755710000000 1.0
C      1  0.5514060000000  0.4964720000000  0.5555010000000 1.0
C      1  0.5982040000000  0.4778740000000  0.5082520000000 1.0
C      1  0.5362350000000  0.5476270000000  0.5450710000000 1.0
C      1  0.4559080000000  0.5607960000000  0.5454580000000 1.0
C      1  0.4391920000000  0.4876760000000  0.5407790000000 1.0
C      1  0.4566450000000  0.4437430000000  0.4555920000000 1.0
C      1  0.5401230000000  0.4442560000000  0.5463780000000 1.0
C      1  0.4771490000000  0.5793500000000  0.5453060000000 1.0
C      1  0.4612200000000  0.5315040000000  0.5419590000000 1.0
C      1  0.5308360000000  0.5188860000000  0.5277020000000 1.0
C      1  0.4870620000000  0.5052260000000  0.5897840000000 1.0
C      1  0.4392680000000  0.5424340000000  0.4583260000000 1.0
C      1  0.5049630000000  0.5266210000000  0.4907810000000 1.0
C      1  0.5695060000000  0.4559170000000  0.5441540000000 1.0
C      1  0.5344480000000  0.5333780000000  0.4752560000000 1.0
C      1  0.4871880000000  0.4332670000000  0.4885710000000 1.0
C      1  0.5117370000000  0.5197390000000  0.3915340000000 1.0
END
