TITL C-2847948-6138-253 0.0105363965684357 125000 -120.576085755559 0 0 23 (C1) n - 1
REM
REM in /home/bkarasulu/work/CARBON/AIRSS/Generating-Clusters/AIREBO/with-SteepDescent/Only-C1/SD-CG-opt/Try1-1.4A-POS3A/HFTN-CG
REM
REM
REM
REM
REM
REM ./C.cell (11c1c37f851c82e70ff6c80c92926a4b)
REM
REM compiler GCC version 9.2.1 20190827 (Red Hat 9.2.1-1)
REM options -cpp -mtune=generic -march=x86-64 -g -O0 -fpre-include=/usr/include/finclude/math-vector-fortran.h
REM seed -1470780199 -1670440570 1896802246 720607472 1359459659 -1583384807 145873880 406738161 2146373511 872623455 -52220843 26145189 -1374288325 534870333 1647185822 1979728070 -1831630981 -1814317348 112972033 1276418110 -217604291 -1254370820 168669676 -104588214 -41039318 304626156 -37882393 1684012757 -73599017 -1744034449 -1468106090 414828453 -1855178424
REM
CELL 1.54180   50.00000   50.00000   50.00000   90.00000   90.00000   90.00000
LATT -1
SFAC C  
C      1  0.4531620000000  0.4532840000000  0.5925250000000 1.0
C      1  0.5477940000000  0.4622640000000  0.4623290000000 1.0
C      1  0.4819220000000  0.4605730000000  0.5785330000000 1.0
C      1  0.4752410000000  0.4661970000000  0.4533460000000 1.0
C      1  0.5334070000000  0.5139060000000  0.4551420000000 1.0
C      1  0.4826260000000  0.5061210000000  0.5315610000000 1.0
C      1  0.4867380000000  0.5134770000000  0.4823950000000 1.0
C      1  0.4818870000000  0.4877220000000  0.4671040000000 1.0
C      1  0.5396450000000  0.4872690000000  0.4580900000000 1.0
C      1  0.4724800000000  0.5152020000000  0.5085350000000 1.0
C      1  0.4589680000000  0.4842100000000  0.5832670000000 1.0
C      1  0.5430460000000  0.5291360000000  0.4344450000000 1.0
C      1  0.5060530000000  0.5074360000000  0.5527500000000 1.0
C      1  0.5282680000000  0.5221860000000  0.5475050000000 1.0
C      1  0.4465060000000  0.5244170000000  0.5077830000000 1.0
C      1  0.4808620000000  0.4869900000000  0.5580790000000 1.0
C      1  0.5402690000000  0.5306960000000  0.5247400000000 1.0
C      1  0.4784740000000  0.5612210000000  0.4533310000000 1.0
C      1  0.5533730000000  0.4370900000000  0.4670280000000 1.0
C      1  0.4711360000000  0.4442530000000  0.4396150000000 1.0
C      1  0.4894420000000  0.5420540000000  0.4656990000000 1.0
C      1  0.5318390000000  0.5373560000000  0.5001850000000 1.0
C      1  0.5168630000000  0.5269400000000  0.4760110000000 1.0
END
