TITL C-2847952-8118-386 0.000220454156547677 125000 -759.101639701214 0 0 143 (C1) n - 1
REM
REM in /home/bkarasulu/work/CARBON/AIRSS/Generating-Clusters/AIREBO/with-SteepDescent/Only-C1/SD-CG-opt/Try1-1.4A-POS3A/HFTN-CG
REM
REM
REM
REM
REM
REM ./C.cell (11c1c37f851c82e70ff6c80c92926a4b)
REM
REM compiler GCC version 9.2.1 20190827 (Red Hat 9.2.1-1)
REM options -cpp -mtune=generic -march=x86-64 -g -O0 -fpre-include=/usr/include/finclude/math-vector-fortran.h
REM seed -2016740481 528987390 1190723444 1551408394 869132628 1792904625 -1374725678 -1418922910 -1980892893 -1460882606 833209566 1830336981 -747389731 -1423546421 398121740 -1970745167 1965652016 609304862 -1293664273 -1990021855 1787844985 -1684305910 -507789563 726921299 -336815125 815381195 149892587 -1529233398 1027452474 2133247133 433211560 2032747701 -1202473763
REM
CELL 1.54180   50.00000   50.00000   50.00000   90.00000   90.00000   90.00000
LATT -1
SFAC C  
C      1  0.5145130000000  0.4705600000000  0.5946150000000 1.0
C      1  0.5394270000000  0.5021690000000  0.5093730000000 1.0
C      1  0.4861780000000  0.4275750000000  0.4398670000000 1.0
C      1  0.3991380000000  0.5049400000000  0.4934140000000 1.0
C      1  0.4415250000000  0.4992800000000  0.4995920000000 1.0
C      1  0.5351220000000  0.5503110000000  0.4842960000000 1.0
C      1  0.5166430000000  0.5963480000000  0.4681940000000 1.0
C      1  0.5153010000000  0.4346370000000  0.4255080000000 1.0
C      1  0.5231210000000  0.5498970000000  0.5965150000000 1.0
C      1  0.5234970000000  0.5294640000000  0.5634130000000 1.0
C      1  0.4712850000000  0.5220350000000  0.4143980000000 1.0
C      1  0.4413750000000  0.4413290000000  0.4901470000000 1.0
C      1  0.4129040000000  0.5007360000000  0.4562480000000 1.0
C      1  0.5644240000000  0.5463400000000  0.4917590000000 1.0
C      1  0.5489340000000  0.4386440000000  0.4466220000000 1.0
C      1  0.5719010000000  0.4598820000000  0.5182350000000 1.0
C      1  0.4322440000000  0.4639090000000  0.4033540000000 1.0
C      1  0.4250370000000  0.5256270000000  0.4857750000000 1.0
C      1  0.5369090000000  0.4864040000000  0.4355290000000 1.0
C      1  0.5103500000000  0.5871740000000  0.4937320000000 1.0
C      1  0.4189110000000  0.5481620000000  0.5084610000000 1.0
C      1  0.5126490000000  0.4546380000000  0.5555920000000 1.0
C      1  0.4799090000000  0.5976320000000  0.5172310000000 1.0
C      1  0.5786030000000  0.4991790000000  0.5203540000000 1.0
C      1  0.4554040000000  0.5639020000000  0.4861270000000 1.0
C      1  0.4536320000000  0.4777300000000  0.5657970000000 1.0
C      1  0.5506910000000  0.4997680000000  0.5900640000000 1.0
C      1  0.5165260000000  0.5224230000000  0.5350480000000 1.0
C      1  0.4796650000000  0.4995770000000  0.5647500000000 1.0
C      1  0.4755570000000  0.4386780000000  0.4901520000000 1.0
C      1  0.4019590000000  0.5103010000000  0.5257810000000 1.0
C      1  0.4434040000000  0.4550120000000  0.4527130000000 1.0
C      1  0.5127470000000  0.4061370000000  0.5080330000000 1.0
C      1  0.5018130000000  0.5207360000000  0.4115960000000 1.0
C      1  0.5125190000000  0.3936480000000  0.4701230000000 1.0
C      1  0.5344320000000  0.5749180000000  0.5479660000000 1.0
C      1  0.4707040000000  0.5955270000000  0.5461760000000 1.0
C      1  0.4441460000000  0.5022160000000  0.4535610000000 1.0
C      1  0.5953010000000  0.4755990000000  0.5032550000000 1.0
C      1  0.5525360000000  0.5487560000000  0.4313610000000 1.0
C      1  0.5288280000000  0.5946390000000  0.5136950000000 1.0
C      1  0.4145430000000  0.5348270000000  0.5326310000000 1.0
C      1  0.5547300000000  0.4292600000000  0.4784450000000 1.0
C      1  0.5750870000000  0.5744280000000  0.5000990000000 1.0
C      1  0.4593930000000  0.5453730000000  0.4362230000000 1.0
C      1  0.4982080000000  0.5949770000000  0.4469610000000 1.0
C      1  0.5784810000000  0.5252070000000  0.4730080000000 1.0
C      1  0.5115470000000  0.4898810000000  0.4131310000000 1.0
C      1  0.5432260000000  0.4692350000000  0.5523250000000 1.0
C      1  0.5222180000000  0.4476840000000  0.5176150000000 1.0
C      1  0.4465960000000  0.5410520000000  0.4063950000000 1.0
C      1  0.5768870000000  0.5537810000000  0.4545550000000 1.0
C      1  0.5018470000000  0.4947330000000  0.5897570000000 1.0
C      1  0.4819210000000  0.4705390000000  0.4801110000000 1.0
C      1  0.5272220000000  0.4626600000000  0.4513180000000 1.0
C      1  0.4889250000000  0.5019320000000  0.4693420000000 1.0
C      1  0.5578180000000  0.5052800000000  0.4546670000000 1.0
C      1  0.4203340000000  0.4824070000000  0.5708510000000 1.0
C      1  0.5237140000000  0.4910310000000  0.5350820000000 1.0
C      1  0.4920870000000  0.4471690000000  0.5186330000000 1.0
C      1  0.5551660000000  0.4771060000000  0.4967100000000 1.0
C      1  0.5423260000000  0.5546600000000  0.5681470000000 1.0
C      1  0.5148170000000  0.5328580000000  0.4394230000000 1.0
C      1  0.4965500000000  0.4574850000000  0.4522960000000 1.0
C      1  0.4491400000000  0.4594080000000  0.5154540000000 1.0
C      1  0.4440490000000  0.4698900000000  0.4256650000000 1.0
C      1  0.4674940000000  0.4941080000000  0.4302060000000 1.0
C      1  0.6064560000000  0.4822310000000  0.4724890000000 1.0
C      1  0.5947080000000  0.5078700000000  0.4914830000000 1.0
C      1  0.5843510000000  0.4542280000000  0.5482460000000 1.0
C      1  0.5198350000000  0.4574630000000  0.4108580000000 1.0
C      1  0.4520590000000  0.5778270000000  0.4580620000000 1.0
C      1  0.5463600000000  0.5935360000000  0.4612150000000 1.0
C      1  0.4625920000000  0.4477590000000  0.5646490000000 1.0
C      1  0.4179930000000  0.4557220000000  0.4727650000000 1.0
C      1  0.5115170000000  0.4789820000000  0.4927230000000 1.0
C      1  0.5686760000000  0.5080660000000  0.5702370000000 1.0
C      1  0.5717010000000  0.5784090000000  0.4693290000000 1.0
C      1  0.4501060000000  0.4791360000000  0.4757390000000 1.0
C      1  0.4359890000000  0.5695080000000  0.5089990000000 1.0
C      1  0.5545310000000  0.4131160000000  0.5155910000000 1.0
C      1  0.5081150000000  0.4304950000000  0.4846840000000 1.0
C      1  0.4989120000000  0.4963920000000  0.4430670000000 1.0
C      1  0.5220160000000  0.4223860000000  0.4565080000000 1.0
C      1  0.5348320000000  0.5633420000000  0.4552340000000 1.0
C      1  0.4833510000000  0.4313600000000  0.5794790000000 1.0
C      1  0.4815160000000  0.4070380000000  0.4664670000000 1.0
C      1  0.5238560000000  0.5162490000000  0.5916670000000 1.0
C      1  0.4738550000000  0.4058950000000  0.4990400000000 1.0
C      1  0.4641560000000  0.5948610000000  0.4933650000000 1.0
C      1  0.4783030000000  0.5703440000000  0.4414530000000 1.0
C      1  0.5298480000000  0.5172480000000  0.4595920000000 1.0
C      1  0.5189800000000  0.6090980000000  0.5365250000000 1.0
C      1  0.4576870000000  0.4285170000000  0.4550310000000 1.0
C      1  0.4943620000000  0.4793300000000  0.5421900000000 1.0
C      1  0.5143350000000  0.3750730000000  0.4958630000000 1.0
C      1  0.4038510000000  0.4786070000000  0.4745310000000 1.0
C      1  0.5407170000000  0.4237220000000  0.5612310000000 1.0
C      1  0.5017300000000  0.5815940000000  0.5466230000000 1.0
C      1  0.4701510000000  0.5103820000000  0.5137040000000 1.0
C      1  0.4389680000000  0.4448030000000  0.5422370000000 1.0
C      1  0.4216930000000  0.4883870000000  0.5219460000000 1.0
C      1  0.4832570000000  0.4643770000000  0.4253310000000 1.0
C      1  0.4501730000000  0.5771210000000  0.5342930000000 1.0
C      1  0.5493670000000  0.4411100000000  0.5341990000000 1.0
C      1  0.5403880000000  0.4040500000000  0.4883430000000 1.0
C      1  0.4898130000000  0.5542880000000  0.5565320000000 1.0
C      1  0.5326570000000  0.4540310000000  0.4858840000000 1.0
C      1  0.4546930000000  0.5402250000000  0.5801530000000 1.0
C      1  0.5625960000000  0.5319470000000  0.5561300000000 1.0
C      1  0.4424930000000  0.5377530000000  0.5496850000000 1.0
C      1  0.3990070000000  0.5269140000000  0.4639060000000 1.0
C      1  0.5150430000000  0.5128340000000  0.4881860000000 1.0
C      1  0.5681410000000  0.5218730000000  0.4186730000000 1.0
C      1  0.5271030000000  0.5433590000000  0.4094420000000 1.0
C      1  0.4766090000000  0.4769680000000  0.5132780000000 1.0
C      1  0.4219930000000  0.4703510000000  0.5425630000000 1.0
C      1  0.5724880000000  0.4816910000000  0.4710130000000 1.0
C      1  0.4649230000000  0.5480870000000  0.5261510000000 1.0
C      1  0.4777800000000  0.5565010000000  0.5818790000000 1.0
C      1  0.4610310000000  0.5149480000000  0.5886800000000 1.0
C      1  0.4486010000000  0.5325460000000  0.4622480000000 1.0
C      1  0.4989310000000  0.4071330000000  0.5342480000000 1.0
C      1  0.5021960000000  0.5562980000000  0.4562980000000 1.0
C      1  0.4879120000000  0.5670160000000  0.5094440000000 1.0
C      1  0.4982270000000  0.5608220000000  0.6014140000000 1.0
C      1  0.5632650000000  0.5725700000000  0.4137850000000 1.0
C      1  0.5589730000000  0.5244120000000  0.5261600000000 1.0
C      1  0.4374320000000  0.4158850000000  0.5311610000000 1.0
C      1  0.4371970000000  0.5069440000000  0.5577940000000 1.0
C      1  0.4766120000000  0.4320590000000  0.5401500000000 1.0
C      1  0.5416150000000  0.4726770000000  0.5852140000000 1.0
C      1  0.4272770000000  0.4170940000000  0.5050420000000 1.0
C      1  0.4836890000000  0.5243260000000  0.5416270000000 1.0
C      1  0.5329660000000  0.5411000000000  0.5158910000000 1.0
C      1  0.5751060000000  0.4512670000000  0.4621730000000 1.0
C      1  0.5019270000000  0.5442250000000  0.4884500000000 1.0
C      1  0.4699590000000  0.5332780000000  0.4886840000000 1.0
C      1  0.5089040000000  0.4228310000000  0.5614920000000 1.0
C      1  0.5728550000000  0.4856390000000  0.5491810000000 1.0
C      1  0.4655580000000  0.4016130000000  0.5306550000000 1.0
C      1  0.5603490000000  0.4982220000000  0.4155320000000 1.0
C      1  0.5486890000000  0.5712310000000  0.5187460000000 1.0
END
