TITL C-2847958-8115-518 0.000902672091792789 125000 -133.735859396813 0 0 25 (C1) n - 1
REM
REM in /home/bkarasulu/work/CARBON/AIRSS/Generating-Clusters/AIREBO/with-SteepDescent/Only-C1/SD-CG-opt/Try1-1.4A-POS3A/HFTN-CG
REM
REM
REM
REM
REM
REM ./C.cell (11c1c37f851c82e70ff6c80c92926a4b)
REM
REM compiler GCC version 9.2.1 20190827 (Red Hat 9.2.1-1)
REM options -cpp -mtune=generic -march=x86-64 -g -O0 -fpre-include=/usr/include/finclude/math-vector-fortran.h
REM seed -1943739482 -2130328217 -1281297106 202737055 1260359510 1975168855 -477120028 750545848 -121526773 -229089898 -1539138214 -193716193 236718641 1575092979 -1994021432 148892471 266282304 -1690142167 -1247840238 -164071327 1163575946 -1908937888 110408668 -227245127 -150622749 -572291910 802464069 -88084671 696260407 453454830 228878666 344899181 -648722610
REM
CELL 1.54180   50.00000   50.00000   50.00000   90.00000   90.00000   90.00000
LATT -1
SFAC C  
C      1  0.4955550000000  0.5656370000000  0.5240240000000 1.0
C      1  0.5206650000000  0.4597670000000  0.5041320000000 1.0
C      1  0.4600610000000  0.5215000000000  0.5256240000000 1.0
C      1  0.4923070000000  0.5150150000000  0.5169570000000 1.0
C      1  0.4775360000000  0.4389520000000  0.5109150000000 1.0
C      1  0.4976070000000  0.5410320000000  0.5382050000000 1.0
C      1  0.5303610000000  0.4194170000000  0.4790890000000 1.0
C      1  0.5553080000000  0.5042810000000  0.5158150000000 1.0
C      1  0.5339940000000  0.4804360000000  0.5165510000000 1.0
C      1  0.4923270000000  0.4610110000000  0.5063440000000 1.0
C      1  0.5051490000000  0.5365480000000  0.5640360000000 1.0
C      1  0.4368390000000  0.5076910000000  0.5253570000000 1.0
C      1  0.5535190000000  0.5121670000000  0.4633520000000 1.0
C      1  0.4820080000000  0.5633130000000  0.4998690000000 1.0
C      1  0.5507520000000  0.4866780000000  0.4536400000000 1.0
C      1  0.5223240000000  0.5117450000000  0.5104270000000 1.0
C      1  0.5331530000000  0.4459820000000  0.4825630000000 1.0
C      1  0.5474470000000  0.5202680000000  0.4890310000000 1.0
C      1  0.4731510000000  0.5339890000000  0.4962170000000 1.0
C      1  0.4620390000000  0.5174970000000  0.4730630000000 1.0
C      1  0.4575360000000  0.5250880000000  0.4474610000000 1.0
C      1  0.4809990000000  0.4862490000000  0.5026260000000 1.0
C      1  0.4338160000000  0.4913540000000  0.5028410000000 1.0
C      1  0.5478600000000  0.4622060000000  0.4650770000000 1.0
C      1  0.4576900000000  0.4921790000000  0.4867820000000 1.0
END
