TITL C-2847944-5688-186 0.000118073309432427 125000 -865.205639375376 0 0 159 (C1) n - 1
REM
REM in /home/bkarasulu/work/CARBON/AIRSS/Generating-Clusters/AIREBO/with-SteepDescent/Only-C1/SD-CG-opt/Try1-1.4A-POS3A/HFTN-CG
REM
REM
REM
REM
REM
REM ./C.cell (11c1c37f851c82e70ff6c80c92926a4b)
REM
REM compiler GCC version 9.2.1 20190827 (Red Hat 9.2.1-1)
REM options -cpp -mtune=generic -march=x86-64 -g -O0 -fpre-include=/usr/include/finclude/math-vector-fortran.h
REM seed -128011868 1399478367 986524952 -1915878472 859352169 1491575861 -1844660797 -1739547341 1727158528 -341753608 -132942572 765554561 -526978580 447307146 910032334 -363163820 -1375696569 989550673 -218273042 -1381673341 -1793125223 -1104748602 -48038475 -381760643 1820371361 -977387973 -1089497437 -502018332 -1895880166 463548984 -203566342 1972650654 -1088222533
REM
CELL 1.54180   50.00000   50.00000   50.00000   90.00000   90.00000   90.00000
LATT -1
SFAC C  
C      1  0.5224300000000  0.4686110000000  0.5578340000000 1.0
C      1  0.4694310000000  0.4838980000000  0.5571130000000 1.0
C      1  0.5242580000000  0.4512620000000  0.5870270000000 1.0
C      1  0.5376400000000  0.5457940000000  0.4764900000000 1.0
C      1  0.4520350000000  0.4132020000000  0.4933050000000 1.0
C      1  0.4917250000000  0.5089530000000  0.5626990000000 1.0
C      1  0.5471140000000  0.5453200000000  0.4438290000000 1.0
C      1  0.5179140000000  0.4181280000000  0.5438660000000 1.0
C      1  0.4464570000000  0.5005540000000  0.4138860000000 1.0
C      1  0.4019340000000  0.5544550000000  0.4949320000000 1.0
C      1  0.5685370000000  0.4126510000000  0.5094980000000 1.0
C      1  0.5106820000000  0.5561160000000  0.5085480000000 1.0
C      1  0.5632470000000  0.4417590000000  0.4946960000000 1.0
C      1  0.5230850000000  0.5321160000000  0.4280330000000 1.0
C      1  0.4369040000000  0.5220930000000  0.4505670000000 1.0
C      1  0.5395780000000  0.5019910000000  0.4484940000000 1.0
C      1  0.5139060000000  0.5624050000000  0.4586660000000 1.0
C      1  0.5191400000000  0.4749850000000  0.4750040000000 1.0
C      1  0.5581990000000  0.4441280000000  0.4259370000000 1.0
C      1  0.5728950000000  0.4585010000000  0.5676320000000 1.0
C      1  0.5803600000000  0.5052940000000  0.4228140000000 1.0
C      1  0.4592650000000  0.4554850000000  0.4987100000000 1.0
C      1  0.5494000000000  0.4480450000000  0.5568910000000 1.0
C      1  0.5430960000000  0.5598510000000  0.5354170000000 1.0
C      1  0.4766100000000  0.5831460000000  0.4628130000000 1.0
C      1  0.5231420000000  0.4842870000000  0.5950320000000 1.0
C      1  0.4366500000000  0.4631480000000  0.4524460000000 1.0
C      1  0.4342490000000  0.5072370000000  0.5913860000000 1.0
C      1  0.5283520000000  0.5227940000000  0.4957240000000 1.0
C      1  0.5758350000000  0.4857300000000  0.5830420000000 1.0
C      1  0.5041180000000  0.4282680000000  0.5140990000000 1.0
C      1  0.4616670000000  0.5568540000000  0.4783520000000 1.0
C      1  0.5177350000000  0.4024540000000  0.4966390000000 1.0
C      1  0.5735150000000  0.5369220000000  0.4301270000000 1.0
C      1  0.4559100000000  0.4894530000000  0.5946770000000 1.0
C      1  0.4819820000000  0.5729720000000  0.5523080000000 1.0
C      1  0.5952810000000  0.5210810000000  0.4466050000000 1.0
C      1  0.5002250000000  0.4065790000000  0.4437150000000 1.0
C      1  0.4573520000000  0.5880500000000  0.5109920000000 1.0
C      1  0.5243480000000  0.5792320000000  0.5822870000000 1.0
C      1  0.5161670000000  0.5296350000000  0.5560110000000 1.0
C      1  0.4851920000000  0.4620760000000  0.4427240000000 1.0
C      1  0.5058610000000  0.5609880000000  0.5952800000000 1.0
C      1  0.4867030000000  0.4342030000000  0.4582180000000 1.0
C      1  0.6015510000000  0.4968910000000  0.5269050000000 1.0
C      1  0.5125420000000  0.4822740000000  0.4424350000000 1.0
C      1  0.4287390000000  0.5635130000000  0.4753410000000 1.0
C      1  0.4260690000000  0.4534180000000  0.4915730000000 1.0
C      1  0.4195090000000  0.5087700000000  0.4171560000000 1.0
C      1  0.5643500000000  0.5619540000000  0.4851160000000 1.0
C      1  0.4096630000000  0.5037370000000  0.4450440000000 1.0
C      1  0.4511880000000  0.4294150000000  0.4189430000000 1.0
C      1  0.4972950000000  0.3984520000000  0.4744050000000 1.0
C      1  0.4533040000000  0.4371010000000  0.5707250000000 1.0
C      1  0.5137370000000  0.5275780000000  0.5228450000000 1.0
C      1  0.5535980000000  0.4315600000000  0.5320700000000 1.0
C      1  0.5752050000000  0.5647290000000  0.5366600000000 1.0
C      1  0.4418770000000  0.5025530000000  0.5525810000000 1.0
C      1  0.5947470000000  0.4891310000000  0.4945370000000 1.0
C      1  0.4918540000000  0.4570510000000  0.5854670000000 1.0
C      1  0.5804280000000  0.4520870000000  0.4404450000000 1.0
C      1  0.4681850000000  0.5466380000000  0.5373470000000 1.0
C      1  0.5257420000000  0.5958330000000  0.5553720000000 1.0
C      1  0.4418240000000  0.5606520000000  0.5210770000000 1.0
C      1  0.5290110000000  0.4003970000000  0.4313370000000 1.0
C      1  0.5564950000000  0.5841110000000  0.5065400000000 1.0
C      1  0.4226490000000  0.5404000000000  0.5405490000000 1.0
C      1  0.4034160000000  0.4762660000000  0.4876950000000 1.0
C      1  0.4649390000000  0.5619150000000  0.4388240000000 1.0
C      1  0.4370620000000  0.5138010000000  0.5243320000000 1.0
C      1  0.6320100000000  0.5407040000000  0.5255840000000 1.0
C      1  0.4494750000000  0.5806800000000  0.5587030000000 1.0
C      1  0.5074740000000  0.4596560000000  0.4038040000000 1.0
C      1  0.6068700000000  0.4562040000000  0.4538380000000 1.0
C      1  0.3956870000000  0.4870490000000  0.5512530000000 1.0
C      1  0.4876620000000  0.5229150000000  0.6012690000000 1.0
C      1  0.4529860000000  0.4637310000000  0.5790260000000 1.0
C      1  0.4604810000000  0.5379290000000  0.5870900000000 1.0
C      1  0.5406170000000  0.4940030000000  0.4912390000000 1.0
C      1  0.5749900000000  0.5186860000000  0.5328690000000 1.0
C      1  0.5022270000000  0.5950550000000  0.5066950000000 1.0
C      1  0.5149870000000  0.4437390000000  0.4843820000000 1.0
C      1  0.5522880000000  0.5765190000000  0.4567840000000 1.0
C      1  0.4807430000000  0.5381750000000  0.4199970000000 1.0
C      1  0.4044510000000  0.4796850000000  0.5216280000000 1.0
C      1  0.5482910000000  0.4182460000000  0.4354680000000 1.0
C      1  0.5652660000000  0.4948740000000  0.5105710000000 1.0
C      1  0.5325000000000  0.5044200000000  0.4153120000000 1.0
C      1  0.5146550000000  0.5635570000000  0.5536940000000 1.0
C      1  0.4840700000000  0.5094560000000  0.4005910000000 1.0
C      1  0.5188550000000  0.4588250000000  0.5115640000000 1.0
C      1  0.6100470000000  0.4681260000000  0.4783040000000 1.0
C      1  0.4483110000000  0.4366860000000  0.5408010000000 1.0
C      1  0.4793430000000  0.4121830000000  0.4965950000000 1.0
C      1  0.4264480000000  0.5701560000000  0.5566010000000 1.0
C      1  0.5015320000000  0.5945550000000  0.4787550000000 1.0
C      1  0.5103110000000  0.4254640000000  0.5698070000000 1.0
C      1  0.4973410000000  0.4813150000000  0.5114130000000 1.0
C      1  0.4285630000000  0.4602750000000  0.5302590000000 1.0
C      1  0.4810550000000  0.4311150000000  0.5710100000000 1.0
C      1  0.5485470000000  0.5304050000000  0.5794040000000 1.0
C      1  0.4445900000000  0.4855570000000  0.4767960000000 1.0
C      1  0.4099460000000  0.4789340000000  0.4582140000000 1.0
C      1  0.4766360000000  0.4452600000000  0.5247090000000 1.0
C      1  0.5080670000000  0.4338250000000  0.4247630000000 1.0
C      1  0.5876310000000  0.5152170000000  0.4750390000000 1.0
C      1  0.5475660000000  0.4599660000000  0.5187360000000 1.0
C      1  0.4755410000000  0.4531660000000  0.4135130000000 1.0
C      1  0.5610140000000  0.5384690000000  0.5533170000000 1.0
C      1  0.4144450000000  0.4979000000000  0.5672570000000 1.0
C      1  0.5545670000000  0.4834290000000  0.5390060000000 1.0
C      1  0.4011970000000  0.5343430000000  0.5148470000000 1.0
C      1  0.5339150000000  0.5006200000000  0.5572590000000 1.0
C      1  0.4441380000000  0.4086260000000  0.4367490000000 1.0
C      1  0.5595140000000  0.4883640000000  0.4167090000000 1.0
C      1  0.5706630000000  0.4630550000000  0.4692110000000 1.0
C      1  0.5173280000000  0.5328170000000  0.5898500000000 1.0
C      1  0.4929810000000  0.4958750000000  0.4809870000000 1.0
C      1  0.4552140000000  0.5957180000000  0.4849280000000 1.0
C      1  0.4440520000000  0.4834200000000  0.5107350000000 1.0
C      1  0.5148370000000  0.5550170000000  0.4077870000000 1.0
C      1  0.5505730000000  0.4360660000000  0.4642900000000 1.0
C      1  0.4505420000000  0.4748270000000  0.4055480000000 1.0
C      1  0.5273240000000  0.5924910000000  0.4634040000000 1.0
C      1  0.4795680000000  0.5632710000000  0.5848080000000 1.0
C      1  0.4968850000000  0.5107710000000  0.4320660000000 1.0
C      1  0.5167640000000  0.5139480000000  0.4664030000000 1.0
C      1  0.5639910000000  0.4925310000000  0.4692610000000 1.0
C      1  0.5103740000000  0.4915410000000  0.3998230000000 1.0
C      1  0.5911160000000  0.5660870000000  0.5144680000000 1.0
C      1  0.4049930000000  0.5069950000000  0.5016870000000 1.0
C      1  0.4953220000000  0.5533580000000  0.4817680000000 1.0
C      1  0.4372120000000  0.4551050000000  0.4234610000000 1.0
C      1  0.4494080000000  0.5344420000000  0.5007900000000 1.0
C      1  0.4982970000000  0.5628930000000  0.4336940000000 1.0
C      1  0.5875550000000  0.5398620000000  0.4934610000000 1.0
C      1  0.4809820000000  0.5921390000000  0.5241680000000 1.0
C      1  0.4897210000000  0.4905030000000  0.5911910000000 1.0
C      1  0.4373600000000  0.5518930000000  0.4473870000000 1.0
C      1  0.4649910000000  0.5236000000000  0.5588320000000 1.0
C      1  0.4306760000000  0.5138600000000  0.4812570000000 1.0
C      1  0.5495710000000  0.4994840000000  0.5866790000000 1.0
C      1  0.4637530000000  0.5076700000000  0.4391240000000 1.0
C      1  0.4331560000000  0.4288850000000  0.5126460000000 1.0
C      1  0.5270310000000  0.5828620000000  0.5194960000000 1.0
C      1  0.4720460000000  0.4854310000000  0.4601360000000 1.0
C      1  0.5349100000000  0.4655110000000  0.4230370000000 1.0
C      1  0.4816770000000  0.5234250000000  0.5225180000000 1.0
C      1  0.5854600000000  0.4843670000000  0.5503040000000 1.0
C      1  0.4295590000000  0.5342520000000  0.5733230000000 1.0
C      1  0.4719130000000  0.4942320000000  0.5248160000000 1.0
C      1  0.4574570000000  0.4443120000000  0.4688390000000 1.0
C      1  0.5375250000000  0.4041590000000  0.5205970000000 1.0
C      1  0.4813420000000  0.5246800000000  0.4911380000000 1.0
C      1  0.6048840000000  0.5292520000000  0.5205860000000 1.0
C      1  0.4446010000000  0.4145880000000  0.4643490000000 1.0
C      1  0.4188720000000  0.5788200000000  0.5037610000000 1.0
C      1  0.5200350000000  0.4394940000000  0.4540440000000 1.0
C      1  0.4955250000000  0.4674940000000  0.5424290000000 1.0
END
