TITL C-2847954-6904-195 -0.00209248242878278 125000 -650.524004078869 0 0 125 (C1) n - 1
REM
REM in /home/bkarasulu/work/CARBON/AIRSS/Generating-Clusters/AIREBO/with-SteepDescent/Only-C1/SD-CG-opt/Try1-1.4A-POS3A/HFTN-CG
REM
REM
REM
REM
REM
REM ./C.cell (11c1c37f851c82e70ff6c80c92926a4b)
REM
REM compiler GCC version 9.2.1 20190827 (Red Hat 9.2.1-1)
REM options -cpp -mtune=generic -march=x86-64 -g -O0 -fpre-include=/usr/include/finclude/math-vector-fortran.h
REM seed -1244373013 92333369 -1027430731 -1146687569 -433291786 -2128234259 927847859 -565356704 -1080507568 1445254570 1726100751 339950468 -758258090 -696102050 -389298663 -1235874841 1240070167 -549240545 1098047485 491561626 1914135634 -2143020602 -761197947 -697837274 1736181282 -1883728824 1784695656 -20145750 -386765449 -348946366 184135809 1072609104 1103945735
REM
CELL 1.54180   50.00000   50.00000   50.00000   90.00000   90.00000   90.00000
LATT -1
SFAC C  
C      1  0.5032980000000  0.4336600000000  0.4239230000000 1.0
C      1  0.5106450000000  0.4324830000000  0.5208730000000 1.0
C      1  0.5116190000000  0.4663300000000  0.5246650000000 1.0
C      1  0.4407640000000  0.5333730000000  0.4590890000000 1.0
C      1  0.4362350000000  0.4307020000000  0.4973950000000 1.0
C      1  0.5600160000000  0.5615760000000  0.4646020000000 1.0
C      1  0.5836660000000  0.4722650000000  0.5570310000000 1.0
C      1  0.4584270000000  0.4513160000000  0.5241970000000 1.0
C      1  0.4922270000000  0.3992140000000  0.4833890000000 1.0
C      1  0.5398440000000  0.4844370000000  0.4370190000000 1.0
C      1  0.4510420000000  0.4987260000000  0.6050620000000 1.0
C      1  0.4457090000000  0.4642990000000  0.4780380000000 1.0
C      1  0.4863830000000  0.5498000000000  0.4333710000000 1.0
C      1  0.5929890000000  0.4781830000000  0.5241080000000 1.0
C      1  0.4180800000000  0.5313190000000  0.4844820000000 1.0
C      1  0.5041710000000  0.5124220000000  0.5014250000000 1.0
C      1  0.5001930000000  0.6002150000000  0.5037990000000 1.0
C      1  0.4463060000000  0.5477780000000  0.5400680000000 1.0
C      1  0.5731500000000  0.4770780000000  0.4579100000000 1.0
C      1  0.5113020000000  0.5319440000000  0.5379020000000 1.0
C      1  0.4810330000000  0.4518330000000  0.4383830000000 1.0
C      1  0.4543290000000  0.5733030000000  0.4377970000000 1.0
C      1  0.4543020000000  0.5446010000000  0.4232970000000 1.0
C      1  0.5023170000000  0.4402790000000  0.5717330000000 1.0
C      1  0.5327250000000  0.4826640000000  0.5800210000000 1.0
C      1  0.4846650000000  0.4197780000000  0.5331230000000 1.0
C      1  0.5478120000000  0.5588670000000  0.5455740000000 1.0
C      1  0.4616620000000  0.4951670000000  0.5244010000000 1.0
C      1  0.5319170000000  0.5307770000000  0.4943650000000 1.0
C      1  0.5290070000000  0.4662630000000  0.4954240000000 1.0
C      1  0.4875590000000  0.4836750000000  0.5080070000000 1.0
C      1  0.4331000000000  0.5603080000000  0.4757620000000 1.0
C      1  0.5514600000000  0.4878920000000  0.5057990000000 1.0
C      1  0.4383630000000  0.5556610000000  0.5090310000000 1.0
C      1  0.4315160000000  0.4366830000000  0.5365240000000 1.0
C      1  0.5036790000000  0.4844420000000  0.5976240000000 1.0
C      1  0.5546230000000  0.5846400000000  0.4458550000000 1.0
C      1  0.5587940000000  0.5053500000000  0.4560380000000 1.0
C      1  0.4149090000000  0.4511610000000  0.5128580000000 1.0
C      1  0.4870820000000  0.5479890000000  0.5820990000000 1.0
C      1  0.4958090000000  0.5154300000000  0.5883700000000 1.0
C      1  0.4348250000000  0.4755290000000  0.5278230000000 1.0
C      1  0.4740670000000  0.5763310000000  0.5386980000000 1.0
C      1  0.6029380000000  0.4828750000000  0.4627460000000 1.0
C      1  0.5314220000000  0.5705810000000  0.4332180000000 1.0
C      1  0.4723210000000  0.5775920000000  0.4586570000000 1.0
C      1  0.5641450000000  0.4286340000000  0.5095280000000 1.0
C      1  0.4615100000000  0.5723510000000  0.4905110000000 1.0
C      1  0.4661700000000  0.5239570000000  0.5152210000000 1.0
C      1  0.5485680000000  0.5070180000000  0.5857930000000 1.0
C      1  0.4367720000000  0.5046180000000  0.5684280000000 1.0
C      1  0.4782430000000  0.5249690000000  0.4875610000000 1.0
C      1  0.5277070000000  0.5814650000000  0.5344700000000 1.0
C      1  0.5609000000000  0.4831100000000  0.5342080000000 1.0
C      1  0.4605720000000  0.4674800000000  0.4270170000000 1.0
C      1  0.4728190000000  0.4158540000000  0.4712740000000 1.0
C      1  0.5578970000000  0.4498630000000  0.4493890000000 1.0
C      1  0.5201330000000  0.4946430000000  0.4819170000000 1.0
C      1  0.4837440000000  0.4747130000000  0.5645980000000 1.0
C      1  0.5410960000000  0.5632230000000  0.4899680000000 1.0
C      1  0.5880090000000  0.5038580000000  0.5039860000000 1.0
C      1  0.4666780000000  0.5096750000000  0.5769180000000 1.0
C      1  0.5456670000000  0.5315860000000  0.5661940000000 1.0
C      1  0.5148690000000  0.4662810000000  0.4227650000000 1.0
C      1  0.4227440000000  0.5290170000000  0.5240150000000 1.0
C      1  0.4953020000000  0.5294310000000  0.4066890000000 1.0
C      1  0.5138570000000  0.4209570000000  0.4891510000000 1.0
C      1  0.5509160000000  0.4506390000000  0.5327390000000 1.0
C      1  0.5762560000000  0.5284560000000  0.5183420000000 1.0
C      1  0.5384100000000  0.5433620000000  0.4309560000000 1.0
C      1  0.4356330000000  0.5031700000000  0.4919330000000 1.0
C      1  0.4625580000000  0.4135960000000  0.5116470000000 1.0
C      1  0.5139350000000  0.5807970000000  0.4794240000000 1.0
C      1  0.4817220000000  0.5086470000000  0.4475290000000 1.0
C      1  0.5585720000000  0.5109260000000  0.4871840000000 1.0
C      1  0.4241230000000  0.4948420000000  0.4347100000000 1.0
C      1  0.4253620000000  0.5277470000000  0.5571630000000 1.0
C      1  0.5205110000000  0.5192020000000  0.4351650000000 1.0
C      1  0.4917140000000  0.5434830000000  0.4664030000000 1.0
C      1  0.5108300000000  0.4919680000000  0.4530830000000 1.0
C      1  0.4151100000000  0.4494790000000  0.4784940000000 1.0
C      1  0.5587220000000  0.4570180000000  0.4816860000000 1.0
C      1  0.5207500000000  0.4603180000000  0.5568790000000 1.0
C      1  0.5196380000000  0.5307860000000  0.4639280000000 1.0
C      1  0.5531430000000  0.4596980000000  0.5654450000000 1.0
C      1  0.5360840000000  0.4229100000000  0.4688020000000 1.0
C      1  0.4931900000000  0.5610380000000  0.4954830000000 1.0
C      1  0.5804080000000  0.4559620000000  0.5059040000000 1.0
C      1  0.5595950000000  0.5683980000000  0.5151010000000 1.0
C      1  0.4787180000000  0.4211410000000  0.4443260000000 1.0
C      1  0.4681780000000  0.4415490000000  0.4930840000000 1.0
C      1  0.5115900000000  0.5607670000000  0.5210280000000 1.0
C      1  0.4938340000000  0.4662820000000  0.4596820000000 1.0
C      1  0.4712760000000  0.4743870000000  0.5949800000000 1.0
C      1  0.4748350000000  0.5911350000000  0.5143040000000 1.0
C      1  0.5048360000000  0.4976140000000  0.4140740000000 1.0
C      1  0.4332090000000  0.4778690000000  0.5600670000000 1.0
C      1  0.5384040000000  0.4927860000000  0.4048250000000 1.0
C      1  0.5122570000000  0.4977840000000  0.5376000000000 1.0
C      1  0.5396540000000  0.4197330000000  0.5300660000000 1.0
C      1  0.6088500000000  0.4992840000000  0.4811570000000 1.0
C      1  0.5195940000000  0.6061640000000  0.5240590000000 1.0
C      1  0.4495560000000  0.4582560000000  0.5743680000000 1.0
C      1  0.5027180000000  0.4504550000000  0.5983700000000 1.0
C      1  0.5433080000000  0.5311380000000  0.5264030000000 1.0
C      1  0.4699240000000  0.5158870000000  0.4205960000000 1.0
C      1  0.4320920000000  0.5205130000000  0.4324050000000 1.0
C      1  0.5602330000000  0.4166220000000  0.4809890000000 1.0
C      1  0.5042390000000  0.5758190000000  0.4472080000000 1.0
C      1  0.4791400000000  0.5428170000000  0.5359010000000 1.0
C      1  0.4107270000000  0.4812240000000  0.4873060000000 1.0
C      1  0.4136160000000  0.4993880000000  0.5160890000000 1.0
C      1  0.4399620000000  0.4733310000000  0.4455390000000 1.0
C      1  0.4818560000000  0.4996740000000  0.5481840000000 1.0
C      1  0.5005100000000  0.4500150000000  0.4864280000000 1.0
C      1  0.5594550000000  0.5363770000000  0.4495180000000 1.0
C      1  0.4584350000000  0.5066000000000  0.4699520000000 1.0
C      1  0.5145690000000  0.5363800000000  0.5702950000000 1.0
C      1  0.4747490000000  0.5667980000000  0.5675920000000 1.0
C      1  0.5295810000000  0.4418670000000  0.4413210000000 1.0
C      1  0.4723160000000  0.4867030000000  0.4099080000000 1.0
C      1  0.4737460000000  0.4440980000000  0.5536890000000 1.0
C      1  0.4740850000000  0.4789980000000  0.4796550000000 1.0
C      1  0.5839680000000  0.5546480000000  0.5133240000000 1.0
C      1  0.5430970000000  0.5039610000000  0.5465290000000 1.0
END
