TITL C-2848502-4955-341 -0.0012396942299537 125000 -326.073280700767 0 0 61 (C1) n - 1
REM
REM in /home/bkarasulu/work/CARBON/AIRSS/Generating-Clusters/AIREBO/with-SteepDescent/Only-C1/SD-CG-opt/Try1-1.4A-POS3A/HFTN-CG
REM
REM
REM
REM
REM
REM ./C.cell (11c1c37f851c82e70ff6c80c92926a4b)
REM
REM compiler GCC version 9.2.1 20190827 (Red Hat 9.2.1-1)
REM options -cpp -mtune=generic -march=x86-64 -g -O0 -fpre-include=/usr/include/finclude/math-vector-fortran.h
REM seed 1758136948 1836024386 -530219841 1016166732 1755183499 -111494956 -1993193720 -669761340 1076031763 584595567 1182700042 374790224 1867135488 1305097352 1374842132 244031007 -754533004 1651056402 -1648603085 929983088 1768086700 244953147 -1903822546 -468862884 1950795746 1304349129 1778500967 -1217249335 1533123063 884589190 -1363373064 931369692 53887565
REM
CELL 1.54180   50.00000   50.00000   50.00000   90.00000   90.00000   90.00000
LATT -1
SFAC C  
C      1  0.5220760000000  0.4815460000000  0.5071950000000 1.0
C      1  0.4516160000000  0.5165720000000  0.5261940000000 1.0
C      1  0.4605380000000  0.4542850000000  0.4898500000000 1.0
C      1  0.4415640000000  0.5036590000000  0.5638770000000 1.0
C      1  0.5074020000000  0.4316030000000  0.5283670000000 1.0
C      1  0.5570430000000  0.5054330000000  0.4447990000000 1.0
C      1  0.4417380000000  0.5647290000000  0.5159940000000 1.0
C      1  0.5125890000000  0.4355870000000  0.4443040000000 1.0
C      1  0.5375570000000  0.5571420000000  0.4742540000000 1.0
C      1  0.4200980000000  0.5144940000000  0.5136060000000 1.0
C      1  0.5319490000000  0.5125300000000  0.5568400000000 1.0
C      1  0.5235590000000  0.4862020000000  0.4551130000000 1.0
C      1  0.4728280000000  0.4687500000000  0.5408420000000 1.0
C      1  0.4633950000000  0.5562150000000  0.4912050000000 1.0
C      1  0.5000390000000  0.5288490000000  0.4476910000000 1.0
C      1  0.4423020000000  0.5525770000000  0.5407660000000 1.0
C      1  0.5505770000000  0.4871960000000  0.5438960000000 1.0
C      1  0.5401830000000  0.4882310000000  0.4263140000000 1.0
C      1  0.5247780000000  0.4736100000000  0.5618260000000 1.0
C      1  0.4725980000000  0.5129830000000  0.4428840000000 1.0
C      1  0.5713850000000  0.4624640000000  0.5030300000000 1.0
C      1  0.5003410000000  0.5053720000000  0.5671270000000 1.0
C      1  0.4802460000000  0.5227080000000  0.5373590000000 1.0
C      1  0.4855390000000  0.5707910000000  0.5514790000000 1.0
C      1  0.4967130000000  0.4621730000000  0.5175540000000 1.0
C      1  0.5307630000000  0.5298450000000  0.5292020000000 1.0
C      1  0.5185120000000  0.5133970000000  0.4657980000000 1.0
C      1  0.5011050000000  0.5286730000000  0.5157200000000 1.0
C      1  0.4683910000000  0.5487540000000  0.5506150000000 1.0
C      1  0.4852080000000  0.4555080000000  0.4441840000000 1.0
C      1  0.4685760000000  0.4800910000000  0.4477830000000 1.0
C      1  0.5023800000000  0.5055660000000  0.4932970000000 1.0
C      1  0.4954060000000  0.5786140000000  0.5271240000000 1.0
C      1  0.4934210000000  0.5573650000000  0.5036530000000 1.0
C      1  0.5459600000000  0.5288230000000  0.4708210000000 1.0
C      1  0.5362200000000  0.4328310000000  0.5196330000000 1.0
C      1  0.5222560000000  0.4401560000000  0.4742570000000 1.0
C      1  0.4601160000000  0.4468120000000  0.5194880000000 1.0
C      1  0.4941020000000  0.5556120000000  0.4523120000000 1.0
C      1  0.5631320000000  0.4719220000000  0.4786780000000 1.0
C      1  0.5148520000000  0.4658370000000  0.4306220000000 1.0
C      1  0.5399660000000  0.5096600000000  0.5052580000000 1.0
C      1  0.4533320000000  0.5385950000000  0.4458700000000 1.0
C      1  0.5326380000000  0.4687630000000  0.4775000000000 1.0
C      1  0.5117440000000  0.4933240000000  0.5373740000000 1.0
C      1  0.5013890000000  0.4547610000000  0.5512150000000 1.0
C      1  0.4707710000000  0.4955280000000  0.5541750000000 1.0
C      1  0.4666300000000  0.5584130000000  0.4611200000000 1.0
C      1  0.4882990000000  0.4414240000000  0.4754620000000 1.0
C      1  0.4831920000000  0.4268650000000  0.5059040000000 1.0
C      1  0.4461020000000  0.5301260000000  0.4965930000000 1.0
C      1  0.5164840000000  0.5660990000000  0.4842080000000 1.0
C      1  0.4335170000000  0.5002140000000  0.4862590000000 1.0
C      1  0.4252030000000  0.5256340000000  0.5453630000000 1.0
C      1  0.4539920000000  0.4808660000000  0.4783200000000 1.0
C      1  0.5688290000000  0.5181670000000  0.4936400000000 1.0
C      1  0.5462810000000  0.4628720000000  0.5221280000000 1.0
C      1  0.5380770000000  0.4225810000000  0.4937010000000 1.0
C      1  0.5704130000000  0.4972350000000  0.4695780000000 1.0
C      1  0.5630670000000  0.5146850000000  0.5277370000000 1.0
C      1  0.4810200000000  0.4986800000000  0.4730400000000 1.0
END
