TITL C-2847946-5639-672 0.000936785509748259 125000 -363.302879921432 0 0 64 (C1) n - 1
REM
REM in /home/bkarasulu/work/CARBON/AIRSS/Generating-Clusters/AIREBO/with-SteepDescent/Only-C1/SD-CG-opt/Try1-1.4A-POS3A/HFTN-CG
REM
REM
REM
REM
REM
REM ./C.cell (11c1c37f851c82e70ff6c80c92926a4b)
REM
REM compiler GCC version 9.2.1 20190827 (Red Hat 9.2.1-1)
REM options -cpp -mtune=generic -march=x86-64 -g -O0 -fpre-include=/usr/include/finclude/math-vector-fortran.h
REM seed -1256267460 208220935 241353917 -848113485 4309265 -1805870344 1546998109 -1291462585 -709001288 422963041 127843884 -1629786528 -1745058386 494425180 -1265535507 1567570690 816605766 1255926984 1949822816 2092754726 -1873613529 1298926504 -1270236916 -986864731 -727508640 324045683 -1868713879 919256037 -1791039334 2135988842 2147420360 -1127134767 -808160438
REM
CELL 1.54180   50.00000   50.00000   50.00000   90.00000   90.00000   90.00000
LATT -1
SFAC C  
C      1  0.4341960000000  0.5031300000000  0.4984050000000 1.0
C      1  0.4248360000000  0.5308470000000  0.5002410000000 1.0
C      1  0.4722710000000  0.5107190000000  0.4709940000000 1.0
C      1  0.4327700000000  0.5501320000000  0.4733430000000 1.0
C      1  0.5190020000000  0.4805690000000  0.4469980000000 1.0
C      1  0.4446710000000  0.4698540000000  0.4609700000000 1.0
C      1  0.5136390000000  0.5318970000000  0.4487480000000 1.0
C      1  0.5030750000000  0.4717690000000  0.4686860000000 1.0
C      1  0.4909990000000  0.5277230000000  0.5613260000000 1.0
C      1  0.4872360000000  0.5318860000000  0.4905720000000 1.0
C      1  0.5241260000000  0.4902340000000  0.5634490000000 1.0
C      1  0.4775600000000  0.5344960000000  0.4490640000000 1.0
C      1  0.4696200000000  0.5053220000000  0.5470170000000 1.0
C      1  0.4802240000000  0.4856350000000  0.5131980000000 1.0
C      1  0.5482720000000  0.5500640000000  0.5341980000000 1.0
C      1  0.4784060000000  0.5464280000000  0.5817590000000 1.0
C      1  0.5010990000000  0.4423030000000  0.4792740000000 1.0
C      1  0.4991220000000  0.4766200000000  0.5354740000000 1.0
C      1  0.4415390000000  0.5464880000000  0.5244330000000 1.0
C      1  0.4268060000000  0.4653180000000  0.4412270000000 1.0
C      1  0.5146830000000  0.5713620000000  0.5312900000000 1.0
C      1  0.5176660000000  0.5014050000000  0.4999140000000 1.0
C      1  0.5293650000000  0.4306790000000  0.4666890000000 1.0
C      1  0.4281760000000  0.5649100000000  0.5016160000000 1.0
C      1  0.5593180000000  0.5740450000000  0.5413060000000 1.0
C      1  0.5610810000000  0.5287560000000  0.5194700000000 1.0
C      1  0.5257790000000  0.4622540000000  0.4018430000000 1.0
C      1  0.5609400000000  0.5242110000000  0.4919340000000 1.0
C      1  0.5523540000000  0.4414400000000  0.4759560000000 1.0
C      1  0.5186090000000  0.4510040000000  0.5289660000000 1.0
C      1  0.4763730000000  0.4795790000000  0.5681190000000 1.0
C      1  0.5162830000000  0.4182600000000  0.5378360000000 1.0
C      1  0.4464070000000  0.4955500000000  0.4736520000000 1.0
C      1  0.4484720000000  0.5456630000000  0.4527280000000 1.0
C      1  0.4638700000000  0.5345860000000  0.5329250000000 1.0
C      1  0.5042450000000  0.5475400000000  0.4758520000000 1.0
C      1  0.5104840000000  0.5059950000000  0.5293660000000 1.0
C      1  0.4924130000000  0.4926200000000  0.4857760000000 1.0
C      1  0.4498310000000  0.4598980000000  0.5147190000000 1.0
C      1  0.4822000000000  0.4338210000000  0.4522150000000 1.0
C      1  0.5629460000000  0.4757670000000  0.5418030000000 1.0
C      1  0.5172990000000  0.5417510000000  0.5456060000000 1.0
C      1  0.5641020000000  0.5041010000000  0.5363810000000 1.0
C      1  0.4875160000000  0.5259160000000  0.5178050000000 1.0
C      1  0.5616720000000  0.5246520000000  0.4616200000000 1.0
C      1  0.5422880000000  0.4978840000000  0.4830880000000 1.0
C      1  0.5119250000000  0.4356420000000  0.4415640000000 1.0
C      1  0.4658330000000  0.4460090000000  0.4976840000000 1.0
C      1  0.5328350000000  0.5092330000000  0.4522460000000 1.0
C      1  0.5199230000000  0.4601950000000  0.4278790000000 1.0
C      1  0.5792680000000  0.4503680000000  0.4911730000000 1.0
C      1  0.5363780000000  0.4675460000000  0.5502920000000 1.0
C      1  0.4850800000000  0.4543900000000  0.5553570000000 1.0
C      1  0.4942110000000  0.4360430000000  0.5098290000000 1.0
C      1  0.4992530000000  0.4980750000000  0.5724950000000 1.0
C      1  0.5081230000000  0.5761620000000  0.4808380000000 1.0
C      1  0.4971570000000  0.5587000000000  0.4381570000000 1.0
C      1  0.5023870000000  0.5815420000000  0.4523770000000 1.0
C      1  0.5577670000000  0.4728180000000  0.4822150000000 1.0
C      1  0.4623580000000  0.4486860000000  0.4699180000000 1.0
C      1  0.4877400000000  0.4298400000000  0.5426270000000 1.0
C      1  0.4501420000000  0.4919870000000  0.5224540000000 1.0
C      1  0.5363400000000  0.5144470000000  0.5474380000000 1.0
C      1  0.5094420000000  0.5832350000000  0.5076040000000 1.0
END
