TITL C-2847956-8218-521 0.000175489367235171 125000 -327.096546013077 0 0 58 (C1) n - 1
REM
REM in /home/bkarasulu/work/CARBON/AIRSS/Generating-Clusters/AIREBO/with-SteepDescent/Only-C1/SD-CG-opt/Try1-1.4A-POS3A/HFTN-CG
REM
REM
REM
REM
REM
REM ./C.cell (11c1c37f851c82e70ff6c80c92926a4b)
REM
REM compiler GCC version 9.2.1 20190827 (Red Hat 9.2.1-1)
REM options -cpp -mtune=generic -march=x86-64 -g -O0 -fpre-include=/usr/include/finclude/math-vector-fortran.h
REM seed -157100347 1417883760 1602413634 1524848713 870724823 814762448 1855913184 620874167 -133010663 1103329726 118221056 262493944 827912944 1069488587 -1154162584 2074727808 -625281504 17055512 1627297327 555706985 280691247 -106394673 618267699 -1687821296 335779221 -625494935 1673349523 1250054579 -2100968041 -1952538929 -872203639 -1914569529 -443592109
REM
CELL 1.54180   50.00000   50.00000   50.00000   90.00000   90.00000   90.00000
LATT -1
SFAC C  
C      1  0.5638350000000  0.4919000000000  0.5858470000000 1.0
C      1  0.5111550000000  0.4981020000000  0.5641970000000 1.0
C      1  0.5112600000000  0.5695060000000  0.5463730000000 1.0
C      1  0.5365670000000  0.5239830000000  0.5474830000000 1.0
C      1  0.4392200000000  0.4743990000000  0.5083990000000 1.0
C      1  0.5213450000000  0.5286310000000  0.5751620000000 1.0
C      1  0.4881050000000  0.5354930000000  0.5202330000000 1.0
C      1  0.5376580000000  0.4709250000000  0.4470830000000 1.0
C      1  0.5047520000000  0.4400370000000  0.4635330000000 1.0
C      1  0.5005390000000  0.4688150000000  0.5584740000000 1.0
C      1  0.5290910000000  0.4305300000000  0.5329770000000 1.0
C      1  0.4574820000000  0.5457560000000  0.5155500000000 1.0
C      1  0.5259730000000  0.5232900000000  0.4657980000000 1.0
C      1  0.5368170000000  0.5043120000000  0.4483790000000 1.0
C      1  0.5794420000000  0.5353380000000  0.4856750000000 1.0
C      1  0.4374800000000  0.5030210000000  0.4505170000000 1.0
C      1  0.4892820000000  0.4823020000000  0.5227620000000 1.0
C      1  0.5838910000000  0.4668110000000  0.4994570000000 1.0
C      1  0.4237310000000  0.4763360000000  0.4113910000000 1.0
C      1  0.5325430000000  0.5535580000000  0.4683620000000 1.0
C      1  0.5278890000000  0.4448940000000  0.4469480000000 1.0
C      1  0.4889220000000  0.4498460000000  0.5128210000000 1.0
C      1  0.4137030000000  0.4742780000000  0.3872630000000 1.0
C      1  0.5196310000000  0.5101870000000  0.4916520000000 1.0
C      1  0.4365840000000  0.4792740000000  0.4355590000000 1.0
C      1  0.5250100000000  0.5681880000000  0.4452670000000 1.0
C      1  0.5066330000000  0.4344150000000  0.4912150000000 1.0
C      1  0.5707240000000  0.5144540000000  0.5020680000000 1.0
C      1  0.4512110000000  0.4589990000000  0.4484980000000 1.0
C      1  0.4552120000000  0.4996860000000  0.5446280000000 1.0
C      1  0.4875920000000  0.5098730000000  0.5425960000000 1.0
C      1  0.4581560000000  0.5501550000000  0.5474500000000 1.0
C      1  0.4524660000000  0.4627570000000  0.4806440000000 1.0
C      1  0.5636860000000  0.5535470000000  0.4729740000000 1.0
C      1  0.4405620000000  0.4993530000000  0.5205990000000 1.0
C      1  0.4502980000000  0.5933170000000  0.4871160000000 1.0
C      1  0.5089900000000  0.4498690000000  0.5396830000000 1.0
C      1  0.5179130000000  0.5650410000000  0.4943150000000 1.0
C      1  0.4578850000000  0.5017070000000  0.4744890000000 1.0
C      1  0.4717520000000  0.4745920000000  0.5523180000000 1.0
C      1  0.5356590000000  0.4821410000000  0.4938750000000 1.0
C      1  0.5269790000000  0.4210230000000  0.5065150000000 1.0
C      1  0.5539970000000  0.5210930000000  0.5222140000000 1.0
C      1  0.4586490000000  0.4478270000000  0.5088390000000 1.0
C      1  0.4801110000000  0.4812690000000  0.4734340000000 1.0
C      1  0.4818880000000  0.4542940000000  0.4554350000000 1.0
C      1  0.5664990000000  0.4865940000000  0.4901810000000 1.0
C      1  0.5015940000000  0.4835380000000  0.4939420000000 1.0
C      1  0.5616340000000  0.4873230000000  0.4596820000000 1.0
C      1  0.4391520000000  0.5236580000000  0.5061910000000 1.0
C      1  0.4786280000000  0.5374810000000  0.5603080000000 1.0
C      1  0.5074640000000  0.5616350000000  0.5189260000000 1.0
C      1  0.5029060000000  0.5508540000000  0.5665080000000 1.0
C      1  0.5412230000000  0.5013340000000  0.5794530000000 1.0
C      1  0.5398910000000  0.4247340000000  0.4336760000000 1.0
C      1  0.5199190000000  0.5239150000000  0.5184350000000 1.0
C      1  0.4548260000000  0.5715000000000  0.4995650000000 1.0
C      1  0.4339960000000  0.5223090000000  0.4770690000000 1.0
END
