TITL C-2848508-1660-568 5.26058585735966e-05 125000 -545.046794953633 0 0 101 (C1) n - 1
REM
REM in /home/bkarasulu/work/CARBON/AIRSS/Generating-Clusters/AIREBO/with-SteepDescent/Only-C1/SD-CG-opt/Try1-1.4A-POS3A/HFTN-CG
REM
REM
REM
REM
REM
REM ./C.cell (11c1c37f851c82e70ff6c80c92926a4b)
REM
REM compiler GCC version 9.2.1 20190827 (Red Hat 9.2.1-1)
REM options -cpp -mtune=generic -march=x86-64 -g -O0 -fpre-include=/usr/include/finclude/math-vector-fortran.h
REM seed 1083525678 -1872673780 -966585981 -240789460 1085439058 1424979306 153852541 345824352 244027997 -655417797 -695441582 -1387830 -1833818116 1002226824 1817267289 -1488424807 -1568979258 1926378374 -1310024321 1654863702 667020242 576812293 343772346 1841455187 870638412 1254415633 -1867081276 1561824206 285221394 -932538512 -1642188861 760103515 2072598072
REM
CELL 1.54180   50.00000   50.00000   50.00000   90.00000   90.00000   90.00000
LATT -1
SFAC C  
C      1  0.5390230000000  0.4289730000000  0.4536800000000 1.0
C      1  0.5311030000000  0.5150020000000  0.5923480000000 1.0
C      1  0.5383190000000  0.4603050000000  0.4435080000000 1.0
C      1  0.5345950000000  0.5830970000000  0.4778740000000 1.0
C      1  0.5555340000000  0.4233560000000  0.4771840000000 1.0
C      1  0.4918090000000  0.5500850000000  0.5806220000000 1.0
C      1  0.5735960000000  0.5672820000000  0.4969690000000 1.0
C      1  0.4685880000000  0.4793540000000  0.5627470000000 1.0
C      1  0.5421100000000  0.4933270000000  0.5710470000000 1.0
C      1  0.4996680000000  0.5175300000000  0.5866340000000 1.0
C      1  0.4378110000000  0.5492860000000  0.5228930000000 1.0
C      1  0.5388580000000  0.4711410000000  0.5459130000000 1.0
C      1  0.4668000000000  0.4204350000000  0.4866110000000 1.0
C      1  0.5298090000000  0.4790790000000  0.4208550000000 1.0
C      1  0.4590320000000  0.4517280000000  0.4485030000000 1.0
C      1  0.4771830000000  0.5038610000000  0.5436250000000 1.0
C      1  0.5111390000000  0.4454740000000  0.4581630000000 1.0
C      1  0.5021680000000  0.5659710000000  0.4293260000000 1.0
C      1  0.4510260000000  0.4999930000000  0.5832940000000 1.0
C      1  0.5357820000000  0.5633730000000  0.5657310000000 1.0
C      1  0.4802400000000  0.4679540000000  0.4274570000000 1.0
C      1  0.4512370000000  0.5554840000000  0.4696040000000 1.0
C      1  0.4831690000000  0.5539650000000  0.4140540000000 1.0
C      1  0.5048050000000  0.5663200000000  0.5615410000000 1.0
C      1  0.4818550000000  0.4291320000000  0.4590970000000 1.0
C      1  0.4180610000000  0.4808660000000  0.4985940000000 1.0
C      1  0.5386580000000  0.5009230000000  0.4742200000000 1.0
C      1  0.4498020000000  0.5239980000000  0.5422210000000 1.0
C      1  0.4965390000000  0.4685340000000  0.4742520000000 1.0
C      1  0.5011320000000  0.5186420000000  0.4451660000000 1.0
C      1  0.5497550000000  0.4556200000000  0.4815120000000 1.0
C      1  0.4878090000000  0.4858310000000  0.5900550000000 1.0
C      1  0.5850730000000  0.4986960000000  0.4697240000000 1.0
C      1  0.5278750000000  0.5370910000000  0.5473260000000 1.0
C      1  0.5544060000000  0.5868770000000  0.4981140000000 1.0
C      1  0.4780230000000  0.5452020000000  0.4849300000000 1.0
C      1  0.5534650000000  0.4472290000000  0.5358400000000 1.0
C      1  0.4460280000000  0.4636450000000  0.5026100000000 1.0
C      1  0.5116730000000  0.4407460000000  0.5174300000000 1.0
C      1  0.5336390000000  0.4276930000000  0.5297410000000 1.0
C      1  0.5222940000000  0.5134580000000  0.5278000000000 1.0
C      1  0.4794600000000  0.5239050000000  0.4207530000000 1.0
C      1  0.4907540000000  0.4863310000000  0.5195300000000 1.0
C      1  0.5246060000000  0.4829770000000  0.5196590000000 1.0
C      1  0.4246970000000  0.5027450000000  0.5386030000000 1.0
C      1  0.5057070000000  0.5504560000000  0.4566710000000 1.0
C      1  0.5710230000000  0.5193680000000  0.4275120000000 1.0
C      1  0.4505560000000  0.4940250000000  0.4565060000000 1.0
C      1  0.4551020000000  0.5157050000000  0.5102220000000 1.0
C      1  0.4680480000000  0.5285520000000  0.5925980000000 1.0
C      1  0.5898070000000  0.4995200000000  0.4963490000000 1.0
C      1  0.4878190000000  0.5034350000000  0.4911830000000 1.0
C      1  0.5201650000000  0.4672350000000  0.5712970000000 1.0
C      1  0.5666720000000  0.4724200000000  0.4585730000000 1.0
C      1  0.4555560000000  0.4325480000000  0.5085750000000 1.0
C      1  0.5028660000000  0.4917940000000  0.4241340000000 1.0
C      1  0.4815470000000  0.5472690000000  0.5187350000000 1.0
C      1  0.5522720000000  0.4985590000000  0.4471210000000 1.0
C      1  0.5475730000000  0.5678770000000  0.4563960000000 1.0
C      1  0.5110130000000  0.5369750000000  0.4851740000000 1.0
C      1  0.5020320000000  0.5175540000000  0.5538860000000 1.0
C      1  0.4521890000000  0.4283700000000  0.5393250000000 1.0
C      1  0.5695150000000  0.4593290000000  0.5164170000000 1.0
C      1  0.4997310000000  0.5243300000000  0.5110260000000 1.0
C      1  0.4202160000000  0.5338370000000  0.5033200000000 1.0
C      1  0.4860870000000  0.5010480000000  0.3964700000000 1.0
C      1  0.4809900000000  0.4599960000000  0.6010340000000 1.0
C      1  0.4587120000000  0.5708580000000  0.5142320000000 1.0
C      1  0.4425260000000  0.5299330000000  0.5723490000000 1.0
C      1  0.4155910000000  0.5059230000000  0.5123790000000 1.0
C      1  0.5650220000000  0.5358540000000  0.5014860000000 1.0
C      1  0.5389810000000  0.5286450000000  0.4860220000000 1.0
C      1  0.4939220000000  0.4566770000000  0.5634160000000 1.0
C      1  0.5322650000000  0.5681680000000  0.4326140000000 1.0
C      1  0.5576190000000  0.5108640000000  0.5463490000000 1.0
C      1  0.4884370000000  0.4373410000000  0.4266970000000 1.0
C      1  0.4645490000000  0.4697100000000  0.4759360000000 1.0
C      1  0.4601410000000  0.5173360000000  0.4771420000000 1.0
C      1  0.5083070000000  0.4978920000000  0.4681760000000 1.0
C      1  0.4545040000000  0.5038740000000  0.3969670000000 1.0
C      1  0.4889470000000  0.5823130000000  0.5026040000000 1.0
C      1  0.5063390000000  0.5758330000000  0.4794280000000 1.0
C      1  0.4967950000000  0.5728870000000  0.5343590000000 1.0
C      1  0.4310520000000  0.5356980000000  0.4771110000000 1.0
C      1  0.4057130000000  0.4787220000000  0.4737070000000 1.0
C      1  0.4894420000000  0.4563070000000  0.5313480000000 1.0
C      1  0.5525710000000  0.4840460000000  0.5003310000000 1.0
C      1  0.4225260000000  0.4797330000000  0.4515750000000 1.0
C      1  0.4561710000000  0.4619280000000  0.5355810000000 1.0
C      1  0.5674350000000  0.5086640000000  0.5184990000000 1.0
C      1  0.4298470000000  0.4554330000000  0.4397810000000 1.0
C      1  0.5826150000000  0.5232260000000  0.4548260000000 1.0
C      1  0.4595410000000  0.4202590000000  0.5653550000000 1.0
C      1  0.5203110000000  0.4604130000000  0.4945840000000 1.0
C      1  0.4758820000000  0.4368770000000  0.5811740000000 1.0
C      1  0.5520290000000  0.4984140000000  0.4131210000000 1.0
C      1  0.4633200000000  0.4952540000000  0.4287470000000 1.0
C      1  0.5349250000000  0.4016410000000  0.5359040000000 1.0
C      1  0.4281390000000  0.4772410000000  0.5472160000000 1.0
C      1  0.5706560000000  0.5467650000000  0.4697790000000 1.0
C      1  0.5496750000000  0.5325520000000  0.5713230000000 1.0
END
