TITL C-2847944-5688-248 -0.000476257490802277 125000 -845.258028267429 0 0 153 (C1) n - 1
REM
REM in /home/bkarasulu/work/CARBON/AIRSS/Generating-Clusters/AIREBO/with-SteepDescent/Only-C1/SD-CG-opt/Try1-1.4A-POS3A/HFTN-CG
REM
REM
REM
REM
REM
REM ./C.cell (11c1c37f851c82e70ff6c80c92926a4b)
REM
REM compiler GCC version 9.2.1 20190827 (Red Hat 9.2.1-1)
REM options -cpp -mtune=generic -march=x86-64 -g -O0 -fpre-include=/usr/include/finclude/math-vector-fortran.h
REM seed 466467439 590218928 -2046083921 -1070157760 317271633 -1428571721 -471717475 714413009 286485053 -1021702455 483427654 2012850634 -1176111078 -1135006707 -1600028651 -1312962983 -1116343748 -1984525877 1157948798 1255608944 509985702 1939672540 549774628 -765682565 -1060852464 34041275 -216578246 -1167942281 1616737705 368303916 167405603 1050054263 -200106013
REM
CELL 1.54180   50.00000   50.00000   50.00000   90.00000   90.00000   90.00000
LATT -1
SFAC C  
C      1  0.4624800000000  0.4898020000000  0.4388660000000 1.0
C      1  0.4905900000000  0.4763900000000  0.4246880000000 1.0
C      1  0.4515770000000  0.5559600000000  0.4900760000000 1.0
C      1  0.4589350000000  0.5878670000000  0.4992330000000 1.0
C      1  0.4675770000000  0.5311980000000  0.4073590000000 1.0
C      1  0.4162100000000  0.4931370000000  0.5671620000000 1.0
C      1  0.5910120000000  0.5151240000000  0.4670480000000 1.0
C      1  0.5303360000000  0.5927640000000  0.4504510000000 1.0
C      1  0.4810020000000  0.4721510000000  0.5784330000000 1.0
C      1  0.4429850000000  0.5106260000000  0.5684140000000 1.0
C      1  0.5746840000000  0.5556220000000  0.5037120000000 1.0
C      1  0.5466020000000  0.4718770000000  0.4876420000000 1.0
C      1  0.5878200000000  0.5309740000000  0.5472480000000 1.0
C      1  0.4571890000000  0.4657910000000  0.5348200000000 1.0
C      1  0.5862850000000  0.4531920000000  0.5219700000000 1.0
C      1  0.4876810000000  0.5270500000000  0.4685620000000 1.0
C      1  0.4494220000000  0.5044780000000  0.4113310000000 1.0
C      1  0.5967790000000  0.4650290000000  0.4730950000000 1.0
C      1  0.4514510000000  0.5393530000000  0.4350630000000 1.0
C      1  0.5774390000000  0.5716100000000  0.4738120000000 1.0
C      1  0.4596460000000  0.4541670000000  0.4903800000000 1.0
C      1  0.5580570000000  0.4251390000000  0.4502600000000 1.0
C      1  0.4034280000000  0.5491290000000  0.4880890000000 1.0
C      1  0.5325280000000  0.4367250000000  0.5232180000000 1.0
C      1  0.4637020000000  0.4942650000000  0.5898500000000 1.0
C      1  0.4858100000000  0.5740700000000  0.4540980000000 1.0
C      1  0.5332280000000  0.5446370000000  0.5943940000000 1.0
C      1  0.4239750000000  0.4654020000000  0.5272190000000 1.0
C      1  0.5620770000000  0.4916530000000  0.4475550000000 1.0
C      1  0.5334310000000  0.5208210000000  0.5388700000000 1.0
C      1  0.5916130000000  0.4947140000000  0.4330330000000 1.0
C      1  0.5039680000000  0.5077620000000  0.4912780000000 1.0
C      1  0.5624230000000  0.4872660000000  0.5901730000000 1.0
C      1  0.4795600000000  0.5146460000000  0.5114680000000 1.0
C      1  0.5462510000000  0.5741120000000  0.4984560000000 1.0
C      1  0.4245300000000  0.4997350000000  0.4323530000000 1.0
C      1  0.4977470000000  0.5258950000000  0.4141700000000 1.0
C      1  0.5259850000000  0.4067970000000  0.5489130000000 1.0
C      1  0.5193570000000  0.4810760000000  0.5024710000000 1.0
C      1  0.4094900000000  0.5218620000000  0.4423450000000 1.0
C      1  0.4488530000000  0.5056400000000  0.5352910000000 1.0
C      1  0.4780050000000  0.4897630000000  0.5426860000000 1.0
C      1  0.6217730000000  0.4609620000000  0.4906350000000 1.0
C      1  0.5085060000000  0.6083420000000  0.5153210000000 1.0
C      1  0.4726970000000  0.5106400000000  0.6097160000000 1.0
C      1  0.5023820000000  0.4703460000000  0.5520100000000 1.0
C      1  0.4828560000000  0.5917240000000  0.5217540000000 1.0
C      1  0.4414190000000  0.4250080000000  0.5307810000000 1.0
C      1  0.4739950000000  0.5598090000000  0.4257690000000 1.0
C      1  0.4008940000000  0.5042770000000  0.5457530000000 1.0
C      1  0.4183470000000  0.4653520000000  0.5672660000000 1.0
C      1  0.4292980000000  0.4311040000000  0.5067320000000 1.0
C      1  0.5793520000000  0.5262350000000  0.4368790000000 1.0
C      1  0.4923390000000  0.3950010000000  0.4691520000000 1.0
C      1  0.4970120000000  0.4363130000000  0.5717100000000 1.0
C      1  0.3950080000000  0.4771170000000  0.4717900000000 1.0
C      1  0.5247800000000  0.5469050000000  0.4085410000000 1.0
C      1  0.5121140000000  0.5208560000000  0.5823520000000 1.0
C      1  0.5193900000000  0.4611590000000  0.5786690000000 1.0
C      1  0.5108880000000  0.4531400000000  0.4889710000000 1.0
C      1  0.4329110000000  0.5764540000000  0.5188190000000 1.0
C      1  0.4862810000000  0.4476600000000  0.6020570000000 1.0
C      1  0.5499830000000  0.4274230000000  0.5508780000000 1.0
C      1  0.4722890000000  0.4519380000000  0.5134980000000 1.0
C      1  0.5237580000000  0.4681700000000  0.5310290000000 1.0
C      1  0.5094570000000  0.5237620000000  0.4453010000000 1.0
C      1  0.4673720000000  0.4138680000000  0.4748980000000 1.0
C      1  0.4422470000000  0.5757620000000  0.5502580000000 1.0
C      1  0.4128030000000  0.5225450000000  0.4734160000000 1.0
C      1  0.4937660000000  0.5622060000000  0.5118220000000 1.0
C      1  0.5708390000000  0.4271080000000  0.5276940000000 1.0
C      1  0.4456540000000  0.4713960000000  0.4078110000000 1.0
C      1  0.4123840000000  0.5499030000000  0.5147680000000 1.0
C      1  0.5471310000000  0.5689500000000  0.4328290000000 1.0
C      1  0.3993660000000  0.4568970000000  0.4571620000000 1.0
C      1  0.5300490000000  0.5271480000000  0.4952950000000 1.0
C      1  0.4348400000000  0.4791370000000  0.4559680000000 1.0
C      1  0.4510670000000  0.5480310000000  0.5231520000000 1.0
C      1  0.5075130000000  0.4933450000000  0.4603910000000 1.0
C      1  0.5278010000000  0.4233490000000  0.4441240000000 1.0
C      1  0.4636630000000  0.5512000000000  0.5791900000000 1.0
C      1  0.5458770000000  0.4901730000000  0.5309530000000 1.0
C      1  0.4428710000000  0.4464100000000  0.5567690000000 1.0
C      1  0.5508730000000  0.5168970000000  0.5889660000000 1.0
C      1  0.4744790000000  0.5227070000000  0.5641090000000 1.0
C      1  0.4809770000000  0.5351270000000  0.6029190000000 1.0
C      1  0.5792590000000  0.4999770000000  0.5113160000000 1.0
C      1  0.4249580000000  0.5475140000000  0.4446310000000 1.0
C      1  0.6167120000000  0.4537070000000  0.5145930000000 1.0
C      1  0.5074460000000  0.4953140000000  0.4089750000000 1.0
C      1  0.5720560000000  0.4468670000000  0.4344650000000 1.0
C      1  0.5124240000000  0.5985990000000  0.4708240000000 1.0
C      1  0.4247710000000  0.5604540000000  0.4696270000000 1.0
C      1  0.5104680000000  0.4007360000000  0.4502000000000 1.0
C      1  0.4685970000000  0.4445320000000  0.4624800000000 1.0
C      1  0.4640200000000  0.4427400000000  0.5768310000000 1.0
C      1  0.5382900000000  0.5658870000000  0.5762440000000 1.0
C      1  0.4291040000000  0.4455740000000  0.4566630000000 1.0
C      1  0.5481970000000  0.4493730000000  0.5703360000000 1.0
C      1  0.5287610000000  0.4815400000000  0.3892300000000 1.0
C      1  0.4452440000000  0.5244280000000  0.4800740000000 1.0
C      1  0.4208390000000  0.5220750000000  0.5250990000000 1.0
C      1  0.4995750000000  0.4345240000000  0.5150920000000 1.0
C      1  0.5024740000000  0.4217390000000  0.5464780000000 1.0
C      1  0.5590020000000  0.5254890000000  0.5613840000000 1.0
C      1  0.4772620000000  0.5344580000000  0.5350460000000 1.0
C      1  0.4085480000000  0.4920070000000  0.5159280000000 1.0
C      1  0.5728050000000  0.4517900000000  0.4912750000000 1.0
C      1  0.5619390000000  0.5874460000000  0.4567630000000 1.0
C      1  0.5280910000000  0.4917410000000  0.5911010000000 1.0
C      1  0.5098450000000  0.4500590000000  0.4343180000000 1.0
C      1  0.5426270000000  0.4591110000000  0.4349350000000 1.0
C      1  0.5449860000000  0.4851060000000  0.4189000000000 1.0
C      1  0.5531640000000  0.5363920000000  0.4249520000000 1.0
C      1  0.4506920000000  0.5025950000000  0.5019370000000 1.0
C      1  0.4830890000000  0.5552620000000  0.4802600000000 1.0
C      1  0.4516240000000  0.4504390000000  0.4339920000000 1.0
C      1  0.5742980000000  0.4897880000000  0.4792440000000 1.0
C      1  0.5730400000000  0.5412120000000  0.4666620000000 1.0
C      1  0.5280550000000  0.5497610000000  0.4528850000000 1.0
C      1  0.5389540000000  0.5753060000000  0.5301640000000 1.0
C      1  0.4976440000000  0.5513440000000  0.5779870000000 1.0
C      1  0.4731830000000  0.4531600000000  0.4089280000000 1.0
C      1  0.4043510000000  0.4476390000000  0.5462870000000 1.0
C      1  0.4800930000000  0.5985240000000  0.4747400000000 1.0
C      1  0.5915930000000  0.4652570000000  0.4427100000000 1.0
C      1  0.5434520000000  0.5476490000000  0.4785070000000 1.0
C      1  0.5541330000000  0.4188090000000  0.5039640000000 1.0
C      1  0.5533770000000  0.5460170000000  0.5277210000000 1.0
C      1  0.4617410000000  0.5179810000000  0.4545030000000 1.0
C      1  0.5341120000000  0.4531870000000  0.4651690000000 1.0
C      1  0.5246700000000  0.5977610000000  0.4960880000000 1.0
C      1  0.4367110000000  0.4242730000000  0.4773710000000 1.0
C      1  0.4225720000000  0.4920820000000  0.4849340000000 1.0
C      1  0.4941790000000  0.5619180000000  0.5458400000000 1.0
C      1  0.4954660000000  0.4615520000000  0.4611910000000 1.0
C      1  0.5354220000000  0.5146340000000  0.4097130000000 1.0
C      1  0.4979600000000  0.3802890000000  0.4941300000000 1.0
C      1  0.4702420000000  0.5856550000000  0.5504400000000 1.0
C      1  0.5642680000000  0.4242720000000  0.4773900000000 1.0
C      1  0.5757110000000  0.4780930000000  0.5374090000000 1.0
C      1  0.5037110000000  0.5100860000000  0.5521530000000 1.0
C      1  0.4411660000000  0.5421610000000  0.5553530000000 1.0
C      1  0.4297450000000  0.4612870000000  0.4945580000000 1.0
C      1  0.5490620000000  0.5077640000000  0.5044710000000 1.0
C      1  0.5057480000000  0.5609800000000  0.4312110000000 1.0
C      1  0.5882900000000  0.5286920000000  0.5193950000000 1.0
C      1  0.5147710000000  0.5409470000000  0.5187930000000 1.0
C      1  0.5674720000000  0.4701650000000  0.5679960000000 1.0
C      1  0.5613650000000  0.5583030000000  0.5584070000000 1.0
C      1  0.4820410000000  0.4081410000000  0.5052890000000 1.0
C      1  0.5231270000000  0.5753690000000  0.5527680000000 1.0
C      1  0.4603880000000  0.4053390000000  0.5282480000000 1.0
END
