TITL C-2847950-6905-207 -0.00580593897631583 125000 -511.270860920668 0 0 92 (C1) n - 1
REM
REM in /home/bkarasulu/work/CARBON/AIRSS/Generating-Clusters/AIREBO/with-SteepDescent/Only-C1/SD-CG-opt/Try1-1.4A-POS3A/HFTN-CG
REM
REM
REM
REM
REM
REM ./C.cell (11c1c37f851c82e70ff6c80c92926a4b)
REM
REM compiler GCC version 9.2.1 20190827 (Red Hat 9.2.1-1)
REM options -cpp -mtune=generic -march=x86-64 -g -O0 -fpre-include=/usr/include/finclude/math-vector-fortran.h
REM seed 488551039 -828138387 -1676986996 -1425166379 296633515 1849390266 984317414 116295650 790061208 1128744853 847221374 -1038253890 488736160 1341295018 -1534016979 -1510356691 808068420 -1327113040 1680380543 757697583 1244795016 -710951988 1142633861 1043291933 -1538157874 -1220895971 -1659412542 -597714716 1253536476 23652292 -1021148833 -1540959677 -819602023
REM
CELL 1.54180   50.00000   50.00000   50.00000   90.00000   90.00000   90.00000
LATT -1
SFAC C  
C      1  0.4822170000000  0.5835350000000  0.5264690000000 1.0
C      1  0.4610260000000  0.4982520000000  0.4930560000000 1.0
C      1  0.4984670000000  0.5696550000000  0.5047400000000 1.0
C      1  0.4656930000000  0.4725120000000  0.5765500000000 1.0
C      1  0.4885120000000  0.4338510000000  0.4375870000000 1.0
C      1  0.5386450000000  0.4825630000000  0.4928930000000 1.0
C      1  0.4979630000000  0.4725260000000  0.4131710000000 1.0
C      1  0.5363330000000  0.4682130000000  0.5201930000000 1.0
C      1  0.5233040000000  0.5001950000000  0.4408960000000 1.0
C      1  0.4288030000000  0.4774990000000  0.5370410000000 1.0
C      1  0.4582320000000  0.4378130000000  0.5081220000000 1.0
C      1  0.4355560000000  0.5430300000000  0.5426330000000 1.0
C      1  0.4555180000000  0.5034970000000  0.5536550000000 1.0
C      1  0.5249160000000  0.5752530000000  0.4894090000000 1.0
C      1  0.4608810000000  0.4773170000000  0.4662480000000 1.0
C      1  0.5919600000000  0.5264480000000  0.5088210000000 1.0
C      1  0.5708390000000  0.4931410000000  0.4334650000000 1.0
C      1  0.5736240000000  0.5160240000000  0.4858680000000 1.0
C      1  0.5147250000000  0.4846530000000  0.4699470000000 1.0
C      1  0.4617200000000  0.5632070000000  0.5349330000000 1.0
C      1  0.4854620000000  0.4472560000000  0.4129370000000 1.0
C      1  0.5009350000000  0.5206880000000  0.4282370000000 1.0
C      1  0.4842340000000  0.5158920000000  0.5105710000000 1.0
C      1  0.5226900000000  0.5298050000000  0.4882260000000 1.0
C      1  0.5842950000000  0.4737700000000  0.5163660000000 1.0
C      1  0.5730640000000  0.4761500000000  0.4542060000000 1.0
C      1  0.6044730000000  0.4959060000000  0.5152070000000 1.0
C      1  0.4383330000000  0.5228860000000  0.4989120000000 1.0
C      1  0.4218790000000  0.5308990000000  0.4737840000000 1.0
C      1  0.4848490000000  0.5431330000000  0.4349540000000 1.0
C      1  0.4556870000000  0.4676750000000  0.5422490000000 1.0
C      1  0.5312070000000  0.4863110000000  0.5428750000000 1.0
C      1  0.5097700000000  0.4356350000000  0.4937340000000 1.0
C      1  0.5066120000000  0.4918580000000  0.5567450000000 1.0
C      1  0.4012870000000  0.5102970000000  0.5307260000000 1.0
C      1  0.5659740000000  0.4876600000000  0.4836680000000 1.0
C      1  0.5559840000000  0.4496490000000  0.4641720000000 1.0
C      1  0.5163910000000  0.5787430000000  0.4616780000000 1.0
C      1  0.5637860000000  0.5381020000000  0.5175630000000 1.0
C      1  0.5232920000000  0.4236250000000  0.5190470000000 1.0
C      1  0.4932330000000  0.5630670000000  0.4544490000000 1.0
C      1  0.4822540000000  0.4973690000000  0.5388240000000 1.0
C      1  0.4570700000000  0.4427420000000  0.5636890000000 1.0
C      1  0.4498860000000  0.4281900000000  0.5398130000000 1.0
C      1  0.4562810000000  0.5307270000000  0.4421890000000 1.0
C      1  0.4270040000000  0.4908230000000  0.4498200000000 1.0
C      1  0.4605130000000  0.5298480000000  0.5911840000000 1.0
C      1  0.5152290000000  0.4280020000000  0.4439510000000 1.0
C      1  0.4515100000000  0.5801270000000  0.4778240000000 1.0
C      1  0.5439370000000  0.4405450000000  0.5279800000000 1.0
C      1  0.5533220000000  0.5354960000000  0.4763580000000 1.0
C      1  0.4842980000000  0.4953710000000  0.4221760000000 1.0
C      1  0.4310420000000  0.5194230000000  0.4490910000000 1.0
C      1  0.5024540000000  0.4662870000000  0.4961930000000 1.0
C      1  0.6251430000000  0.5200500000000  0.5129830000000 1.0
C      1  0.5544020000000  0.5365760000000  0.4461470000000 1.0
C      1  0.5063010000000  0.5412560000000  0.5157290000000 1.0
C      1  0.4841170000000  0.6082560000000  0.5341100000000 1.0
C      1  0.5802850000000  0.4570030000000  0.4870520000000 1.0
C      1  0.4787270000000  0.4723570000000  0.5176880000000 1.0
C      1  0.5431090000000  0.5308120000000  0.5674190000000 1.0
C      1  0.5103040000000  0.4883080000000  0.6042980000000 1.0
C      1  0.5503410000000  0.5123350000000  0.4348300000000 1.0
C      1  0.4412830000000  0.4095600000000  0.5165290000000 1.0
C      1  0.4238050000000  0.5249780000000  0.5258470000000 1.0
C      1  0.5143090000000  0.5428180000000  0.5427950000000 1.0
C      1  0.5376100000000  0.5165610000000  0.5150710000000 1.0
C      1  0.4747900000000  0.5590940000000  0.4827420000000 1.0
C      1  0.4788700000000  0.4330600000000  0.4867620000000 1.0
C      1  0.4292390000000  0.4803070000000  0.4783330000000 1.0
C      1  0.5235910000000  0.4725950000000  0.4256840000000 1.0
C      1  0.4736490000000  0.5284880000000  0.4702100000000 1.0
C      1  0.4297940000000  0.4690290000000  0.4321430000000 1.0
C      1  0.4952570000000  0.4743270000000  0.5816930000000 1.0
C      1  0.4785860000000  0.4993020000000  0.4534820000000 1.0
C      1  0.5285930000000  0.4315180000000  0.4706140000000 1.0
C      1  0.5539350000000  0.5189850000000  0.5440070000000 1.0
C      1  0.4568800000000  0.5520850000000  0.5661950000000 1.0
C      1  0.5474960000000  0.5598540000000  0.4967900000000 1.0
C      1  0.5645940000000  0.4873050000000  0.5408370000000 1.0
C      1  0.5130270000000  0.5095120000000  0.5829530000000 1.0
C      1  0.4625980000000  0.5422580000000  0.5096550000000 1.0
C      1  0.5685290000000  0.4537140000000  0.5388390000000 1.0
C      1  0.5026030000000  0.5140980000000  0.4726850000000 1.0
C      1  0.4850150000000  0.5498870000000  0.5840350000000 1.0
C      1  0.5358720000000  0.4501890000000  0.4365540000000 1.0
C      1  0.4486860000000  0.4676360000000  0.5028710000000 1.0
C      1  0.4433960000000  0.4471750000000  0.4417030000000 1.0
C      1  0.4705250000000  0.4453700000000  0.4601640000000 1.0
C      1  0.5115920000000  0.4968860000000  0.5076980000000 1.0
C      1  0.4549670000000  0.5041750000000  0.5827800000000 1.0
C      1  0.5110060000000  0.5391420000000  0.5749800000000 1.0
END
