TITL C-2848499-1157-654 0.00293268539993239 125000 -298.033824367395 0 0 54 (C1) n - 1
REM
REM in /home/bkarasulu/work/CARBON/AIRSS/Generating-Clusters/AIREBO/with-SteepDescent/Only-C1/SD-CG-opt/Try1-1.4A-POS3A/HFTN-CG
REM
REM
REM
REM
REM
REM ./C.cell (11c1c37f851c82e70ff6c80c92926a4b)
REM
REM compiler GCC version 9.2.1 20190827 (Red Hat 9.2.1-1)
REM options -cpp -mtune=generic -march=x86-64 -g -O0 -fpre-include=/usr/include/finclude/math-vector-fortran.h
REM seed -1844253986 1631882357 75994010 883203326 -627575587 -2006422194 2056819056 -2102632884 864113597 -1823949771 1833598805 1021514103 126644646 -1591373480 1199704797 809984768 842375131 -2035488059 -1726252747 -1334476247 -1400906985 460831044 -826008885 1208520890 -1813824999 -127942368 -334115372 1640187163 -195522089 2127448985 -2052507368 -123631710 1963325653
REM
CELL 1.54180   50.00000   50.00000   50.00000   90.00000   90.00000   90.00000
LATT -1
SFAC C  
C      1  0.4396700000000  0.4695910000000  0.5442800000000 1.0
C      1  0.5520400000000  0.4925230000000  0.5374110000000 1.0
C      1  0.5390130000000  0.5468480000000  0.4961920000000 1.0
C      1  0.5410270000000  0.5384550000000  0.5513110000000 1.0
C      1  0.4631220000000  0.4881200000000  0.5180070000000 1.0
C      1  0.4326310000000  0.4545810000000  0.5153350000000 1.0
C      1  0.4669370000000  0.5191210000000  0.5605800000000 1.0
C      1  0.4913400000000  0.5590660000000  0.4939810000000 1.0
C      1  0.4879740000000  0.4514390000000  0.5380240000000 1.0
C      1  0.5805530000000  0.5729080000000  0.4390940000000 1.0
C      1  0.5443780000000  0.4769960000000  0.4745730000000 1.0
C      1  0.5097390000000  0.4694410000000  0.4469020000000 1.0
C      1  0.5236060000000  0.4814410000000  0.4941990000000 1.0
C      1  0.5290080000000  0.4678540000000  0.5766300000000 1.0
C      1  0.5548840000000  0.5202290000000  0.5343010000000 1.0
C      1  0.4585200000000  0.4888430000000  0.4597470000000 1.0
C      1  0.5318130000000  0.4333250000000  0.4763900000000 1.0
C      1  0.4316760000000  0.4859630000000  0.4751160000000 1.0
C      1  0.4542100000000  0.4960840000000  0.5498450000000 1.0
C      1  0.4913060000000  0.5139400000000  0.5293780000000 1.0
C      1  0.5391970000000  0.4692240000000  0.5328860000000 1.0
C      1  0.5258540000000  0.4277370000000  0.5045620000000 1.0
C      1  0.4430630000000  0.5346730000000  0.5269390000000 1.0
C      1  0.5346000000000  0.5101310000000  0.4370550000000 1.0
C      1  0.4618470000000  0.5350350000000  0.5043020000000 1.0
C      1  0.5153100000000  0.5729800000000  0.4774120000000 1.0
C      1  0.5126730000000  0.4571590000000  0.5153630000000 1.0
C      1  0.4587840000000  0.4461570000000  0.5325400000000 1.0
C      1  0.4672150000000  0.5206100000000  0.4529670000000 1.0
C      1  0.4296860000000  0.5108020000000  0.4885720000000 1.0
C      1  0.4923230000000  0.5342610000000  0.5507440000000 1.0
C      1  0.4359550000000  0.5074010000000  0.5162910000000 1.0
C      1  0.4994290000000  0.4995100000000  0.4858960000000 1.0
C      1  0.5195950000000  0.5327200000000  0.4452130000000 1.0
C      1  0.5108440000000  0.4754250000000  0.5603640000000 1.0
C      1  0.5349320000000  0.5517770000000  0.4636090000000 1.0
C      1  0.4982610000000  0.4364850000000  0.5624710000000 1.0
C      1  0.5350890000000  0.4841640000000  0.4477760000000 1.0
C      1  0.4636190000000  0.5652910000000  0.4792110000000 1.0
C      1  0.4724430000000  0.4803690000000  0.4896690000000 1.0
C      1  0.5176160000000  0.5549630000000  0.5128870000000 1.0
C      1  0.5594400000000  0.5317480000000  0.5085590000000 1.0
C      1  0.5162350000000  0.5483840000000  0.5410340000000 1.0
C      1  0.5554220000000  0.4500760000000  0.4742710000000 1.0
C      1  0.5591410000000  0.5644970000000  0.4501460000000 1.0
C      1  0.4903990000000  0.4882770000000  0.4553120000000 1.0
C      1  0.4904390000000  0.4844130000000  0.5379240000000 1.0
C      1  0.4908630000000  0.5301170000000  0.4428940000000 1.0
C      1  0.5079580000000  0.4471760000000  0.4657820000000 1.0
C      1  0.4930520000000  0.5257840000000  0.5009470000000 1.0
C      1  0.4487410000000  0.5351280000000  0.4742020000000 1.0
C      1  0.5810170000000  0.4426980000000  0.4724250000000 1.0
C      1  0.4917910000000  0.4552380000000  0.4885920000000 1.0
C      1  0.4237180000000  0.4628190000000  0.4898870000000 1.0
END
