TITL C-2848505-4874-753 0.00316603375654439 125000 -952.127031735001 0 0 182 (C1) n - 1
REM
REM in /home/bkarasulu/work/CARBON/AIRSS/Generating-Clusters/AIREBO/with-SteepDescent/Only-C1/SD-CG-opt/Try1-1.4A-POS3A/HFTN-CG
REM
REM
REM
REM
REM
REM ./C.cell (11c1c37f851c82e70ff6c80c92926a4b)
REM
REM compiler GCC version 9.2.1 20190827 (Red Hat 9.2.1-1)
REM options -cpp -mtune=generic -march=x86-64 -g -O0 -fpre-include=/usr/include/finclude/math-vector-fortran.h
REM seed -1909679916 -1730179686 -366057781 -2141141516 -265951425 -1741018861 1583295315 -1184230002 732048501 -1676811121 -1815732776 379481794 -204967057 471914503 -707706407 -1678799880 1459490138 2083663472 1992336711 274431448 -1630112995 -1519863241 -1438644871 1384446553 -1322146539 -467923641 1109615790 -462221481 -2067257492 465899717 -490949439 -1647891689 1660978605
REM
CELL 1.54180   50.00000   50.00000   50.00000   90.00000   90.00000   90.00000
LATT -1
SFAC C  
C      1  0.5043290000000  0.6082390000000  0.5123740000000 1.0
C      1  0.3928250000000  0.5084580000000  0.4585000000000 1.0
C      1  0.5844260000000  0.4693380000000  0.4366170000000 1.0
C      1  0.4304460000000  0.4912760000000  0.4122160000000 1.0
C      1  0.5016850000000  0.5505650000000  0.5555320000000 1.0
C      1  0.5125650000000  0.5069270000000  0.4239750000000 1.0
C      1  0.4394300000000  0.4784300000000  0.4816630000000 1.0
C      1  0.3923480000000  0.4937170000000  0.5038030000000 1.0
C      1  0.4135040000000  0.4536460000000  0.4409450000000 1.0
C      1  0.5446410000000  0.5876930000000  0.4793470000000 1.0
C      1  0.5310670000000  0.5586820000000  0.5508400000000 1.0
C      1  0.4451020000000  0.5624890000000  0.5673090000000 1.0
C      1  0.5349980000000  0.5770630000000  0.5294110000000 1.0
C      1  0.5224500000000  0.4258240000000  0.5775960000000 1.0
C      1  0.4846000000000  0.4819390000000  0.3932690000000 1.0
C      1  0.5846890000000  0.5544170000000  0.4882370000000 1.0
C      1  0.4326410000000  0.4542550000000  0.5184650000000 1.0
C      1  0.4141450000000  0.4698250000000  0.4132870000000 1.0
C      1  0.4861250000000  0.5227640000000  0.5880800000000 1.0
C      1  0.5247080000000  0.4369790000000  0.4916840000000 1.0
C      1  0.4417770000000  0.5254910000000  0.5525460000000 1.0
C      1  0.4704290000000  0.4788300000000  0.5559960000000 1.0
C      1  0.4109270000000  0.5935530000000  0.4934500000000 1.0
C      1  0.4472700000000  0.4553990000000  0.5800900000000 1.0
C      1  0.5320440000000  0.5241750000000  0.4766720000000 1.0
C      1  0.5664650000000  0.4466170000000  0.5622130000000 1.0
C      1  0.4925540000000  0.5152870000000  0.5272010000000 1.0
C      1  0.4634300000000  0.4894650000000  0.4189710000000 1.0
C      1  0.4590720000000  0.5385560000000  0.5787800000000 1.0
C      1  0.6098140000000  0.4945630000000  0.5279310000000 1.0
C      1  0.5003320000000  0.6146670000000  0.4792020000000 1.0
C      1  0.4207200000000  0.5868730000000  0.4690250000000 1.0
C      1  0.4561950000000  0.5173820000000  0.4562000000000 1.0
C      1  0.4471240000000  0.5776860000000  0.4991690000000 1.0
C      1  0.4653050000000  0.4958680000000  0.5849790000000 1.0
C      1  0.4800570000000  0.5214940000000  0.4802200000000 1.0
C      1  0.4875910000000  0.5584570000000  0.4400110000000 1.0
C      1  0.4542290000000  0.4093300000000  0.5162740000000 1.0
C      1  0.4401620000000  0.5234940000000  0.5057980000000 1.0
C      1  0.4957050000000  0.4367010000000  0.5075450000000 1.0
C      1  0.5002210000000  0.4347020000000  0.4681510000000 1.0
C      1  0.5284400000000  0.3857420000000  0.4648130000000 1.0
C      1  0.5346800000000  0.5164250000000  0.4438250000000 1.0
C      1  0.5480330000000  0.4566850000000  0.4623500000000 1.0
C      1  0.5624190000000  0.5833130000000  0.5232670000000 1.0
C      1  0.5029980000000  0.4656750000000  0.5334790000000 1.0
C      1  0.5635700000000  0.5341610000000  0.5425800000000 1.0
C      1  0.5116640000000  0.5824830000000  0.4418570000000 1.0
C      1  0.4688570000000  0.4225200000000  0.4359150000000 1.0
C      1  0.4480990000000  0.5486430000000  0.4158470000000 1.0
C      1  0.4889160000000  0.5648860000000  0.5804900000000 1.0
C      1  0.5217040000000  0.6004400000000  0.4620390000000 1.0
C      1  0.5243130000000  0.4937620000000  0.4897590000000 1.0
C      1  0.4170720000000  0.4863440000000  0.4495950000000 1.0
C      1  0.4771920000000  0.4473230000000  0.5948330000000 1.0
C      1  0.4232000000000  0.5589240000000  0.4550100000000 1.0
C      1  0.3826930000000  0.4500060000000  0.5201440000000 1.0
C      1  0.5704330000000  0.5653650000000  0.5499420000000 1.0
C      1  0.5798540000000  0.4930600000000  0.4584050000000 1.0
C      1  0.4813330000000  0.4773660000000  0.6053190000000 1.0
C      1  0.4040310000000  0.5372540000000  0.4955570000000 1.0
C      1  0.5682240000000  0.4335430000000  0.4735620000000 1.0
C      1  0.6119670000000  0.4698180000000  0.4876280000000 1.0
C      1  0.4628050000000  0.5317470000000  0.5265690000000 1.0
C      1  0.4751850000000  0.5112050000000  0.3876370000000 1.0
C      1  0.4726070000000  0.4900510000000  0.5258000000000 1.0
C      1  0.5055500000000  0.4511670000000  0.4395240000000 1.0
C      1  0.5230350000000  0.3973860000000  0.4960940000000 1.0
C      1  0.4537260000000  0.5818210000000  0.4660400000000 1.0
C      1  0.4800720000000  0.4771030000000  0.4794400000000 1.0
C      1  0.4261210000000  0.4971750000000  0.5019090000000 1.0
C      1  0.5551680000000  0.5369260000000  0.4265850000000 1.0
C      1  0.4361800000000  0.5629790000000  0.3983080000000 1.0
C      1  0.4891590000000  0.5595780000000  0.4729510000000 1.0
C      1  0.5328380000000  0.4857350000000  0.5556140000000 1.0
C      1  0.5486740000000  0.4112010000000  0.5378930000000 1.0
C      1  0.5101380000000  0.5773400000000  0.5136990000000 1.0
C      1  0.5507340000000  0.4452380000000  0.3875760000000 1.0
C      1  0.5189230000000  0.5491190000000  0.4625780000000 1.0
C      1  0.4643900000000  0.5982940000000  0.5133160000000 1.0
C      1  0.5718780000000  0.3828210000000  0.4816260000000 1.0
C      1  0.4478970000000  0.3990390000000  0.5442260000000 1.0
C      1  0.3860230000000  0.4658430000000  0.4949850000000 1.0
C      1  0.4299290000000  0.5139850000000  0.4344980000000 1.0
C      1  0.5239620000000  0.5037620000000  0.5211080000000 1.0
C      1  0.5761490000000  0.5045660000000  0.4902060000000 1.0
C      1  0.5272720000000  0.5541710000000  0.4329390000000 1.0
C      1  0.5969420000000  0.5190960000000  0.4505990000000 1.0
C      1  0.5262120000000  0.5953770000000  0.5653520000000 1.0
C      1  0.6141120000000  0.4879090000000  0.5588840000000 1.0
C      1  0.5328540000000  0.5422170000000  0.5872210000000 1.0
C      1  0.5021230000000  0.5350080000000  0.5024070000000 1.0
C      1  0.5336540000000  0.5027970000000  0.3976140000000 1.0
C      1  0.5524130000000  0.4294400000000  0.5100130000000 1.0
C      1  0.5299020000000  0.5366730000000  0.4038450000000 1.0
C      1  0.5982770000000  0.4490800000000  0.4781400000000 1.0
C      1  0.5885070000000  0.4451420000000  0.4488620000000 1.0
C      1  0.4360490000000  0.5043180000000  0.5954840000000 1.0
C      1  0.5349720000000  0.5087450000000  0.5805920000000 1.0
C      1  0.5338430000000  0.4777290000000  0.5945650000000 1.0
C      1  0.5984910000000  0.4625730000000  0.5245660000000 1.0
C      1  0.5033800000000  0.4753510000000  0.5636620000000 1.0
C      1  0.4787240000000  0.5859700000000  0.5367940000000 1.0
C      1  0.4958200000000  0.4037240000000  0.4792080000000 1.0
C      1  0.5195410000000  0.4376640000000  0.5312110000000 1.0
C      1  0.4007450000000  0.4561570000000  0.5425110000000 1.0
C      1  0.4389550000000  0.4916370000000  0.5545540000000 1.0
C      1  0.4556570000000  0.5508250000000  0.4488940000000 1.0
C      1  0.4510430000000  0.4842590000000  0.4502340000000 1.0
C      1  0.4018030000000  0.5480120000000  0.5215430000000 1.0
C      1  0.5663080000000  0.4864610000000  0.4139240000000 1.0
C      1  0.4856380000000  0.4043360000000  0.4467560000000 1.0
C      1  0.5077590000000  0.6014100000000  0.5454580000000 1.0
C      1  0.5308130000000  0.5292000000000  0.5385800000000 1.0
C      1  0.5174030000000  0.5695700000000  0.4866130000000 1.0
C      1  0.5777250000000  0.5163610000000  0.4260480000000 1.0
C      1  0.5561560000000  0.4952430000000  0.5160980000000 1.0
C      1  0.5670000000000  0.5809430000000  0.4958970000000 1.0
C      1  0.4974840000000  0.4795820000000  0.5051200000000 1.0
C      1  0.5003490000000  0.5238760000000  0.3971390000000 1.0
C      1  0.4477030000000  0.4177170000000  0.5614430000000 1.0
C      1  0.5778240000000  0.5162180000000  0.5630550000000 1.0
C      1  0.5630150000000  0.5271710000000  0.4701860000000 1.0
C      1  0.5735360000000  0.4480560000000  0.5299960000000 1.0
C      1  0.4960300000000  0.4996610000000  0.4596100000000 1.0
C      1  0.5345550000000  0.4530700000000  0.4342810000000 1.0
C      1  0.5095780000000  0.4556570000000  0.5884440000000 1.0
C      1  0.5593830000000  0.4751060000000  0.4875420000000 1.0
C      1  0.5078920000000  0.3841860000000  0.4465320000000 1.0
C      1  0.4552900000000  0.4539540000000  0.4353740000000 1.0
C      1  0.5473850000000  0.5703980000000  0.5748130000000 1.0
C      1  0.5699880000000  0.5320740000000  0.5092470000000 1.0
C      1  0.4661990000000  0.5233330000000  0.4177700000000 1.0
C      1  0.4252700000000  0.5541210000000  0.5445210000000 1.0
C      1  0.4706970000000  0.3942860000000  0.4952710000000 1.0
C      1  0.5533040000000  0.4073440000000  0.4841790000000 1.0
C      1  0.4205290000000  0.5741490000000  0.5174160000000 1.0
C      1  0.4906660000000  0.5259780000000  0.4387280000000 1.0
C      1  0.5520340000000  0.4913000000000  0.4434960000000 1.0
C      1  0.5417010000000  0.4646080000000  0.4061890000000 1.0
C      1  0.5858410000000  0.4746020000000  0.5631560000000 1.0
C      1  0.4714790000000  0.4480360000000  0.4713030000000 1.0
C      1  0.5343400000000  0.4643630000000  0.5036170000000 1.0
C      1  0.4637250000000  0.5501740000000  0.4880420000000 1.0
C      1  0.4249150000000  0.4265580000000  0.4812560000000 1.0
C      1  0.4696280000000  0.6085980000000  0.4655950000000 1.0
C      1  0.5125600000000  0.4786860000000  0.3957420000000 1.0
C      1  0.4220120000000  0.5190370000000  0.5794500000000 1.0
C      1  0.6017270000000  0.5098140000000  0.5734100000000 1.0
C      1  0.5424800000000  0.4613420000000  0.5339160000000 1.0
C      1  0.5991570000000  0.5269240000000  0.5259610000000 1.0
C      1  0.4930420000000  0.4802950000000  0.4329450000000 1.0
C      1  0.4314070000000  0.4278080000000  0.5074090000000 1.0
C      1  0.4893110000000  0.4269200000000  0.5704730000000 1.0
C      1  0.5062910000000  0.5477640000000  0.5982780000000 1.0
C      1  0.6086430000000  0.5015190000000  0.4966010000000 1.0
C      1  0.4708230000000  0.6193930000000  0.4954200000000 1.0
C      1  0.3904190000000  0.5010960000000  0.5359000000000 1.0
C      1  0.4876610000000  0.5549650000000  0.5260070000000 1.0
C      1  0.6047150000000  0.5292040000000  0.4772530000000 1.0
C      1  0.4690550000000  0.4378640000000  0.5208260000000 1.0
C      1  0.5198790000000  0.4042840000000  0.5247510000000 1.0
C      1  0.4311100000000  0.5450740000000  0.4826000000000 1.0
C      1  0.5581710000000  0.4698300000000  0.5820810000000 1.0
C      1  0.3911590000000  0.5161980000000  0.4843940000000 1.0
C      1  0.4820270000000  0.4452140000000  0.4183370000000 1.0
C      1  0.5503680000000  0.4223940000000  0.5642080000000 1.0
C      1  0.5093500000000  0.5198830000000  0.5634000000000 1.0
C      1  0.5357710000000  0.5387830000000  0.5063200000000 1.0
C      1  0.3988810000000  0.4655150000000  0.4694130000000 1.0
C      1  0.4383400000000  0.4488400000000  0.4636830000000 1.0
C      1  0.5625280000000  0.4931280000000  0.5467310000000 1.0
C      1  0.5247760000000  0.4814590000000  0.4604900000000 1.0
C      1  0.6001580000000  0.5499500000000  0.5435540000000 1.0
C      1  0.4664300000000  0.4451060000000  0.5539680000000 1.0
C      1  0.4188800000000  0.4825390000000  0.5313770000000 1.0
C      1  0.4597580000000  0.5844940000000  0.5614560000000 1.0
C      1  0.4599720000000  0.4664640000000  0.5048220000000 1.0
C      1  0.5970180000000  0.5752590000000  0.4701980000000 1.0
C      1  0.4874840000000  0.5047870000000  0.6169170000000 1.0
C      1  0.5078830000000  0.4044580000000  0.5552030000000 1.0
C      1  0.4213400000000  0.4631990000000  0.5661460000000 1.0
END
