TITL C-2848494-1720-120 0.00224968829017382 125000 -563.562761080295 0 0 106 (C1) n - 1
REM
REM in /home/bkarasulu/work/CARBON/AIRSS/Generating-Clusters/AIREBO/with-SteepDescent/Only-C1/SD-CG-opt/Try1-1.4A-POS3A/HFTN-CG
REM
REM
REM
REM
REM
REM ./C.cell (11c1c37f851c82e70ff6c80c92926a4b)
REM
REM compiler GCC version 9.2.1 20190827 (Red Hat 9.2.1-1)
REM options -cpp -mtune=generic -march=x86-64 -g -O0 -fpre-include=/usr/include/finclude/math-vector-fortran.h
REM seed 1327659011 1203545231 1309969287 1629693744 -1955944383 708703175 1088257953 -698345748 1082898792 -1917355136 720774955 1771928684 2083338679 1710550126 -241228125 1609530436 -1373862554 1296911438 -1549505478 -1356488849 164966573 -776396747 769613167 -840985674 945097730 1358854234 -1300514709 1562008624 1822701131 -1293261304 1425810430 1239552254 -78013613
REM
CELL 1.54180   50.00000   50.00000   50.00000   90.00000   90.00000   90.00000
LATT -1
SFAC C  
C      1  0.4644120000000  0.4966360000000  0.4933960000000 1.0
C      1  0.5072080000000  0.4557970000000  0.5188230000000 1.0
C      1  0.4561840000000  0.4324090000000  0.5082300000000 1.0
C      1  0.4638450000000  0.5294900000000  0.5365440000000 1.0
C      1  0.5117010000000  0.5873110000000  0.4912370000000 1.0
C      1  0.4229770000000  0.4739120000000  0.5206930000000 1.0
C      1  0.5088860000000  0.5146340000000  0.4681780000000 1.0
C      1  0.5452340000000  0.4405590000000  0.4482470000000 1.0
C      1  0.5374730000000  0.4110810000000  0.4453400000000 1.0
C      1  0.5827110000000  0.5219490000000  0.4611690000000 1.0
C      1  0.4688910000000  0.5737400000000  0.5580920000000 1.0
C      1  0.5330430000000  0.4804210000000  0.5756700000000 1.0
C      1  0.4821470000000  0.5440880000000  0.5118710000000 1.0
C      1  0.5217720000000  0.4013020000000  0.4681390000000 1.0
C      1  0.4642650000000  0.5106700000000  0.4087760000000 1.0
C      1  0.4413160000000  0.4432350000000  0.4291030000000 1.0
C      1  0.4983260000000  0.4091760000000  0.4872170000000 1.0
C      1  0.5171190000000  0.4685900000000  0.4517870000000 1.0
C      1  0.5717490000000  0.4578030000000  0.4804260000000 1.0
C      1  0.5574460000000  0.4902410000000  0.4397510000000 1.0
C      1  0.4984250000000  0.4663110000000  0.4265750000000 1.0
C      1  0.5148360000000  0.4693600000000  0.5490690000000 1.0
C      1  0.4895660000000  0.5585910000000  0.4581920000000 1.0
C      1  0.5141980000000  0.5710600000000  0.4397140000000 1.0
C      1  0.4256220000000  0.4955870000000  0.4561960000000 1.0
C      1  0.4212850000000  0.5127720000000  0.5517890000000 1.0
C      1  0.4454790000000  0.5158280000000  0.4643350000000 1.0
C      1  0.5453590000000  0.5545350000000  0.4581480000000 1.0
C      1  0.4864870000000  0.4274250000000  0.5489030000000 1.0
C      1  0.5286080000000  0.4333310000000  0.4772840000000 1.0
C      1  0.5819620000000  0.5075480000000  0.4845140000000 1.0
C      1  0.4750760000000  0.5213050000000  0.3864160000000 1.0
C      1  0.5031170000000  0.5545640000000  0.4891490000000 1.0
C      1  0.4896440000000  0.5950390000000  0.5104870000000 1.0
C      1  0.4988030000000  0.4468700000000  0.4680010000000 1.0
C      1  0.4420080000000  0.4541620000000  0.4048050000000 1.0
C      1  0.4268560000000  0.5678180000000  0.4872120000000 1.0
C      1  0.5514570000000  0.5219380000000  0.4505750000000 1.0
C      1  0.5097710000000  0.5263230000000  0.5341130000000 1.0
C      1  0.5400800000000  0.5144040000000  0.4817390000000 1.0
C      1  0.5214450000000  0.5483960000000  0.5537080000000 1.0
C      1  0.4709990000000  0.5210110000000  0.4341470000000 1.0
C      1  0.4686150000000  0.4046410000000  0.4967760000000 1.0
C      1  0.4651550000000  0.4528550000000  0.5909980000000 1.0
C      1  0.4419830000000  0.4724830000000  0.5757070000000 1.0
C      1  0.5688810000000  0.5310430000000  0.5366110000000 1.0
C      1  0.5339460000000  0.5444260000000  0.4964980000000 1.0
C      1  0.4450300000000  0.4902080000000  0.4071260000000 1.0
C      1  0.5573140000000  0.4852260000000  0.4848110000000 1.0
C      1  0.4484160000000  0.4628360000000  0.4535060000000 1.0
C      1  0.4770350000000  0.5032460000000  0.4625120000000 1.0
C      1  0.4343540000000  0.4516030000000  0.5036040000000 1.0
C      1  0.5126570000000  0.4854770000000  0.4756940000000 1.0
C      1  0.5589010000000  0.4429470000000  0.5531340000000 1.0
C      1  0.5102360000000  0.4980920000000  0.5863440000000 1.0
C      1  0.4662170000000  0.5476100000000  0.4439310000000 1.0
C      1  0.5417570000000  0.5927170000000  0.5006440000000 1.0
C      1  0.4732910000000  0.5401720000000  0.5642420000000 1.0
C      1  0.5305920000000  0.5847490000000  0.4632310000000 1.0
C      1  0.4789480000000  0.4742020000000  0.5232880000000 1.0
C      1  0.4976410000000  0.5632140000000  0.5678520000000 1.0
C      1  0.5151840000000  0.4192330000000  0.5389100000000 1.0
C      1  0.4717360000000  0.4441670000000  0.5331860000000 1.0
C      1  0.5431230000000  0.5481260000000  0.5290580000000 1.0
C      1  0.5256020000000  0.4657290000000  0.4128200000000 1.0
C      1  0.5470390000000  0.5984220000000  0.5264390000000 1.0
C      1  0.5444290000000  0.4875050000000  0.5225700000000 1.0
C      1  0.4889440000000  0.5111570000000  0.5119260000000 1.0
C      1  0.5590620000000  0.4392750000000  0.5202200000000 1.0
C      1  0.4596600000000  0.4958230000000  0.5341830000000 1.0
C      1  0.5394570000000  0.4488710000000  0.5728100000000 1.0
C      1  0.5285670000000  0.4735540000000  0.4988910000000 1.0
C      1  0.5133460000000  0.4945710000000  0.5290980000000 1.0
C      1  0.4724200000000  0.4853070000000  0.5839130000000 1.0
C      1  0.4613980000000  0.6233270000000  0.5465750000000 1.0
C      1  0.4415720000000  0.5540000000000  0.4536820000000 1.0
C      1  0.5586320000000  0.4371430000000  0.4927880000000 1.0
C      1  0.4229830000000  0.5239910000000  0.5070290000000 1.0
C      1  0.5217710000000  0.4263870000000  0.5098770000000 1.0
C      1  0.4329720000000  0.5384680000000  0.4826890000000 1.0
C      1  0.4890610000000  0.4777110000000  0.4911910000000 1.0
C      1  0.5635620000000  0.4675630000000  0.5328800000000 1.0
C      1  0.4334960000000  0.4832620000000  0.5493580000000 1.0
C      1  0.5450230000000  0.5293230000000  0.4207110000000 1.0
C      1  0.4311480000000  0.4818030000000  0.4314660000000 1.0
C      1  0.5127790000000  0.4349100000000  0.5689150000000 1.0
C      1  0.4707460000000  0.5716440000000  0.5184490000000 1.0
C      1  0.5543680000000  0.5136450000000  0.5125930000000 1.0
C      1  0.5688320000000  0.5174090000000  0.5641220000000 1.0
C      1  0.5878470000000  0.5198050000000  0.5113180000000 1.0
C      1  0.5496280000000  0.4633720000000  0.4298450000000 1.0
C      1  0.4325410000000  0.5289610000000  0.5325450000000 1.0
C      1  0.4868470000000  0.4399050000000  0.4966820000000 1.0
C      1  0.4369770000000  0.4789740000000  0.4836060000000 1.0
C      1  0.5094800000000  0.5260980000000  0.5737670000000 1.0
C      1  0.5642900000000  0.5892550000000  0.4627350000000 1.0
C      1  0.4779700000000  0.4704500000000  0.4534730000000 1.0
C      1  0.4908520000000  0.4608800000000  0.5701640000000 1.0
C      1  0.5439820000000  0.5775190000000  0.5436570000000 1.0
C      1  0.4158600000000  0.4974120000000  0.5030290000000 1.0
C      1  0.5155120000000  0.5393530000000  0.4524120000000 1.0
C      1  0.4703300000000  0.5989860000000  0.5382740000000 1.0
C      1  0.4570760000000  0.3812990000000  0.4995780000000 1.0
C      1  0.4800350000000  0.5148620000000  0.5843540000000 1.0
C      1  0.5586140000000  0.4983940000000  0.5762580000000 1.0
C      1  0.5564900000000  0.5671810000000  0.4876840000000 1.0
END
