TITL C-2847952-8118-412 0.00176545610510438 125000 -858.878581328335 0 0 156 (C1) n - 1
REM
REM in /home/bkarasulu/work/CARBON/AIRSS/Generating-Clusters/AIREBO/with-SteepDescent/Only-C1/SD-CG-opt/Try1-1.4A-POS3A/HFTN-CG
REM
REM
REM
REM
REM
REM ./C.cell (11c1c37f851c82e70ff6c80c92926a4b)
REM
REM compiler GCC version 9.2.1 20190827 (Red Hat 9.2.1-1)
REM options -cpp -mtune=generic -march=x86-64 -g -O0 -fpre-include=/usr/include/finclude/math-vector-fortran.h
REM seed -764592424 682798711 -954057995 -1858932300 -1361982980 1012997114 -1048331359 918370703 1192021803 916827666 -1233829897 -1412541113 701295273 -1372994369 1732796199 827747604 -204683619 -141621364 271629077 883436180 -905544937 -303028805 1149999912 -769059135 -1447508845 1361566955 962442617 36695172 1701090263 860409546 -1426670851 -1962890787 -617991873
REM
CELL 1.54180   50.00000   50.00000   50.00000   90.00000   90.00000   90.00000
LATT -1
SFAC C  
C      1  0.4200210000000  0.5502780000000  0.4637780000000 1.0
C      1  0.4988930000000  0.4697300000000  0.3927710000000 1.0
C      1  0.5353600000000  0.4186370000000  0.4541720000000 1.0
C      1  0.5191280000000  0.5515910000000  0.4164100000000 1.0
C      1  0.4327710000000  0.4621490000000  0.4970900000000 1.0
C      1  0.4170070000000  0.4983610000000  0.5356730000000 1.0
C      1  0.4066320000000  0.4786850000000  0.4568620000000 1.0
C      1  0.5558500000000  0.5926680000000  0.4744110000000 1.0
C      1  0.5264590000000  0.4798610000000  0.5622040000000 1.0
C      1  0.5616600000000  0.4406260000000  0.5414830000000 1.0
C      1  0.5697430000000  0.5606630000000  0.5035810000000 1.0
C      1  0.4827280000000  0.5030570000000  0.6032700000000 1.0
C      1  0.6101100000000  0.5117440000000  0.5173590000000 1.0
C      1  0.3899550000000  0.4963600000000  0.5356830000000 1.0
C      1  0.6125030000000  0.4834200000000  0.4613810000000 1.0
C      1  0.5339850000000  0.4470760000000  0.5128150000000 1.0
C      1  0.4057470000000  0.5351880000000  0.4834210000000 1.0
C      1  0.4841830000000  0.4480470000000  0.4543510000000 1.0
C      1  0.4380330000000  0.5220000000000  0.5770000000000 1.0
C      1  0.5007780000000  0.5609680000000  0.4739990000000 1.0
C      1  0.4547420000000  0.5220870000000  0.4905690000000 1.0
C      1  0.4830970000000  0.5484660000000  0.5004270000000 1.0
C      1  0.5438860000000  0.4540170000000  0.5627890000000 1.0
C      1  0.4535220000000  0.5618860000000  0.4914380000000 1.0
C      1  0.5824670000000  0.4568250000000  0.5328060000000 1.0
C      1  0.4701710000000  0.4774620000000  0.5569340000000 1.0
C      1  0.4531120000000  0.5424420000000  0.4633720000000 1.0
C      1  0.5014420000000  0.4416970000000  0.5790750000000 1.0
C      1  0.4953550000000  0.4850550000000  0.4445520000000 1.0
C      1  0.5394560000000  0.5475600000000  0.4665990000000 1.0
C      1  0.4743800000000  0.5928270000000  0.5057870000000 1.0
C      1  0.5472860000000  0.4189150000000  0.5260830000000 1.0
C      1  0.4437690000000  0.4669340000000  0.5856120000000 1.0
C      1  0.5875790000000  0.4798400000000  0.5489980000000 1.0
C      1  0.4938440000000  0.5181570000000  0.3983740000000 1.0
C      1  0.5618750000000  0.5118430000000  0.5702920000000 1.0
C      1  0.4753520000000  0.5422350000000  0.5333550000000 1.0
C      1  0.5270480000000  0.4462420000000  0.4812600000000 1.0
C      1  0.4142800000000  0.5447000000000  0.5093150000000 1.0
C      1  0.5138770000000  0.5212000000000  0.5213380000000 1.0
C      1  0.5421780000000  0.5679880000000  0.5689830000000 1.0
C      1  0.4210590000000  0.5694410000000  0.5262180000000 1.0
C      1  0.4984460000000  0.5679520000000  0.4089120000000 1.0
C      1  0.5014450000000  0.5931520000000  0.4851430000000 1.0
C      1  0.5090990000000  0.4586770000000  0.4358040000000 1.0
C      1  0.5755070000000  0.4871650000000  0.5746250000000 1.0
C      1  0.5754880000000  0.4811160000000  0.5012760000000 1.0
C      1  0.4786930000000  0.4038380000000  0.5566760000000 1.0
C      1  0.5468460000000  0.4927160000000  0.6117710000000 1.0
C      1  0.5525810000000  0.4591180000000  0.4097650000000 1.0
C      1  0.4135060000000  0.4490110000000  0.4825620000000 1.0
C      1  0.4744380000000  0.5304340000000  0.5635230000000 1.0
C      1  0.5616380000000  0.4716640000000  0.4400410000000 1.0
C      1  0.4698610000000  0.5815640000000  0.5310670000000 1.0
C      1  0.4408720000000  0.4410440000000  0.4328090000000 1.0
C      1  0.5155810000000  0.5381700000000  0.5478170000000 1.0
C      1  0.4964880000000  0.5657950000000  0.5424610000000 1.0
C      1  0.4464690000000  0.5494270000000  0.5599190000000 1.0
C      1  0.4416170000000  0.4476940000000  0.5228780000000 1.0
C      1  0.5041930000000  0.5121970000000  0.4715220000000 1.0
C      1  0.4544630000000  0.4900810000000  0.4489540000000 1.0
C      1  0.3969410000000  0.4541930000000  0.5533020000000 1.0
C      1  0.4447830000000  0.5710620000000  0.5426780000000 1.0
C      1  0.4655870000000  0.4868850000000  0.5960980000000 1.0
C      1  0.4742420000000  0.5168120000000  0.4560930000000 1.0
C      1  0.5654600000000  0.5884400000000  0.5009500000000 1.0
C      1  0.5234270000000  0.5752050000000  0.5317590000000 1.0
C      1  0.4433110000000  0.4233160000000  0.4871000000000 1.0
C      1  0.5773750000000  0.5331820000000  0.5592850000000 1.0
C      1  0.4535570000000  0.4849510000000  0.5309200000000 1.0
C      1  0.5896460000000  0.4520340000000  0.5037380000000 1.0
C      1  0.4708580000000  0.4453800000000  0.5905580000000 1.0
C      1  0.4573800000000  0.4058840000000  0.4667060000000 1.0
C      1  0.4949130000000  0.4471380000000  0.4848620000000 1.0
C      1  0.4112740000000  0.4547230000000  0.4431620000000 1.0
C      1  0.4851970000000  0.4850360000000  0.4773670000000 1.0
C      1  0.4743210000000  0.5607730000000  0.4207030000000 1.0
C      1  0.5314710000000  0.4758260000000  0.3998710000000 1.0
C      1  0.4928140000000  0.4545790000000  0.5493990000000 1.0
C      1  0.4986050000000  0.4938070000000  0.5536550000000 1.0
C      1  0.4870710000000  0.6123710000000  0.4610460000000 1.0
C      1  0.5174530000000  0.5106070000000  0.4406800000000 1.0
C      1  0.5088120000000  0.4747730000000  0.4989940000000 1.0
C      1  0.4601370000000  0.4207990000000  0.5133620000000 1.0
C      1  0.4579230000000  0.5396370000000  0.4129850000000 1.0
C      1  0.5630390000000  0.5028960000000  0.4266680000000 1.0
C      1  0.4590010000000  0.4200190000000  0.5457030000000 1.0
C      1  0.5622470000000  0.4263680000000  0.4639400000000 1.0
C      1  0.5759660000000  0.5525380000000  0.4411230000000 1.0
C      1  0.5588730000000  0.5205130000000  0.5263690000000 1.0
C      1  0.6032510000000  0.5276670000000  0.4913790000000 1.0
C      1  0.4922570000000  0.4877650000000  0.5228920000000 1.0
C      1  0.5139830000000  0.4983830000000  0.3820950000000 1.0
C      1  0.5510340000000  0.4508390000000  0.5929850000000 1.0
C      1  0.5663270000000  0.4748260000000  0.5987960000000 1.0
C      1  0.5940240000000  0.4667280000000  0.4491580000000 1.0
C      1  0.4530250000000  0.5915510000000  0.4847980000000 1.0
C      1  0.5092440000000  0.4014450000000  0.4906080000000 1.0
C      1  0.5353700000000  0.4524210000000  0.4502710000000 1.0
C      1  0.4887170000000  0.5511980000000  0.5945710000000 1.0
C      1  0.4806070000000  0.5094220000000  0.4259300000000 1.0
C      1  0.5363980000000  0.4988840000000  0.5251340000000 1.0
C      1  0.6038620000000  0.4950700000000  0.4886870000000 1.0
C      1  0.4266510000000  0.4622360000000  0.5497800000000 1.0
C      1  0.5626700000000  0.4850040000000  0.4718110000000 1.0
C      1  0.5459560000000  0.5516670000000  0.5220200000000 1.0
C      1  0.5421730000000  0.4778540000000  0.5052740000000 1.0
C      1  0.5594470000000  0.5695060000000  0.4582770000000 1.0
C      1  0.4735450000000  0.4593760000000  0.5218730000000 1.0
C      1  0.5563640000000  0.5186320000000  0.4724260000000 1.0
C      1  0.4181810000000  0.4231510000000  0.5249820000000 1.0
C      1  0.4841700000000  0.5149260000000  0.5060240000000 1.0
C      1  0.5151200000000  0.4114020000000  0.5225880000000 1.0
C      1  0.5244650000000  0.5498190000000  0.4957280000000 1.0
C      1  0.5759780000000  0.4536760000000  0.4726440000000 1.0
C      1  0.5187130000000  0.6009800000000  0.5120160000000 1.0
C      1  0.4615650000000  0.5095290000000  0.3975850000000 1.0
C      1  0.4375230000000  0.4999140000000  0.5097230000000 1.0
C      1  0.4473090000000  0.5409690000000  0.5165060000000 1.0
C      1  0.5180370000000  0.5428420000000  0.4462350000000 1.0
C      1  0.5785530000000  0.5387640000000  0.4886260000000 1.0
C      1  0.4335750000000  0.4920570000000  0.5646870000000 1.0
C      1  0.4312860000000  0.4923440000000  0.4710440000000 1.0
C      1  0.5220050000000  0.4452010000000  0.5423020000000 1.0
C      1  0.4551840000000  0.4471250000000  0.5604370000000 1.0
C      1  0.4700180000000  0.4774230000000  0.4050400000000 1.0
C      1  0.4248860000000  0.4277960000000  0.4588570000000 1.0
C      1  0.5266260000000  0.5179510000000  0.4900580000000 1.0
C      1  0.4623120000000  0.5385190000000  0.5942420000000 1.0
C      1  0.4626960000000  0.4647680000000  0.4339730000000 1.0
C      1  0.5701680000000  0.5245110000000  0.4429920000000 1.0
C      1  0.5345840000000  0.5039800000000  0.4157290000000 1.0
C      1  0.5112960000000  0.4064480000000  0.4626800000000 1.0
C      1  0.4571740000000  0.4825160000000  0.4880940000000 1.0
C      1  0.3786980000000  0.4723750000000  0.5435840000000 1.0
C      1  0.5304910000000  0.6047020000000  0.4717490000000 1.0
C      1  0.4020530000000  0.5076710000000  0.4742650000000 1.0
C      1  0.4888150000000  0.4234370000000  0.5043750000000 1.0
C      1  0.5199140000000  0.4921260000000  0.5932330000000 1.0
C      1  0.4704720000000  0.4270570000000  0.4233910000000 1.0
C      1  0.5251440000000  0.5280420000000  0.3963470000000 1.0
C      1  0.5016990000000  0.5168790000000  0.5786680000000 1.0
C      1  0.5441480000000  0.5944050000000  0.5598660000000 1.0
C      1  0.4315120000000  0.5076640000000  0.4342220000000 1.0
C      1  0.5066250000000  0.4176600000000  0.5550000000000 1.0
C      1  0.5602760000000  0.5535180000000  0.5525930000000 1.0
C      1  0.4398370000000  0.5335460000000  0.4333580000000 1.0
C      1  0.5210290000000  0.4580770000000  0.5951690000000 1.0
C      1  0.5883040000000  0.5096120000000  0.5370890000000 1.0
C      1  0.4739580000000  0.5663780000000  0.4511780000000 1.0
C      1  0.4831790000000  0.4154820000000  0.4511680000000 1.0
C      1  0.5483550000000  0.5981300000000  0.5263110000000 1.0
C      1  0.5344730000000  0.5111410000000  0.5565030000000 1.0
C      1  0.4911600000000  0.4445810000000  0.4121460000000 1.0
C      1  0.5183850000000  0.5464900000000  0.5803320000000 1.0
C      1  0.4649030000000  0.5944580000000  0.4594050000000 1.0
END
