TITL C-2848509-3138-95 -0.000890017531769378 125000 -948.681605722078 0 0 175 (C1) n - 1
REM
REM in /home/bkarasulu/work/CARBON/AIRSS/Generating-Clusters/AIREBO/with-SteepDescent/Only-C1/SD-CG-opt/Try1-1.4A-POS3A/HFTN-CG
REM
REM
REM
REM
REM
REM ./C.cell (11c1c37f851c82e70ff6c80c92926a4b)
REM
REM compiler GCC version 9.2.1 20190827 (Red Hat 9.2.1-1)
REM options -cpp -mtune=generic -march=x86-64 -g -O0 -fpre-include=/usr/include/finclude/math-vector-fortran.h
REM seed 429292856 690186912 -1403202850 -26465150 1141063438 -568046711 1610419802 -1411118776 -506232205 283018188 1271520901 1023401362 -418649981 -1984335252 641399023 -268308571 830261559 962082397 -1528934379 230437935 527305502 -198563802 -242659266 -1860648347 -38842815 -1864101422 947971923 -576110223 564628381 1310004872 688500984 -1466291492 555219955
REM
CELL 1.54180   50.00000   50.00000   50.00000   90.00000   90.00000   90.00000
LATT -1
SFAC C  
C      1  0.4101370000000  0.4995000000000  0.5553860000000 1.0
C      1  0.5522210000000  0.4783800000000  0.4687870000000 1.0
C      1  0.6143170000000  0.4645130000000  0.5127190000000 1.0
C      1  0.4516520000000  0.5494730000000  0.4075340000000 1.0
C      1  0.5803130000000  0.5347790000000  0.5009000000000 1.0
C      1  0.4165330000000  0.4427620000000  0.4847840000000 1.0
C      1  0.4445680000000  0.5440250000000  0.4389950000000 1.0
C      1  0.4036450000000  0.5141260000000  0.4856190000000 1.0
C      1  0.5175290000000  0.4964590000000  0.4027720000000 1.0
C      1  0.5611070000000  0.5591300000000  0.5104540000000 1.0
C      1  0.4544200000000  0.5174080000000  0.5000880000000 1.0
C      1  0.4379850000000  0.4204380000000  0.4778460000000 1.0
C      1  0.4116140000000  0.5066490000000  0.5238510000000 1.0
C      1  0.4812770000000  0.5842400000000  0.5298500000000 1.0
C      1  0.5118380000000  0.5431780000000  0.5999280000000 1.0
C      1  0.4563360000000  0.4465610000000  0.4007220000000 1.0
C      1  0.4671070000000  0.3919890000000  0.4347640000000 1.0
C      1  0.5236230000000  0.4830150000000  0.5397450000000 1.0
C      1  0.5530820000000  0.4220090000000  0.5333760000000 1.0
C      1  0.5319050000000  0.4499060000000  0.4879770000000 1.0
C      1  0.5347800000000  0.4756350000000  0.4422360000000 1.0
C      1  0.3920920000000  0.4637710000000  0.4910580000000 1.0
C      1  0.4933540000000  0.4593220000000  0.4929280000000 1.0
C      1  0.4549620000000  0.4120910000000  0.5061900000000 1.0
C      1  0.5669140000000  0.5050180000000  0.4780070000000 1.0
C      1  0.5180890000000  0.4058890000000  0.5004570000000 1.0
C      1  0.5096200000000  0.4352040000000  0.5053430000000 1.0
C      1  0.5807580000000  0.5862980000000  0.4848060000000 1.0
C      1  0.4180240000000  0.5385130000000  0.4576090000000 1.0
C      1  0.4419480000000  0.4514850000000  0.4311420000000 1.0
C      1  0.4883660000000  0.5204050000000  0.6082280000000 1.0
C      1  0.4641700000000  0.4640550000000  0.5025730000000 1.0
C      1  0.5719240000000  0.4360770000000  0.4783100000000 1.0
C      1  0.5838360000000  0.4740770000000  0.4380290000000 1.0
C      1  0.4694310000000  0.4735030000000  0.5348080000000 1.0
C      1  0.5170320000000  0.5114170000000  0.5970590000000 1.0
C      1  0.4558990000000  0.4913380000000  0.3987670000000 1.0
C      1  0.6012900000000  0.5158360000000  0.5614220000000 1.0
C      1  0.4517480000000  0.5764070000000  0.4465160000000 1.0
C      1  0.4672710000000  0.5157860000000  0.5849960000000 1.0
C      1  0.5783670000000  0.4670850000000  0.4821350000000 1.0
C      1  0.5786810000000  0.5356780000000  0.5639890000000 1.0
C      1  0.5232150000000  0.4366880000000  0.4578500000000 1.0
C      1  0.4997190000000  0.4775520000000  0.5197650000000 1.0
C      1  0.5205370000000  0.6037240000000  0.4775270000000 1.0
C      1  0.4819510000000  0.5411540000000  0.5579180000000 1.0
C      1  0.5616360000000  0.4909400000000  0.4322240000000 1.0
C      1  0.5534630000000  0.5814390000000  0.4321190000000 1.0
C      1  0.4746080000000  0.5125630000000  0.4785400000000 1.0
C      1  0.4548350000000  0.5456290000000  0.5118360000000 1.0
C      1  0.4723700000000  0.4686140000000  0.3946240000000 1.0
C      1  0.5021950000000  0.4706250000000  0.4085990000000 1.0
C      1  0.6058250000000  0.5083320000000  0.5311970000000 1.0
C      1  0.4455010000000  0.4683240000000  0.5825910000000 1.0
C      1  0.5906890000000  0.4841750000000  0.5587190000000 1.0
C      1  0.6170560000000  0.4943700000000  0.5076000000000 1.0
C      1  0.5289150000000  0.5371550000000  0.4352310000000 1.0
C      1  0.4188140000000  0.4880730000000  0.5756700000000 1.0
C      1  0.4724420000000  0.4228480000000  0.4273810000000 1.0
C      1  0.4340880000000  0.5540130000000  0.5449770000000 1.0
C      1  0.4529080000000  0.4545120000000  0.4632000000000 1.0
C      1  0.4152250000000  0.4761560000000  0.4474640000000 1.0
C      1  0.4430160000000  0.4200950000000  0.4442110000000 1.0
C      1  0.5473340000000  0.4943180000000  0.5190720000000 1.0
C      1  0.4357420000000  0.4755210000000  0.5306340000000 1.0
C      1  0.4864400000000  0.3838810000000  0.4531150000000 1.0
C      1  0.4519570000000  0.5865970000000  0.4989510000000 1.0
C      1  0.5473690000000  0.4709800000000  0.5878130000000 1.0
C      1  0.5467200000000  0.5031050000000  0.5887640000000 1.0
C      1  0.5026050000000  0.4306200000000  0.5335030000000 1.0
C      1  0.5221190000000  0.4658720000000  0.6072320000000 1.0
C      1  0.4134940000000  0.4852720000000  0.4974630000000 1.0
C      1  0.4300750000000  0.4561700000000  0.5548250000000 1.0
C      1  0.5739170000000  0.5735650000000  0.4540020000000 1.0
C      1  0.4844560000000  0.4017670000000  0.4799860000000 1.0
C      1  0.4706480000000  0.4278930000000  0.4720480000000 1.0
C      1  0.5195910000000  0.4936140000000  0.5700680000000 1.0
C      1  0.4714840000000  0.5330170000000  0.4541840000000 1.0
C      1  0.6057230000000  0.4866840000000  0.4511500000000 1.0
C      1  0.4038180000000  0.5362540000000  0.5089660000000 1.0
C      1  0.4608320000000  0.5491240000000  0.5829970000000 1.0
C      1  0.5855890000000  0.5961380000000  0.5106200000000 1.0
C      1  0.4374030000000  0.5127630000000  0.4284460000000 1.0
C      1  0.4681750000000  0.5162350000000  0.4031610000000 1.0
C      1  0.4506070000000  0.5315500000000  0.5488410000000 1.0
C      1  0.4159770000000  0.4509470000000  0.5177960000000 1.0
C      1  0.5439730000000  0.6009140000000  0.5423240000000 1.0
C      1  0.5203920000000  0.5293700000000  0.4642970000000 1.0
C      1  0.5685420000000  0.5904970000000  0.5339060000000 1.0
C      1  0.3901720000000  0.4467600000000  0.5316380000000 1.0
C      1  0.5215260000000  0.4487910000000  0.4261060000000 1.0
C      1  0.4799590000000  0.5646400000000  0.4312540000000 1.0
C      1  0.5317680000000  0.4819570000000  0.4920060000000 1.0
C      1  0.4441170000000  0.5084210000000  0.5286970000000 1.0
C      1  0.4395890000000  0.5662600000000  0.4765410000000 1.0
C      1  0.5832820000000  0.4520920000000  0.5565850000000 1.0
C      1  0.5055010000000  0.5081170000000  0.5144420000000 1.0
C      1  0.4972230000000  0.4726400000000  0.5988680000000 1.0
C      1  0.4584280000000  0.4377620000000  0.5750610000000 1.0
C      1  0.5569390000000  0.5573120000000  0.4775950000000 1.0
C      1  0.5079990000000  0.5537640000000  0.5700260000000 1.0
C      1  0.5415450000000  0.5515720000000  0.5909980000000 1.0
C      1  0.5066530000000  0.4805850000000  0.4560550000000 1.0
C      1  0.5517210000000  0.4270100000000  0.5034660000000 1.0
C      1  0.5035620000000  0.4395020000000  0.5718760000000 1.0
C      1  0.4075240000000  0.5632490000000  0.4708300000000 1.0
C      1  0.5401490000000  0.5489180000000  0.5571260000000 1.0
C      1  0.4806660000000  0.4156520000000  0.5631070000000 1.0
C      1  0.4589540000000  0.5851530000000  0.5471910000000 1.0
C      1  0.5784680000000  0.4691940000000  0.5859140000000 1.0
C      1  0.4698470000000  0.5933530000000  0.4698950000000 1.0
C      1  0.5090170000000  0.5251220000000  0.4150310000000 1.0
C      1  0.5777660000000  0.4483940000000  0.4469110000000 1.0
C      1  0.4687200000000  0.4842660000000  0.5937780000000 1.0
C      1  0.4823160000000  0.4533400000000  0.4301250000000 1.0
C      1  0.4687510000000  0.5772360000000  0.5727100000000 1.0
C      1  0.5618030000000  0.4686790000000  0.5361020000000 1.0
C      1  0.5822280000000  0.4758130000000  0.5129120000000 1.0
C      1  0.4843170000000  0.5461620000000  0.4048570000000 1.0
C      1  0.4033370000000  0.5074690000000  0.4528090000000 1.0
C      1  0.5141680000000  0.5794270000000  0.5084150000000 1.0
C      1  0.5419440000000  0.4072390000000  0.4773380000000 1.0
C      1  0.4348810000000  0.5161510000000  0.4757850000000 1.0
C      1  0.4251070000000  0.5581650000000  0.5062910000000 1.0
C      1  0.4715250000000  0.4006820000000  0.5336330000000 1.0
C      1  0.4162960000000  0.4429780000000  0.4520290000000 1.0
C      1  0.6022730000000  0.4940060000000  0.5882310000000 1.0
C      1  0.4757860000000  0.4986690000000  0.5567870000000 1.0
C      1  0.5139810000000  0.5547930000000  0.4853180000000 1.0
C      1  0.5055370000000  0.5816040000000  0.4371090000000 1.0
C      1  0.4356550000000  0.4267670000000  0.5523310000000 1.0
C      1  0.4884760000000  0.5567480000000  0.4632260000000 1.0
C      1  0.5861270000000  0.5304990000000  0.4718800000000 1.0
C      1  0.5590400000000  0.5247920000000  0.4301420000000 1.0
C      1  0.5294110000000  0.4322060000000  0.5510060000000 1.0
C      1  0.4443430000000  0.4925780000000  0.4549130000000 1.0
C      1  0.4341570000000  0.5831730000000  0.5274770000000 1.0
C      1  0.4856540000000  0.5209480000000  0.5330400000000 1.0
C      1  0.4777740000000  0.4936790000000  0.4516420000000 1.0
C      1  0.5294110000000  0.5685810000000  0.4319530000000 1.0
C      1  0.5193090000000  0.5776460000000  0.5402650000000 1.0
C      1  0.4459110000000  0.4417570000000  0.5117010000000 1.0
C      1  0.5121970000000  0.4046770000000  0.4610680000000 1.0
C      1  0.5395780000000  0.4607700000000  0.5593610000000 1.0
C      1  0.5056700000000  0.4228940000000  0.4198160000000 1.0
C      1  0.5011170000000  0.5863580000000  0.5676550000000 1.0
C      1  0.4319870000000  0.4813800000000  0.4183470000000 1.0
C      1  0.5608610000000  0.5292560000000  0.5849130000000 1.0
C      1  0.4872050000000  0.5522750000000  0.5198810000000 1.0
C      1  0.4904800000000  0.3887590000000  0.5080460000000 1.0
C      1  0.4926250000000  0.4512600000000  0.4607610000000 1.0
C      1  0.5419130000000  0.5820070000000  0.4929480000000 1.0
C      1  0.4834470000000  0.5160700000000  0.4308390000000 1.0
C      1  0.5777300000000  0.4239150000000  0.5461100000000 1.0
C      1  0.4061880000000  0.5207500000000  0.4238520000000 1.0
C      1  0.5005100000000  0.5975450000000  0.4590920000000 1.0
C      1  0.5989900000000  0.4941220000000  0.4816700000000 1.0
C      1  0.4746750000000  0.4439660000000  0.5452590000000 1.0
C      1  0.4944670000000  0.4717650000000  0.5659550000000 1.0
C      1  0.5124920000000  0.6222610000000  0.4965020000000 1.0
C      1  0.5337000000000  0.5248220000000  0.5127610000000 1.0
C      1  0.5072260000000  0.5027320000000  0.4809130000000 1.0
C      1  0.5014510000000  0.6078640000000  0.5221060000000 1.0
C      1  0.5546170000000  0.4249630000000  0.4512350000000 1.0
C      1  0.4792810000000  0.5695780000000  0.4917030000000 1.0
C      1  0.4412840000000  0.4770400000000  0.4850040000000 1.0
C      1  0.5686920000000  0.5594470000000  0.5431390000000 1.0
C      1  0.5789880000000  0.5424270000000  0.4478160000000 1.0
C      1  0.5440850000000  0.5097680000000  0.4035460000000 1.0
C      1  0.5189690000000  0.5465310000000  0.5306030000000 1.0
C      1  0.5448200000000  0.5285340000000  0.4839520000000 1.0
C      1  0.5143440000000  0.6141930000000  0.5524290000000 1.0
C      1  0.5779360000000  0.5092080000000  0.5162230000000 1.0
C      1  0.4328930000000  0.4099100000000  0.5319710000000 1.0
C      1  0.5052160000000  0.3976020000000  0.5373840000000 1.0
END
