TITL C-2847955-7945-284 -0.000277521490009228 125000 -486.411946328575 0 0 88 (C1) n - 1
REM
REM in /home/bkarasulu/work/CARBON/AIRSS/Generating-Clusters/AIREBO/with-SteepDescent/Only-C1/SD-CG-opt/Try1-1.4A-POS3A/HFTN-CG
REM
REM
REM
REM
REM
REM ./C.cell (11c1c37f851c82e70ff6c80c92926a4b)
REM
REM compiler GCC version 9.2.1 20190827 (Red Hat 9.2.1-1)
REM options -cpp -mtune=generic -march=x86-64 -g -O0 -fpre-include=/usr/include/finclude/math-vector-fortran.h
REM seed 480238089 449531014 -635586031 474409945 -2132281701 -550163651 775642125 1256051329 -2017663233 -718182718 -968380225 1062850355 771007605 -448495976 1502424621 -392709726 196578212 1854866737 317935477 -370822857 -838518347 -965888799 1999848696 -727182496 1361667649 2044696274 927148736 2105461461 -788045383 1204650823 -1666578612 -1676392855 -1579646878
REM
CELL 1.54180   50.00000   50.00000   50.00000   90.00000   90.00000   90.00000
LATT -1
SFAC C  
C      1  0.5500700000000  0.4333570000000  0.4758580000000 1.0
C      1  0.5312360000000  0.4952560000000  0.5318350000000 1.0
C      1  0.4433450000000  0.5400430000000  0.4644190000000 1.0
C      1  0.4859850000000  0.4921020000000  0.5098750000000 1.0
C      1  0.5014200000000  0.4640730000000  0.4350570000000 1.0
C      1  0.5275190000000  0.5594820000000  0.4651890000000 1.0
C      1  0.5397140000000  0.4966470000000  0.4521500000000 1.0
C      1  0.5072140000000  0.5569190000000  0.5449560000000 1.0
C      1  0.4697130000000  0.5220040000000  0.4182720000000 1.0
C      1  0.5040930000000  0.5072430000000  0.4922250000000 1.0
C      1  0.5169300000000  0.4677160000000  0.5750900000000 1.0
C      1  0.4926900000000  0.4805350000000  0.5825280000000 1.0
C      1  0.4759780000000  0.4230860000000  0.4767510000000 1.0
C      1  0.5207090000000  0.5367930000000  0.4895990000000 1.0
C      1  0.5002990000000  0.4295670000000  0.5235570000000 1.0
C      1  0.5755120000000  0.5272510000000  0.5112860000000 1.0
C      1  0.4820510000000  0.5422100000000  0.5624660000000 1.0
C      1  0.4840280000000  0.4650670000000  0.4955760000000 1.0
C      1  0.4162540000000  0.4840340000000  0.4849150000000 1.0
C      1  0.4464740000000  0.5511070000000  0.5180790000000 1.0
C      1  0.5241890000000  0.4298860000000  0.4639490000000 1.0
C      1  0.5099290000000  0.4958630000000  0.4371630000000 1.0
C      1  0.4767420000000  0.5623940000000  0.4638740000000 1.0
C      1  0.5582040000000  0.5506690000000  0.5253710000000 1.0
C      1  0.5553320000000  0.4869440000000  0.4809240000000 1.0
C      1  0.4463460000000  0.4389820000000  0.5270470000000 1.0
C      1  0.4783350000000  0.4985700000000  0.4494980000000 1.0
C      1  0.5091700000000  0.5605500000000  0.4239280000000 1.0
C      1  0.5547220000000  0.4792080000000  0.4299420000000 1.0
C      1  0.5474380000000  0.5697980000000  0.5081120000000 1.0
C      1  0.4604500000000  0.4433870000000  0.4968520000000 1.0
C      1  0.5550170000000  0.4581870000000  0.4916960000000 1.0
C      1  0.5342440000000  0.4642000000000  0.5183060000000 1.0
C      1  0.4915730000000  0.4320220000000  0.5498630000000 1.0
C      1  0.4381390000000  0.5717060000000  0.4684450000000 1.0
C      1  0.4639930000000  0.5267050000000  0.5287250000000 1.0
C      1  0.4686970000000  0.4617730000000  0.5804110000000 1.0
C      1  0.4693320000000  0.4751500000000  0.4684360000000 1.0
C      1  0.5220660000000  0.4452630000000  0.4393390000000 1.0
C      1  0.4983570000000  0.5256880000000  0.4252820000000 1.0
C      1  0.4922040000000  0.5830070000000  0.5288740000000 1.0
C      1  0.4683800000000  0.5643870000000  0.5406150000000 1.0
C      1  0.4980620000000  0.4920840000000  0.5386780000000 1.0
C      1  0.5708930000000  0.4163600000000  0.4703520000000 1.0
C      1  0.5701910000000  0.5288330000000  0.4782190000000 1.0
C      1  0.4943140000000  0.5179290000000  0.4664290000000 1.0
C      1  0.4293800000000  0.5098210000000  0.4663020000000 1.0
C      1  0.4878980000000  0.5087930000000  0.5666850000000 1.0
C      1  0.4488860000000  0.4913420000000  0.4842000000000 1.0
C      1  0.5206750000000  0.5751100000000  0.5121250000000 1.0
C      1  0.4865080000000  0.5894690000000  0.4959740000000 1.0
C      1  0.4565160000000  0.5205170000000  0.5608730000000 1.0
C      1  0.5363810000000  0.4261920000000  0.5515390000000 1.0
C      1  0.4306490000000  0.4891450000000  0.5215520000000 1.0
C      1  0.4519200000000  0.5160500000000  0.4418540000000 1.0
C      1  0.5237460000000  0.5274400000000  0.5237550000000 1.0
C      1  0.4328590000000  0.4614700000000  0.5052690000000 1.0
C      1  0.4990560000000  0.5455210000000  0.4528980000000 1.0
C      1  0.4985490000000  0.6001620000000  0.4663490000000 1.0
C      1  0.4626610000000  0.5492340000000  0.4906510000000 1.0
C      1  0.4947690000000  0.5566320000000  0.4990850000000 1.0
C      1  0.4696350000000  0.4773570000000  0.5502390000000 1.0
C      1  0.4581330000000  0.5033190000000  0.5113060000000 1.0
C      1  0.4178170000000  0.5376220000000  0.5121370000000 1.0
C      1  0.5520790000000  0.4447840000000  0.5384700000000 1.0
C      1  0.5041170000000  0.4156790000000  0.4803830000000 1.0
C      1  0.5828850000000  0.5021470000000  0.4893200000000 1.0
C      1  0.5325840000000  0.4985130000000  0.4980110000000 1.0
C      1  0.4645410000000  0.4454870000000  0.5507890000000 1.0
C      1  0.4918230000000  0.5352070000000  0.5244750000000 1.0
C      1  0.5142920000000  0.4393070000000  0.5662400000000 1.0
C      1  0.5115030000000  0.4071700000000  0.5079060000000 1.0
C      1  0.4611730000000  0.5885190000000  0.4739150000000 1.0
C      1  0.5347480000000  0.4863480000000  0.5644670000000 1.0
C      1  0.4766470000000  0.4573600000000  0.4448150000000 1.0
C      1  0.5112990000000  0.5832580000000  0.4491440000000 1.0
C      1  0.5615860000000  0.5118660000000  0.5340750000000 1.0
C      1  0.5069620000000  0.4538480000000  0.5114450000000 1.0
C      1  0.5441630000000  0.5233620000000  0.4689700000000 1.0
C      1  0.5463990000000  0.4530440000000  0.4266690000000 1.0
C      1  0.4450600000000  0.4943440000000  0.5479230000000 1.0
C      1  0.4137040000000  0.5112240000000  0.5051970000000 1.0
C      1  0.5484430000000  0.5136830000000  0.5627790000000 1.0
C      1  0.5288470000000  0.4036450000000  0.5339550000000 1.0
C      1  0.5721500000000  0.4521050000000  0.5187790000000 1.0
C      1  0.4696650000000  0.4305900000000  0.4499530000000 1.0
C      1  0.5536740000000  0.5663280000000  0.4805880000000 1.0
C      1  0.5380690000000  0.5429530000000  0.5489210000000 1.0
END
