TITL C-2848502-4955-642 -0.00134254129426669 125000 -746.108003420758 0 0 140 (C1) n - 1
REM
REM in /home/bkarasulu/work/CARBON/AIRSS/Generating-Clusters/AIREBO/with-SteepDescent/Only-C1/SD-CG-opt/Try1-1.4A-POS3A/HFTN-CG
REM
REM
REM
REM
REM
REM ./C.cell (11c1c37f851c82e70ff6c80c92926a4b)
REM
REM compiler GCC version 9.2.1 20190827 (Red Hat 9.2.1-1)
REM options -cpp -mtune=generic -march=x86-64 -g -O0 -fpre-include=/usr/include/finclude/math-vector-fortran.h
REM seed 330172498 301027510 1269725898 404447269 335526222 -1417385050 1597975675 981823757 -1981258675 1407842100 1412736002 -1670181406 -924177797 -1210029555 222214323 -611696974 -140596334 1370835107 -1719010520 1838369279 -460876099 -564161513 -579029165 920026629 1439390400 -246260108 -445443219 1774693997 60225678 419280509 -597757297 -741012634 -1399935983
REM
CELL 1.54180   50.00000   50.00000   50.00000   90.00000   90.00000   90.00000
LATT -1
SFAC C  
C      1  0.4578870000000  0.4949020000000  0.3989790000000 1.0
C      1  0.5380360000000  0.4371270000000  0.4434770000000 1.0
C      1  0.4579040000000  0.4447290000000  0.5389520000000 1.0
C      1  0.4637130000000  0.5362620000000  0.5886550000000 1.0
C      1  0.6039480000000  0.5485310000000  0.5059720000000 1.0
C      1  0.5224290000000  0.5327200000000  0.4776720000000 1.0
C      1  0.5561190000000  0.4608960000000  0.5612570000000 1.0
C      1  0.5065650000000  0.5880320000000  0.5481860000000 1.0
C      1  0.5440080000000  0.4116920000000  0.4977800000000 1.0
C      1  0.4902510000000  0.5387950000000  0.4868530000000 1.0
C      1  0.4617940000000  0.4251900000000  0.5649630000000 1.0
C      1  0.5488470000000  0.5432040000000  0.4438210000000 1.0
C      1  0.4073570000000  0.5597490000000  0.4644910000000 1.0
C      1  0.5661270000000  0.4173960000000  0.5398540000000 1.0
C      1  0.5002010000000  0.5216000000000  0.5088270000000 1.0
C      1  0.5442330000000  0.5000510000000  0.4192290000000 1.0
C      1  0.4543430000000  0.4753780000000  0.5792380000000 1.0
C      1  0.4861490000000  0.4945630000000  0.4024310000000 1.0
C      1  0.5195480000000  0.3993700000000  0.4822160000000 1.0
C      1  0.4968970000000  0.4656090000000  0.6088540000000 1.0
C      1  0.4288480000000  0.4451040000000  0.5297270000000 1.0
C      1  0.5021070000000  0.4293280000000  0.4085140000000 1.0
C      1  0.4758940000000  0.4896690000000  0.4809190000000 1.0
C      1  0.4347880000000  0.4719200000000  0.5011820000000 1.0
C      1  0.5817040000000  0.5089850000000  0.5136830000000 1.0
C      1  0.4936760000000  0.4223450000000  0.3839920000000 1.0
C      1  0.4580190000000  0.5125180000000  0.4934530000000 1.0
C      1  0.5962010000000  0.4700690000000  0.4883350000000 1.0
C      1  0.6054760000000  0.4844120000000  0.4630000000000 1.0
C      1  0.5317160000000  0.4448690000000  0.5068590000000 1.0
C      1  0.4490470000000  0.4983260000000  0.5583690000000 1.0
C      1  0.5349950000000  0.4968730000000  0.5055820000000 1.0
C      1  0.5535900000000  0.5252980000000  0.5036630000000 1.0
C      1  0.4202460000000  0.4293260000000  0.4144120000000 1.0
C      1  0.5803440000000  0.5092110000000  0.5449880000000 1.0
C      1  0.5076590000000  0.5817740000000  0.4485690000000 1.0
C      1  0.4794530000000  0.4391900000000  0.4531520000000 1.0
C      1  0.4917780000000  0.5448240000000  0.4550340000000 1.0
C      1  0.4338390000000  0.4388860000000  0.4337790000000 1.0
C      1  0.5152620000000  0.5102980000000  0.5745810000000 1.0
C      1  0.5301660000000  0.4791490000000  0.4343920000000 1.0
C      1  0.5318150000000  0.5514110000000  0.5044870000000 1.0
C      1  0.5823370000000  0.5415080000000  0.4448990000000 1.0
C      1  0.4860740000000  0.5943550000000  0.5298490000000 1.0
C      1  0.4615490000000  0.4620040000000  0.4892520000000 1.0
C      1  0.5475140000000  0.4869050000000  0.5778470000000 1.0
C      1  0.5119360000000  0.4483450000000  0.4574990000000 1.0
C      1  0.4417380000000  0.5690040000000  0.5320820000000 1.0
C      1  0.5762000000000  0.5528980000000  0.5136260000000 1.0
C      1  0.5102140000000  0.4479120000000  0.5921890000000 1.0
C      1  0.4539370000000  0.4833570000000  0.4480980000000 1.0
C      1  0.5733160000000  0.4948260000000  0.4839260000000 1.0
C      1  0.4099390000000  0.5252860000000  0.4984480000000 1.0
C      1  0.5226800000000  0.4999060000000  0.4676720000000 1.0
C      1  0.4902590000000  0.5530840000000  0.5377520000000 1.0
C      1  0.6086760000000  0.5230200000000  0.5053700000000 1.0
C      1  0.5641120000000  0.5316310000000  0.4719140000000 1.0
C      1  0.5318310000000  0.5961090000000  0.5412020000000 1.0
C      1  0.4511090000000  0.5725180000000  0.4432270000000 1.0
C      1  0.5072060000000  0.4262210000000  0.4924360000000 1.0
C      1  0.4758660000000  0.3963200000000  0.5383150000000 1.0
C      1  0.5714090000000  0.4440130000000  0.5391790000000 1.0
C      1  0.5749140000000  0.4452740000000  0.4824530000000 1.0
C      1  0.4282540000000  0.4324830000000  0.5036060000000 1.0
C      1  0.4490970000000  0.4534270000000  0.4587980000000 1.0
C      1  0.4812260000000  0.4832850000000  0.5956740000000 1.0
C      1  0.4396950000000  0.5954770000000  0.4853590000000 1.0
C      1  0.5047260000000  0.4564040000000  0.5606550000000 1.0
C      1  0.5739710000000  0.4608000000000  0.5123130000000 1.0
C      1  0.5127540000000  0.5305660000000  0.5337830000000 1.0
C      1  0.4897750000000  0.4487530000000  0.4246840000000 1.0
C      1  0.4423640000000  0.4975790000000  0.4213370000000 1.0
C      1  0.5406560000000  0.6037380000000  0.5105520000000 1.0
C      1  0.4956860000000  0.5889340000000  0.4976740000000 1.0
C      1  0.5612690000000  0.5328470000000  0.5602950000000 1.0
C      1  0.4361120000000  0.5677790000000  0.5013740000000 1.0
C      1  0.5533830000000  0.4569690000000  0.4643540000000 1.0
C      1  0.4744560000000  0.4499550000000  0.5749210000000 1.0
C      1  0.4752560000000  0.4403450000000  0.5116760000000 1.0
C      1  0.4597950000000  0.5514440000000  0.4851360000000 1.0
C      1  0.4882660000000  0.4926690000000  0.5637430000000 1.0
C      1  0.5057750000000  0.5639830000000  0.5134610000000 1.0
C      1  0.4419650000000  0.4840740000000  0.5292770000000 1.0
C      1  0.4760910000000  0.4256640000000  0.4815150000000 1.0
C      1  0.5639050000000  0.5149540000000  0.5887780000000 1.0
C      1  0.4442570000000  0.5288440000000  0.5707180000000 1.0
C      1  0.4907370000000  0.4182410000000  0.5305700000000 1.0
C      1  0.4304420000000  0.5059320000000  0.4520930000000 1.0
C      1  0.5058960000000  0.5184720000000  0.4445140000000 1.0
C      1  0.4122950000000  0.4733860000000  0.5388960000000 1.0
C      1  0.5908890000000  0.5133730000000  0.4613130000000 1.0
C      1  0.5667120000000  0.4354160000000  0.4335550000000 1.0
C      1  0.5220780000000  0.6035710000000  0.4902730000000 1.0
C      1  0.5015870000000  0.4896870000000  0.5029980000000 1.0
C      1  0.5309880000000  0.5274460000000  0.4258730000000 1.0
C      1  0.4841480000000  0.4932580000000  0.4506250000000 1.0
C      1  0.4446270000000  0.5289810000000  0.4668760000000 1.0
C      1  0.5312200000000  0.4509050000000  0.5403360000000 1.0
C      1  0.4380320000000  0.5219100000000  0.5172820000000 1.0
C      1  0.4071120000000  0.4789700000000  0.4854580000000 1.0
C      1  0.5420420000000  0.5221630000000  0.5355060000000 1.0
C      1  0.4735920000000  0.5176870000000  0.5459950000000 1.0
C      1  0.5315710000000  0.5613780000000  0.4617860000000 1.0
C      1  0.5505760000000  0.5734280000000  0.5223620000000 1.0
C      1  0.4212230000000  0.4502590000000  0.4787490000000 1.0
C      1  0.4221580000000  0.4715620000000  0.5707170000000 1.0
C      1  0.4728450000000  0.4949600000000  0.5204160000000 1.0
C      1  0.4993530000000  0.4779200000000  0.4263800000000 1.0
C      1  0.4310130000000  0.5487960000000  0.5572460000000 1.0
C      1  0.4473330000000  0.4929090000000  0.3742180000000 1.0
C      1  0.5176000000000  0.4199370000000  0.5371170000000 1.0
C      1  0.4809050000000  0.4688230000000  0.5406170000000 1.0
C      1  0.5292220000000  0.5407110000000  0.5685360000000 1.0
C      1  0.4825220000000  0.5739770000000  0.4699380000000 1.0
C      1  0.4599140000000  0.5422430000000  0.5306760000000 1.0
C      1  0.5054640000000  0.5613840000000  0.5656290000000 1.0
C      1  0.4923470000000  0.5237230000000  0.5958200000000 1.0
C      1  0.5252190000000  0.4186520000000  0.4211010000000 1.0
C      1  0.5482670000000  0.4761190000000  0.5251700000000 1.0
C      1  0.5008960000000  0.4593020000000  0.4877330000000 1.0
C      1  0.4749150000000  0.5612540000000  0.4328300000000 1.0
C      1  0.4320750000000  0.5540390000000  0.4518010000000 1.0
C      1  0.5171640000000  0.5340500000000  0.3987600000000 1.0
C      1  0.5423980000000  0.4087680000000  0.5274100000000 1.0
C      1  0.4562340000000  0.5935400000000  0.4635060000000 1.0
C      1  0.5700670000000  0.5594480000000  0.5464790000000 1.0
C      1  0.5324170000000  0.4935210000000  0.5498650000000 1.0
C      1  0.4083580000000  0.5055210000000  0.4741500000000 1.0
C      1  0.4098890000000  0.5045050000000  0.5253590000000 1.0
C      1  0.5533530000000  0.4900850000000  0.4567600000000 1.0
C      1  0.4096130000000  0.5546490000000  0.4916050000000 1.0
C      1  0.5017200000000  0.5136110000000  0.3890770000000 1.0
C      1  0.5316720000000  0.4713800000000  0.4842960000000 1.0
C      1  0.4484530000000  0.4149510000000  0.4963940000000 1.0
C      1  0.5807510000000  0.4838070000000  0.5562170000000 1.0
C      1  0.5350420000000  0.5056040000000  0.6018410000000 1.0
C      1  0.5708580000000  0.4172740000000  0.4854460000000 1.0
C      1  0.4890260000000  0.5553450000000  0.5900550000000 1.0
C      1  0.5306720000000  0.5945690000000  0.4656270000000 1.0
C      1  0.4599650000000  0.5935480000000  0.5368500000000 1.0
END
