TITL C-2848507-1641-113 0.00119790095352265 125000 -795.001639458971 0 0 143 (C1) n - 1
REM
REM in /home/bkarasulu/work/CARBON/AIRSS/Generating-Clusters/AIREBO/with-SteepDescent/Only-C1/SD-CG-opt/Try1-1.4A-POS3A/HFTN-CG
REM
REM
REM
REM
REM
REM ./C.cell (11c1c37f851c82e70ff6c80c92926a4b)
REM
REM compiler GCC version 9.2.1 20190827 (Red Hat 9.2.1-1)
REM options -cpp -mtune=generic -march=x86-64 -g -O0 -fpre-include=/usr/include/finclude/math-vector-fortran.h
REM seed -1813154034 -646676058 683118223 131429808 846164740 1739189149 -76857307 951786175 -1053504621 -1562584502 -1580852219 -1929646503 144334572 -1851316076 -2135637861 506246948 -483316022 925867156 -229958163 -1081321225 1469255097 -482215332 -484689757 -1601586372 1510834243 -815036186 1417116722 -796602915 -162451244 -821006922 -1983979251 343317572 1035740177
REM
CELL 1.54180   50.00000   50.00000   50.00000   90.00000   90.00000   90.00000
LATT -1
SFAC C  
C      1  0.4766250000000  0.4731020000000  0.5891600000000 1.0
C      1  0.5399310000000  0.5579660000000  0.5171900000000 1.0
C      1  0.4689440000000  0.5701700000000  0.5564200000000 1.0
C      1  0.4874040000000  0.4826290000000  0.4289370000000 1.0
C      1  0.4254280000000  0.4989190000000  0.5848900000000 1.0
C      1  0.4527470000000  0.4391600000000  0.4326500000000 1.0
C      1  0.5047560000000  0.5209310000000  0.4521790000000 1.0
C      1  0.4527730000000  0.4144470000000  0.4879520000000 1.0
C      1  0.5486610000000  0.4169510000000  0.4893940000000 1.0
C      1  0.5020020000000  0.5635250000000  0.5516390000000 1.0
C      1  0.5120550000000  0.5903090000000  0.5332450000000 1.0
C      1  0.5813380000000  0.4483690000000  0.4794200000000 1.0
C      1  0.4863330000000  0.4638260000000  0.5307750000000 1.0
C      1  0.4748470000000  0.5244400000000  0.5736380000000 1.0
C      1  0.4755900000000  0.5090050000000  0.4866720000000 1.0
C      1  0.4151200000000  0.5700360000000  0.4794430000000 1.0
C      1  0.5526620000000  0.5060670000000  0.5696980000000 1.0
C      1  0.5062490000000  0.4293660000000  0.5326960000000 1.0
C      1  0.4555420000000  0.5589910000000  0.5783780000000 1.0
C      1  0.5185820000000  0.4603590000000  0.5302030000000 1.0
C      1  0.5752660000000  0.5703140000000  0.4869870000000 1.0
C      1  0.5561380000000  0.4518040000000  0.4586350000000 1.0
C      1  0.5039150000000  0.4036730000000  0.4706300000000 1.0
C      1  0.4810230000000  0.4878330000000  0.4605170000000 1.0
C      1  0.5592060000000  0.4326990000000  0.5461530000000 1.0
C      1  0.5738710000000  0.4286430000000  0.4982130000000 1.0
C      1  0.5049440000000  0.4317330000000  0.4989700000000 1.0
C      1  0.4148210000000  0.5406140000000  0.4971050000000 1.0
C      1  0.5788980000000  0.5391130000000  0.4457480000000 1.0
C      1  0.5022830000000  0.5821880000000  0.4435800000000 1.0
C      1  0.5804550000000  0.5333350000000  0.5200050000000 1.0
C      1  0.4291900000000  0.5122370000000  0.4885320000000 1.0
C      1  0.4973600000000  0.4281660000000  0.4233750000000 1.0
C      1  0.4397370000000  0.4637820000000  0.4305850000000 1.0
C      1  0.4537400000000  0.5708300000000  0.4416780000000 1.0
C      1  0.5129290000000  0.5188570000000  0.3983250000000 1.0
C      1  0.4211480000000  0.4828440000000  0.4938120000000 1.0
C      1  0.4516900000000  0.4821490000000  0.4467170000000 1.0
C      1  0.4225470000000  0.5003840000000  0.5361260000000 1.0
C      1  0.4680410000000  0.4023860000000  0.5438990000000 1.0
C      1  0.5594980000000  0.4684100000000  0.4287470000000 1.0
C      1  0.4413210000000  0.5426420000000  0.4357030000000 1.0
C      1  0.5680540000000  0.4638230000000  0.5478970000000 1.0
C      1  0.5331120000000  0.3956150000000  0.4803950000000 1.0
C      1  0.4548210000000  0.4672520000000  0.5640730000000 1.0
C      1  0.5457540000000  0.4820220000000  0.4087630000000 1.0
C      1  0.5381550000000  0.5368000000000  0.4947580000000 1.0
C      1  0.5002190000000  0.4932960000000  0.3997160000000 1.0
C      1  0.4696080000000  0.4685870000000  0.4044710000000 1.0
C      1  0.5291080000000  0.5845520000000  0.5122640000000 1.0
C      1  0.4744100000000  0.4390140000000  0.4143940000000 1.0
C      1  0.4420280000000  0.5588920000000  0.4969880000000 1.0
C      1  0.4013820000000  0.4771690000000  0.5115280000000 1.0
C      1  0.5298700000000  0.4431750000000  0.4788550000000 1.0
C      1  0.5052320000000  0.5919050000000  0.4721700000000 1.0
C      1  0.4818330000000  0.5715340000000  0.4265370000000 1.0
C      1  0.4498970000000  0.5704270000000  0.5280060000000 1.0
C      1  0.4666000000000  0.4868160000000  0.5388790000000 1.0
C      1  0.4366440000000  0.4767120000000  0.4026170000000 1.0
C      1  0.4675150000000  0.5249990000000  0.4240130000000 1.0
C      1  0.4593000000000  0.5009600000000  0.4076250000000 1.0
C      1  0.4709750000000  0.4424260000000  0.5169470000000 1.0
C      1  0.5690840000000  0.4711260000000  0.5793450000000 1.0
C      1  0.5385550000000  0.4874560000000  0.4759880000000 1.0
C      1  0.5716720000000  0.5013170000000  0.5126420000000 1.0
C      1  0.5167360000000  0.5277460000000  0.5935830000000 1.0
C      1  0.5194780000000  0.4715220000000  0.4084270000000 1.0
C      1  0.5632670000000  0.4843090000000  0.4559080000000 1.0
C      1  0.5575360000000  0.5273510000000  0.5444180000000 1.0
C      1  0.5143100000000  0.4900320000000  0.4575920000000 1.0
C      1  0.4844290000000  0.5704350000000  0.4842270000000 1.0
C      1  0.5401200000000  0.5532640000000  0.5720370000000 1.0
C      1  0.4852780000000  0.5880900000000  0.5247500000000 1.0
C      1  0.5975020000000  0.5199240000000  0.4636690000000 1.0
C      1  0.5562910000000  0.5109060000000  0.4877310000000 1.0
C      1  0.5027960000000  0.4542610000000  0.5918350000000 1.0
C      1  0.4195880000000  0.5707510000000  0.5386250000000 1.0
C      1  0.5418540000000  0.5102750000000  0.3994780000000 1.0
C      1  0.4778520000000  0.5565110000000  0.5145430000000 1.0
C      1  0.4577420000000  0.5244910000000  0.5465670000000 1.0
C      1  0.5979860000000  0.4708010000000  0.4812720000000 1.0
C      1  0.4085710000000  0.5520750000000  0.5513380000000 1.0
C      1  0.5123100000000  0.4618950000000  0.4385450000000 1.0
C      1  0.5989750000000  0.4570590000000  0.5356660000000 1.0
C      1  0.4989590000000  0.5410310000000  0.5769880000000 1.0
C      1  0.4758080000000  0.5227150000000  0.5178110000000 1.0
C      1  0.4599930000000  0.4311060000000  0.4596630000000 1.0
C      1  0.5307510000000  0.4976700000000  0.5450510000000 1.0
C      1  0.4593330000000  0.6000690000000  0.5138170000000 1.0
C      1  0.5513820000000  0.5772420000000  0.4700160000000 1.0
C      1  0.6011300000000  0.4875150000000  0.5074460000000 1.0
C      1  0.4592840000000  0.5932570000000  0.4860300000000 1.0
C      1  0.4247980000000  0.4383800000000  0.5297820000000 1.0
C      1  0.5303820000000  0.5904820000000  0.4844140000000 1.0
C      1  0.4606100000000  0.5532570000000  0.4689630000000 1.0
C      1  0.5124500000000  0.5182870000000  0.4983720000000 1.0
C      1  0.5517780000000  0.4821670000000  0.5273210000000 1.0
C      1  0.5232390000000  0.5388350000000  0.4309930000000 1.0
C      1  0.4394960000000  0.5869570000000  0.4665700000000 1.0
C      1  0.5018770000000  0.5417150000000  0.4789870000000 1.0
C      1  0.5500130000000  0.5561250000000  0.4433970000000 1.0
C      1  0.5183970000000  0.4521840000000  0.5632100000000 1.0
C      1  0.5809910000000  0.4335880000000  0.5253450000000 1.0
C      1  0.4874530000000  0.4228250000000  0.5528290000000 1.0
C      1  0.4214660000000  0.5284640000000  0.4596130000000 1.0
C      1  0.5120990000000  0.4852400000000  0.5683330000000 1.0
C      1  0.5548790000000  0.5358660000000  0.5833390000000 1.0
C      1  0.5382460000000  0.4279330000000  0.5618610000000 1.0
C      1  0.4838600000000  0.4050710000000  0.4980750000000 1.0
C      1  0.4983280000000  0.4900910000000  0.5128180000000 1.0
C      1  0.4270680000000  0.4768680000000  0.5680950000000 1.0
C      1  0.5700140000000  0.5608690000000  0.5145030000000 1.0
C      1  0.5222240000000  0.4991960000000  0.5943830000000 1.0
C      1  0.5911510000000  0.4899180000000  0.4612940000000 1.0
C      1  0.5502360000000  0.4870070000000  0.5957720000000 1.0
C      1  0.4482000000000  0.5030070000000  0.5152110000000 1.0
C      1  0.4345400000000  0.4381770000000  0.4999170000000 1.0
C      1  0.4126000000000  0.4681850000000  0.5408400000000 1.0
C      1  0.5859930000000  0.5099510000000  0.5512600000000 1.0
C      1  0.3968970000000  0.5484680000000  0.4623920000000 1.0
C      1  0.4530000000000  0.4260290000000  0.5328800000000 1.0
C      1  0.5268940000000  0.5420890000000  0.5427730000000 1.0
C      1  0.4772380000000  0.4456680000000  0.4850910000000 1.0
C      1  0.5064680000000  0.5172920000000  0.5315550000000 1.0
C      1  0.5345870000000  0.4668800000000  0.5027780000000 1.0
C      1  0.4417280000000  0.4644030000000  0.4931560000000 1.0
C      1  0.5657510000000  0.5403920000000  0.4763130000000 1.0
C      1  0.4064640000000  0.5223910000000  0.5197730000000 1.0
C      1  0.5982540000000  0.4886370000000  0.5395670000000 1.0
C      1  0.4227170000000  0.5263900000000  0.5560370000000 1.0
C      1  0.4446420000000  0.5082690000000  0.4522340000000 1.0
C      1  0.5088070000000  0.4330270000000  0.4541510000000 1.0
C      1  0.4788680000000  0.3866240000000  0.5226110000000 1.0
C      1  0.4776650000000  0.4431970000000  0.5717820000000 1.0
C      1  0.4714310000000  0.4766780000000  0.4963810000000 1.0
C      1  0.5190400000000  0.5578960000000  0.4567160000000 1.0
C      1  0.6195930000000  0.5048000000000  0.4850900000000 1.0
C      1  0.5977370000000  0.5265390000000  0.4959310000000 1.0
C      1  0.4424630000000  0.5278550000000  0.5823640000000 1.0
C      1  0.4938870000000  0.5421640000000  0.4141510000000 1.0
C      1  0.4820730000000  0.4960000000000  0.5660470000000 1.0
C      1  0.4710530000000  0.3998430000000  0.4624600000000 1.0
C      1  0.4716590000000  0.5264450000000  0.4577460000000 1.0
END
