TITL C-2847951-7423-504 0.000113481114058224 125000 -565.726778569772 0 0 104 (C1) n - 1
REM
REM in /home/bkarasulu/work/CARBON/AIRSS/Generating-Clusters/AIREBO/with-SteepDescent/Only-C1/SD-CG-opt/Try1-1.4A-POS3A/HFTN-CG
REM
REM
REM
REM
REM
REM ./C.cell (11c1c37f851c82e70ff6c80c92926a4b)
REM
REM compiler GCC version 9.2.1 20190827 (Red Hat 9.2.1-1)
REM options -cpp -mtune=generic -march=x86-64 -g -O0 -fpre-include=/usr/include/finclude/math-vector-fortran.h
REM seed -1674807745 558101999 506174455 332709999 886437816 -1522358860 1705971950 1167797733 1711604258 -975446357 996907469 -1730951355 -1579129460 1863484406 1626547216 -1612990704 -685500911 2125030139 740394929 -354801843 -633864694 -1960069976 230517405 -298253107 -344907457 -38043273 -1322326584 -923947089 1619500069 1647435165 730721298 2043609532 1276002105
REM
CELL 1.54180   50.00000   50.00000   50.00000   90.00000   90.00000   90.00000
LATT -1
SFAC C  
C      1  0.5606580000000  0.5000590000000  0.5075980000000 1.0
C      1  0.4843830000000  0.5708610000000  0.5473640000000 1.0
C      1  0.4342910000000  0.4592080000000  0.5433670000000 1.0
C      1  0.5243990000000  0.5017300000000  0.5815450000000 1.0
C      1  0.4669210000000  0.4115810000000  0.5162020000000 1.0
C      1  0.4435230000000  0.5523720000000  0.5376910000000 1.0
C      1  0.5846990000000  0.5565040000000  0.5065580000000 1.0
C      1  0.5448210000000  0.5293220000000  0.5089530000000 1.0
C      1  0.4836540000000  0.4203440000000  0.4725150000000 1.0
C      1  0.4666280000000  0.4507510000000  0.5652970000000 1.0
C      1  0.5499840000000  0.4291290000000  0.5354210000000 1.0
C      1  0.5423000000000  0.5431230000000  0.4390470000000 1.0
C      1  0.5524480000000  0.4333120000000  0.5077060000000 1.0
C      1  0.5058600000000  0.5378010000000  0.4640640000000 1.0
C      1  0.4819040000000  0.5291450000000  0.5685830000000 1.0
C      1  0.5341950000000  0.5670270000000  0.5137830000000 1.0
C      1  0.4402640000000  0.5072960000000  0.4463970000000 1.0
C      1  0.5931090000000  0.5483420000000  0.5307900000000 1.0
C      1  0.5300370000000  0.4704200000000  0.4331300000000 1.0
C      1  0.5279990000000  0.4936530000000  0.5145800000000 1.0
C      1  0.4195720000000  0.5018920000000  0.5169610000000 1.0
C      1  0.4599730000000  0.5761890000000  0.5012120000000 1.0
C      1  0.4853760000000  0.5714680000000  0.5190730000000 1.0
C      1  0.4928350000000  0.4625830000000  0.4451230000000 1.0
C      1  0.5458750000000  0.5033140000000  0.4789660000000 1.0
C      1  0.5462300000000  0.4361940000000  0.4591130000000 1.0
C      1  0.5706730000000  0.5333160000000  0.4881530000000 1.0
C      1  0.5910380000000  0.4992590000000  0.5360650000000 1.0
C      1  0.4980250000000  0.5340350000000  0.4337930000000 1.0
C      1  0.4631510000000  0.5383790000000  0.5137110000000 1.0
C      1  0.4590200000000  0.5006760000000  0.4819020000000 1.0
C      1  0.4843470000000  0.4592930000000  0.5017600000000 1.0
C      1  0.5333950000000  0.5572100000000  0.4157950000000 1.0
C      1  0.5223170000000  0.4481580000000  0.4518540000000 1.0
C      1  0.4576260000000  0.4269500000000  0.5457310000000 1.0
C      1  0.4875010000000  0.4112170000000  0.5417260000000 1.0
C      1  0.4264920000000  0.4506010000000  0.4965700000000 1.0
C      1  0.4709110000000  0.4999490000000  0.4504670000000 1.0
C      1  0.5342300000000  0.5570170000000  0.4669630000000 1.0
C      1  0.4585600000000  0.5644720000000  0.4692450000000 1.0
C      1  0.4340490000000  0.4521680000000  0.5711080000000 1.0
C      1  0.5881950000000  0.4867140000000  0.4611020000000 1.0
C      1  0.4998970000000  0.4522960000000  0.5664920000000 1.0
C      1  0.5096890000000  0.4912980000000  0.5545790000000 1.0
C      1  0.5390170000000  0.4131720000000  0.4764150000000 1.0
C      1  0.4767140000000  0.5564990000000  0.4258280000000 1.0
C      1  0.4740360000000  0.5208280000000  0.5365560000000 1.0
C      1  0.4281710000000  0.4782400000000  0.4509850000000 1.0
C      1  0.4402330000000  0.4398440000000  0.5195130000000 1.0
C      1  0.4260380000000  0.5416570000000  0.4744030000000 1.0
C      1  0.5246660000000  0.5407110000000  0.5331620000000 1.0
C      1  0.5613470000000  0.4772450000000  0.5551800000000 1.0
C      1  0.4954140000000  0.4259540000000  0.5039300000000 1.0
C      1  0.5369000000000  0.5487120000000  0.5627620000000 1.0
C      1  0.4436620000000  0.5229160000000  0.4932000000000 1.0
C      1  0.4668270000000  0.4619590000000  0.4232240000000 1.0
C      1  0.5436390000000  0.5146420000000  0.4418710000000 1.0
C      1  0.5156970000000  0.4006100000000  0.4902990000000 1.0
C      1  0.4937890000000  0.4845720000000  0.4710760000000 1.0
C      1  0.5068190000000  0.5551760000000  0.4999150000000 1.0
C      1  0.4899480000000  0.5066480000000  0.4286020000000 1.0
C      1  0.4345510000000  0.5351840000000  0.4481380000000 1.0
C      1  0.4321550000000  0.5602090000000  0.5002550000000 1.0
C      1  0.4682860000000  0.5953640000000  0.4755450000000 1.0
C      1  0.4813080000000  0.4805550000000  0.5671860000000 1.0
C      1  0.4872160000000  0.5022110000000  0.4993960000000 1.0
C      1  0.4948780000000  0.5983660000000  0.4710370000000 1.0
C      1  0.5036550000000  0.5547570000000  0.5665820000000 1.0
C      1  0.5782560000000  0.4757140000000  0.5164500000000 1.0
C      1  0.5098550000000  0.5764860000000  0.4735850000000 1.0
C      1  0.5048030000000  0.5179380000000  0.5381570000000 1.0
C      1  0.4568890000000  0.5684620000000  0.5544950000000 1.0
C      1  0.4932510000000  0.4611290000000  0.5343340000000 1.0
C      1  0.5132730000000  0.5217750000000  0.4999240000000 1.0
C      1  0.5829020000000  0.5255450000000  0.5446570000000 1.0
C      1  0.5060390000000  0.4841220000000  0.4222330000000 1.0
C      1  0.5554250000000  0.5629570000000  0.4903080000000 1.0
C      1  0.4419030000000  0.4621200000000  0.4264220000000 1.0
C      1  0.5153610000000  0.4702810000000  0.4931440000000 1.0
C      1  0.4729330000000  0.4409060000000  0.4587280000000 1.0
C      1  0.4424070000000  0.4827260000000  0.5249040000000 1.0
C      1  0.5307760000000  0.4518500000000  0.5519090000000 1.0
C      1  0.4673430000000  0.5028710000000  0.5780730000000 1.0
C      1  0.5115870000000  0.5269600000000  0.5850250000000 1.0
C      1  0.4143890000000  0.4719070000000  0.4799670000000 1.0
C      1  0.4033330000000  0.4919010000000  0.4970170000000 1.0
C      1  0.5466910000000  0.4678610000000  0.5264760000000 1.0
C      1  0.5405050000000  0.5021820000000  0.5451860000000 1.0
C      1  0.4536390000000  0.5563790000000  0.4397070000000 1.0
C      1  0.5559770000000  0.5269070000000  0.5535530000000 1.0
C      1  0.4241050000000  0.5330900000000  0.5191360000000 1.0
C      1  0.4542640000000  0.4702370000000  0.4955820000000 1.0
C      1  0.5100830000000  0.4315830000000  0.5340870000000 1.0
C      1  0.5185030000000  0.5066340000000  0.4633330000000 1.0
C      1  0.4749380000000  0.4888210000000  0.5268460000000 1.0
C      1  0.4501250000000  0.4564560000000  0.4651120000000 1.0
C      1  0.4789800000000  0.5437480000000  0.4840870000000 1.0
C      1  0.5680070000000  0.4616130000000  0.4641450000000 1.0
C      1  0.5383700000000  0.4746540000000  0.5767550000000 1.0
C      1  0.5520820000000  0.4843370000000  0.4443350000000 1.0
C      1  0.5712160000000  0.4519660000000  0.4963720000000 1.0
C      1  0.5047100000000  0.5564420000000  0.4102830000000 1.0
C      1  0.5765730000000  0.5093970000000  0.4700730000000 1.0
C      1  0.5244880000000  0.4393850000000  0.4924860000000 1.0
END
