TITL C-2848505-4874-720 -0.00205087750728775 125000 -326.895418169938 0 0 64 (C1) n - 1
REM
REM in /home/bkarasulu/work/CARBON/AIRSS/Generating-Clusters/AIREBO/with-SteepDescent/Only-C1/SD-CG-opt/Try1-1.4A-POS3A/HFTN-CG
REM
REM
REM
REM
REM
REM ./C.cell (11c1c37f851c82e70ff6c80c92926a4b)
REM
REM compiler GCC version 9.2.1 20190827 (Red Hat 9.2.1-1)
REM options -cpp -mtune=generic -march=x86-64 -g -O0 -fpre-include=/usr/include/finclude/math-vector-fortran.h
REM seed -1300207256 1627796468 1092540562 -1110805485 1641778544 -1719357368 1134352611 -1762969022 1120973448 1901527317 -1871400980 -178087566 -1931321198 -1326644463 -1923749090 -100929325 2001575496 -1565008043 1624310152 -389565996 -702560015 1170945211 1030867483 1886161008 -937914351 -1788196135 1847327415 -1719126989 -878960656 962072993 -1193381691 1308764138 2144630462
REM
CELL 1.54180   50.00000   50.00000   50.00000   90.00000   90.00000   90.00000
LATT -1
SFAC C  
C      1  0.5084670000000  0.5624710000000  0.4959180000000 1.0
C      1  0.4331700000000  0.5533350000000  0.4949210000000 1.0
C      1  0.5563300000000  0.5736980000000  0.5328830000000 1.0
C      1  0.4992120000000  0.5730550000000  0.5236140000000 1.0
C      1  0.4915730000000  0.5212990000000  0.4954450000000 1.0
C      1  0.5218130000000  0.5421670000000  0.4465570000000 1.0
C      1  0.5504260000000  0.5210020000000  0.5441220000000 1.0
C      1  0.5599990000000  0.5504630000000  0.5115850000000 1.0
C      1  0.4871620000000  0.4567000000000  0.5808890000000 1.0
C      1  0.4975820000000  0.5091650000000  0.5731350000000 1.0
C      1  0.5190090000000  0.5177900000000  0.5482490000000 1.0
C      1  0.4585050000000  0.5635760000000  0.4841810000000 1.0
C      1  0.4697520000000  0.4547440000000  0.4562080000000 1.0
C      1  0.4318590000000  0.4765720000000  0.5088520000000 1.0
C      1  0.5599500000000  0.4729080000000  0.4745770000000 1.0
C      1  0.5477040000000  0.5408690000000  0.4574170000000 1.0
C      1  0.4449620000000  0.4738640000000  0.5401310000000 1.0
C      1  0.4635540000000  0.4788510000000  0.5681620000000 1.0
C      1  0.5144420000000  0.4456560000000  0.5653240000000 1.0
C      1  0.4428880000000  0.4735890000000  0.4563920000000 1.0
C      1  0.4386170000000  0.5064230000000  0.5326110000000 1.0
C      1  0.5184610000000  0.4917540000000  0.5263790000000 1.0
C      1  0.5282050000000  0.5739930000000  0.5287050000000 1.0
C      1  0.4657730000000  0.4765890000000  0.5064070000000 1.0
C      1  0.5308660000000  0.5453000000000  0.4998720000000 1.0
C      1  0.5667630000000  0.5318910000000  0.4842720000000 1.0
C      1  0.5091670000000  0.4946180000000  0.4401790000000 1.0
C      1  0.5131780000000  0.4262040000000  0.5462360000000 1.0
C      1  0.4546190000000  0.5114880000000  0.4838080000000 1.0
C      1  0.5065370000000  0.4365510000000  0.4626660000000 1.0
C      1  0.4469770000000  0.4924820000000  0.4325000000000 1.0
C      1  0.5226710000000  0.4634590000000  0.5092420000000 1.0
C      1  0.4922090000000  0.4797290000000  0.4165730000000 1.0
C      1  0.4526640000000  0.5197780000000  0.4385610000000 1.0
C      1  0.4697430000000  0.5312690000000  0.4635200000000 1.0
C      1  0.4682520000000  0.4708020000000  0.4261130000000 1.0
C      1  0.4793270000000  0.4883350000000  0.4804880000000 1.0
C      1  0.4769700000000  0.4384700000000  0.5098420000000 1.0
C      1  0.5551890000000  0.4534910000000  0.5090320000000 1.0
C      1  0.4883560000000  0.5567800000000  0.4762270000000 1.0
C      1  0.5233460000000  0.5163020000000  0.5031880000000 1.0
C      1  0.5288320000000  0.4741400000000  0.5535830000000 1.0
C      1  0.5319390000000  0.4615880000000  0.4706060000000 1.0
C      1  0.4763610000000  0.4622860000000  0.5341050000000 1.0
C      1  0.4955580000000  0.4794770000000  0.5566800000000 1.0
C      1  0.4692160000000  0.4373420000000  0.4834730000000 1.0
C      1  0.5008290000000  0.5213390000000  0.4626870000000 1.0
C      1  0.5113250000000  0.5246970000000  0.4244630000000 1.0
C      1  0.5602260000000  0.4847140000000  0.5127820000000 1.0
C      1  0.5682530000000  0.5176740000000  0.5152180000000 1.0
C      1  0.5066050000000  0.4352270000000  0.5176560000000 1.0
C      1  0.5252550000000  0.4349520000000  0.4906550000000 1.0
C      1  0.4371290000000  0.4858200000000  0.4802160000000 1.0
C      1  0.4883400000000  0.5318800000000  0.5501700000000 1.0
C      1  0.4802190000000  0.5536570000000  0.5321060000000 1.0
C      1  0.4689510000000  0.5406730000000  0.5070600000000 1.0
C      1  0.5545950000000  0.4903120000000  0.5430720000000 1.0
C      1  0.5412570000000  0.4963590000000  0.4895680000000 1.0
C      1  0.5426300000000  0.4914480000000  0.4401740000000 1.0
C      1  0.5534490000000  0.5099160000000  0.4624010000000 1.0
C      1  0.4673930000000  0.5059430000000  0.5473360000000 1.0
C      1  0.4398790000000  0.5247040000000  0.5094850000000 1.0
C      1  0.4857520000000  0.4985130000000  0.5200050000000 1.0
C      1  0.4997590000000  0.4698630000000  0.4615180000000 1.0
END
