TITL C-2848499-1157-90 -7.93065483500541e-05 125000 -470.220073855636 0 0 89 (C1) n - 1
REM
REM in /home/bkarasulu/work/CARBON/AIRSS/Generating-Clusters/AIREBO/with-SteepDescent/Only-C1/SD-CG-opt/Try1-1.4A-POS3A/HFTN-CG
REM
REM
REM
REM
REM
REM ./C.cell (11c1c37f851c82e70ff6c80c92926a4b)
REM
REM compiler GCC version 9.2.1 20190827 (Red Hat 9.2.1-1)
REM options -cpp -mtune=generic -march=x86-64 -g -O0 -fpre-include=/usr/include/finclude/math-vector-fortran.h
REM seed -892618156 -1828526627 16404990 -1113198632 -379020387 -973081588 111281322 2127394011 -1213573224 1674819591 -816044310 1857815913 -2014511248 -1513194404 -708856976 241531019 -90782388 1208523464 255283693 -1135785885 1265693776 -1897528015 -1332040433 -610990945 587193957 895393492 -332725774 1942405053 -302818686 2007223839 -1562996377 1730455055 2031927604
REM
CELL 1.54180   50.00000   50.00000   50.00000   90.00000   90.00000   90.00000
LATT -1
SFAC C  
C      1  0.5157180000000  0.5059570000000  0.5914080000000 1.0
C      1  0.4946760000000  0.4522330000000  0.4601350000000 1.0
C      1  0.4958820000000  0.5370080000000  0.4688900000000 1.0
C      1  0.5101230000000  0.4497830000000  0.5571880000000 1.0
C      1  0.5680580000000  0.4597890000000  0.4907300000000 1.0
C      1  0.4554180000000  0.4707380000000  0.5388680000000 1.0
C      1  0.4429430000000  0.4374120000000  0.4764680000000 1.0
C      1  0.5061590000000  0.4878520000000  0.4950150000000 1.0
C      1  0.5017530000000  0.5358060000000  0.5828140000000 1.0
C      1  0.5151300000000  0.5686800000000  0.5372400000000 1.0
C      1  0.5384830000000  0.5119440000000  0.4459670000000 1.0
C      1  0.5877730000000  0.4841700000000  0.5051070000000 1.0
C      1  0.4896330000000  0.5328640000000  0.5511600000000 1.0
C      1  0.5598150000000  0.4467950000000  0.5211180000000 1.0
C      1  0.4534570000000  0.4729170000000  0.4444080000000 1.0
C      1  0.4620010000000  0.5219020000000  0.5352340000000 1.0
C      1  0.5356890000000  0.5455040000000  0.4412660000000 1.0
C      1  0.5763400000000  0.5125560000000  0.5451230000000 1.0
C      1  0.4281440000000  0.4520120000000  0.4506660000000 1.0
C      1  0.5060530000000  0.5169250000000  0.4491290000000 1.0
C      1  0.5157610000000  0.4780420000000  0.5719610000000 1.0
C      1  0.4884200000000  0.5260990000000  0.4964560000000 1.0
C      1  0.4148790000000  0.4673780000000  0.5112060000000 1.0
C      1  0.5256830000000  0.4330230000000  0.4938970000000 1.0
C      1  0.4869690000000  0.5648300000000  0.5447040000000 1.0
C      1  0.4140990000000  0.5319690000000  0.5340300000000 1.0
C      1  0.4555210000000  0.5212520000000  0.4675770000000 1.0
C      1  0.4512680000000  0.4994290000000  0.4286430000000 1.0
C      1  0.5113450000000  0.4774190000000  0.4247000000000 1.0
C      1  0.5784020000000  0.4683470000000  0.5287080000000 1.0
C      1  0.4856970000000  0.4736460000000  0.5132790000000 1.0
C      1  0.5302410000000  0.4202640000000  0.5173420000000 1.0
C      1  0.5413890000000  0.5162080000000  0.4794180000000 1.0
C      1  0.4872780000000  0.5432900000000  0.4260690000000 1.0
C      1  0.5682150000000  0.4855490000000  0.5482450000000 1.0
C      1  0.4705700000000  0.4298570000000  0.4687510000000 1.0
C      1  0.4315020000000  0.5171640000000  0.4438620000000 1.0
C      1  0.5284990000000  0.4622510000000  0.4935960000000 1.0
C      1  0.4813070000000  0.5003430000000  0.4754250000000 1.0
C      1  0.5006510000000  0.4461970000000  0.5264900000000 1.0
C      1  0.4881080000000  0.5826080000000  0.5004710000000 1.0
C      1  0.4859960000000  0.4824870000000  0.4467900000000 1.0
C      1  0.5648790000000  0.4927370000000  0.4472980000000 1.0
C      1  0.5847350000000  0.5106670000000  0.4569210000000 1.0
C      1  0.5071370000000  0.5275710000000  0.5224300000000 1.0
C      1  0.4200370000000  0.5057870000000  0.5198680000000 1.0
C      1  0.5719860000000  0.5311330000000  0.4785430000000 1.0
C      1  0.4410780000000  0.4713980000000  0.4760400000000 1.0
C      1  0.5270940000000  0.5362180000000  0.4976400000000 1.0
C      1  0.5243180000000  0.5541310000000  0.5807420000000 1.0
C      1  0.5711740000000  0.5124300000000  0.5055030000000 1.0
C      1  0.5371370000000  0.4382280000000  0.5400610000000 1.0
C      1  0.4721880000000  0.5679160000000  0.5195930000000 1.0
C      1  0.4427770000000  0.4952230000000  0.4982170000000 1.0
C      1  0.4891420000000  0.5702540000000  0.4711600000000 1.0
C      1  0.4511520000000  0.4378890000000  0.5384260000000 1.0
C      1  0.5224920000000  0.4812210000000  0.4659310000000 1.0
C      1  0.5198480000000  0.5652930000000  0.4838630000000 1.0
C      1  0.5152940000000  0.5463570000000  0.4193780000000 1.0
C      1  0.4631370000000  0.4945540000000  0.5206120000000 1.0
C      1  0.4761710000000  0.4519360000000  0.5573240000000 1.0
C      1  0.4926700000000  0.5004520000000  0.5609770000000 1.0
C      1  0.5241480000000  0.5006310000000  0.5209490000000 1.0
C      1  0.4653210000000  0.4833880000000  0.5677300000000 1.0
C      1  0.5580900000000  0.5614610000000  0.5304040000000 1.0
C      1  0.5229620000000  0.5243660000000  0.4013450000000 1.0
C      1  0.4245000000000  0.5076340000000  0.4740950000000 1.0
C      1  0.4057090000000  0.4839160000000  0.4896980000000 1.0
C      1  0.4880790000000  0.4253260000000  0.5044190000000 1.0
C      1  0.5532420000000  0.5570850000000  0.5036630000000 1.0
C      1  0.5490760000000  0.5226120000000  0.5281320000000 1.0
C      1  0.5248270000000  0.4548940000000  0.4446350000000 1.0
C      1  0.5385410000000  0.4866420000000  0.5483990000000 1.0
C      1  0.5166140000000  0.5821890000000  0.5122460000000 1.0
C      1  0.4656200000000  0.5417590000000  0.5114570000000 1.0
C      1  0.4169030000000  0.4812730000000  0.5398210000000 1.0
C      1  0.5525370000000  0.4660370000000  0.4610870000000 1.0
C      1  0.4368370000000  0.4463060000000  0.5087160000000 1.0
C      1  0.4685970000000  0.4487370000000  0.5044870000000 1.0
C      1  0.5488000000000  0.5545490000000  0.4696250000000 1.0
C      1  0.5501080000000  0.4885200000000  0.4936420000000 1.0
C      1  0.4802910000000  0.5106280000000  0.4283800000000 1.0
C      1  0.5358160000000  0.5449400000000  0.5500920000000 1.0
C      1  0.5239930000000  0.5141330000000  0.5583830000000 1.0
C      1  0.5028980000000  0.4227020000000  0.4749470000000 1.0
C      1  0.4370840000000  0.5229770000000  0.5515970000000 1.0
C      1  0.5265070000000  0.5001950000000  0.4168600000000 1.0
C      1  0.4343580000000  0.4958830000000  0.5612590000000 1.0
C      1  0.4690530000000  0.5493240000000  0.4538510000000 1.0
END
