TITL C-2848497-6229-518 0.000492205101958709 125000 -245.17037596073 0 0 44 (C1) n - 1
REM
REM in /home/bkarasulu/work/CARBON/AIRSS/Generating-Clusters/AIREBO/with-SteepDescent/Only-C1/SD-CG-opt/Try1-1.4A-POS3A/HFTN-CG
REM
REM
REM
REM
REM
REM ./C.cell (11c1c37f851c82e70ff6c80c92926a4b)
REM
REM compiler GCC version 9.2.1 20190827 (Red Hat 9.2.1-1)
REM options -cpp -mtune=generic -march=x86-64 -g -O0 -fpre-include=/usr/include/finclude/math-vector-fortran.h
REM seed -876495423 326763938 -1007511426 -1627350412 1830170363 -451072259 -1301271523 -431481325 922877228 763061608 1458237187 562041950 -1873835788 -2001336933 356337592 -100274098 1651073147 -1677101697 1327027044 1172798748 -173026075 1896486610 -1115840379 906159486 -1891429030 459333965 991296720 -1811078181 303815059 -442838399 881803810 -1776161098 1232270873
REM
CELL 1.54180   50.00000   50.00000   50.00000   90.00000   90.00000   90.00000
LATT -1
SFAC C  
C      1  0.4981390000000  0.4942230000000  0.4450630000000 1.0
C      1  0.4970030000000  0.5633520000000  0.4327940000000 1.0
C      1  0.5098680000000  0.4906170000000  0.5080270000000 1.0
C      1  0.4521680000000  0.5198870000000  0.5343730000000 1.0
C      1  0.4257460000000  0.4858680000000  0.5572050000000 1.0
C      1  0.4444410000000  0.5508340000000  0.5395980000000 1.0
C      1  0.5085720000000  0.5588810000000  0.4575140000000 1.0
C      1  0.4930970000000  0.5560080000000  0.5284860000000 1.0
C      1  0.5454230000000  0.4976210000000  0.6006190000000 1.0
C      1  0.5052930000000  0.5136650000000  0.4866900000000 1.0
C      1  0.5204090000000  0.4183220000000  0.4731220000000 1.0
C      1  0.5385930000000  0.5431120000000  0.4552560000000 1.0
C      1  0.4837040000000  0.4643010000000  0.5629110000000 1.0
C      1  0.5618240000000  0.3911400000000  0.4537040000000 1.0
C      1  0.5010320000000  0.4329250000000  0.4841080000000 1.0
C      1  0.4627060000000  0.5686680000000  0.5299070000000 1.0
C      1  0.5179320000000  0.5040390000000  0.5560280000000 1.0
C      1  0.5251710000000  0.4879540000000  0.4475890000000 1.0
C      1  0.4840470000000  0.5268590000000  0.5273430000000 1.0
C      1  0.5235640000000  0.5585250000000  0.5289350000000 1.0
C      1  0.4570210000000  0.4476960000000  0.5253040000000 1.0
C      1  0.4606460000000  0.5139920000000  0.4765540000000 1.0
C      1  0.4168800000000  0.5158080000000  0.4455170000000 1.0
C      1  0.4384460000000  0.5162050000000  0.4604020000000 1.0
C      1  0.4613120000000  0.5189710000000  0.5030680000000 1.0
C      1  0.4556660000000  0.4467750000000  0.4853530000000 1.0
C      1  0.5058380000000  0.5076860000000  0.5329450000000 1.0
C      1  0.5534040000000  0.4645680000000  0.5071980000000 1.0
C      1  0.4693520000000  0.4710630000000  0.5394980000000 1.0
C      1  0.5410540000000  0.4039060000000  0.4644380000000 1.0
C      1  0.5365560000000  0.4821730000000  0.4947870000000 1.0
C      1  0.5372510000000  0.5479090000000  0.5084860000000 1.0
C      1  0.4479480000000  0.4924980000000  0.5449170000000 1.0
C      1  0.4876650000000  0.4696530000000  0.5121390000000 1.0
C      1  0.5594740000000  0.5320480000000  0.4968390000000 1.0
C      1  0.5199150000000  0.5395790000000  0.4834210000000 1.0
C      1  0.5319880000000  0.5020760000000  0.5785610000000 1.0
C      1  0.4812550000000  0.4499410000000  0.4935110000000 1.0
C      1  0.5416760000000  0.4950490000000  0.4697520000000 1.0
C      1  0.4950210000000  0.5754450000000  0.4815790000000 1.0
C      1  0.4805340000000  0.5728000000000  0.5033860000000 1.0
C      1  0.5530650000000  0.5212060000000  0.4708260000000 1.0
C      1  0.4860250000000  0.5076430000000  0.4667560000000 1.0
C      1  0.5832720000000  0.3785090000000  0.4454910000000 1.0
END
