TITL C-2848508-1660-382 -0.00387179650693822 125000 -1015.14386948272 0 0 187 (C1) n - 1
REM
REM in /home/bkarasulu/work/CARBON/AIRSS/Generating-Clusters/AIREBO/with-SteepDescent/Only-C1/SD-CG-opt/Try1-1.4A-POS3A/HFTN-CG
REM
REM
REM
REM
REM
REM ./C.cell (11c1c37f851c82e70ff6c80c92926a4b)
REM
REM compiler GCC version 9.2.1 20190827 (Red Hat 9.2.1-1)
REM options -cpp -mtune=generic -march=x86-64 -g -O0 -fpre-include=/usr/include/finclude/math-vector-fortran.h
REM seed -1014361206 -394846155 2123017866 -1385057209 -1074923641 274659748 -1397108089 1314208401 1291668543 659025981 763253427 -978403557 1344598722 1606217410 -1130297220 1861903670 -2041883071 1076466480 2009733855 -1143853439 -828983437 1163821126 -567018110 -1560786221 129545896 1449083199 431867758 -728934360 -961095672 -1848550506 1287981268 1985784908 2041724615
REM
CELL 1.54180   50.00000   50.00000   50.00000   90.00000   90.00000   90.00000
LATT -1
SFAC C  
C      1  0.5946140000000  0.4414490000000  0.4519670000000 1.0
C      1  0.4731710000000  0.5501140000000  0.5552190000000 1.0
C      1  0.4974520000000  0.4751840000000  0.5070460000000 1.0
C      1  0.4648430000000  0.5742880000000  0.4638120000000 1.0
C      1  0.5306700000000  0.5898650000000  0.4975200000000 1.0
C      1  0.5076440000000  0.5505010000000  0.5926750000000 1.0
C      1  0.4791180000000  0.5222960000000  0.6193270000000 1.0
C      1  0.4801430000000  0.4797320000000  0.3789140000000 1.0
C      1  0.5806340000000  0.5489020000000  0.5620520000000 1.0
C      1  0.5797490000000  0.5420930000000  0.4336540000000 1.0
C      1  0.5001260000000  0.5109620000000  0.5353690000000 1.0
C      1  0.4801240000000  0.5619070000000  0.5105770000000 1.0
C      1  0.4747890000000  0.4378050000000  0.5584750000000 1.0
C      1  0.4183910000000  0.5530010000000  0.5578460000000 1.0
C      1  0.4603610000000  0.4779890000000  0.4064710000000 1.0
C      1  0.4631140000000  0.4977040000000  0.6021460000000 1.0
C      1  0.5267860000000  0.5311910000000  0.6008100000000 1.0
C      1  0.4942020000000  0.5721240000000  0.5397920000000 1.0
C      1  0.5433570000000  0.5625130000000  0.4685020000000 1.0
C      1  0.5199310000000  0.4467560000000  0.5899990000000 1.0
C      1  0.5496450000000  0.4657040000000  0.4619350000000 1.0
C      1  0.4342590000000  0.4950720000000  0.4079530000000 1.0
C      1  0.5846020000000  0.4908460000000  0.4523400000000 1.0
C      1  0.5258340000000  0.4395260000000  0.3946380000000 1.0
C      1  0.5119300000000  0.4040530000000  0.5566130000000 1.0
C      1  0.4106530000000  0.5361120000000  0.4558850000000 1.0
C      1  0.5103820000000  0.4741890000000  0.5739260000000 1.0
C      1  0.5195200000000  0.4610340000000  0.4769970000000 1.0
C      1  0.5445060000000  0.4698050000000  0.5954720000000 1.0
C      1  0.5819730000000  0.4702850000000  0.5603020000000 1.0
C      1  0.5177320000000  0.4165890000000  0.5850960000000 1.0
C      1  0.4324920000000  0.5861140000000  0.5060330000000 1.0
C      1  0.4324220000000  0.5021820000000  0.5940920000000 1.0
C      1  0.5787710000000  0.5741450000000  0.5123910000000 1.0
C      1  0.5057920000000  0.5437240000000  0.5091400000000 1.0
C      1  0.5455150000000  0.4490970000000  0.4129470000000 1.0
C      1  0.4432050000000  0.5128250000000  0.5175370000000 1.0
C      1  0.5333610000000  0.5572920000000  0.5068790000000 1.0
C      1  0.4621530000000  0.5797690000000  0.4334500000000 1.0
C      1  0.4817770000000  0.3979770000000  0.5158670000000 1.0
C      1  0.4326310000000  0.5473970000000  0.4023900000000 1.0
C      1  0.5668270000000  0.4954900000000  0.3919560000000 1.0
C      1  0.5392960000000  0.5868260000000  0.5486120000000 1.0
C      1  0.4954220000000  0.5008450000000  0.4407110000000 1.0
C      1  0.5869030000000  0.5332010000000  0.4829480000000 1.0
C      1  0.4452800000000  0.4313170000000  0.4225440000000 1.0
C      1  0.4562070000000  0.4282420000000  0.5197470000000 1.0
C      1  0.4262000000000  0.5470310000000  0.5059380000000 1.0
C      1  0.5338640000000  0.4060680000000  0.5304800000000 1.0
C      1  0.5516380000000  0.5420220000000  0.6113970000000 1.0
C      1  0.5085950000000  0.5917830000000  0.5635090000000 1.0
C      1  0.5014400000000  0.5337380000000  0.4344630000000 1.0
C      1  0.4134620000000  0.5694650000000  0.5283240000000 1.0
C      1  0.4299700000000  0.4964340000000  0.4476610000000 1.0
C      1  0.5371360000000  0.4733050000000  0.5030620000000 1.0
C      1  0.4985380000000  0.4977020000000  0.6217560000000 1.0
C      1  0.5501110000000  0.5565840000000  0.4360430000000 1.0
C      1  0.5293980000000  0.4899470000000  0.6159360000000 1.0
C      1  0.5338960000000  0.4694210000000  0.4337500000000 1.0
C      1  0.5288930000000  0.4284050000000  0.4791090000000 1.0
C      1  0.4048060000000  0.4732730000000  0.4948740000000 1.0
C      1  0.4763300000000  0.5234980000000  0.4139200000000 1.0
C      1  0.4044080000000  0.5142160000000  0.4942930000000 1.0
C      1  0.5927710000000  0.4312020000000  0.4757060000000 1.0
C      1  0.5893010000000  0.4714910000000  0.4308730000000 1.0
C      1  0.5744660000000  0.4427600000000  0.4250150000000 1.0
C      1  0.5015210000000  0.4780100000000  0.5463660000000 1.0
C      1  0.5703990000000  0.5764680000000  0.5440940000000 1.0
C      1  0.4102410000000  0.5146810000000  0.5247240000000 1.0
C      1  0.5571580000000  0.4137430000000  0.4745290000000 1.0
C      1  0.4262140000000  0.4346970000000  0.5599910000000 1.0
C      1  0.4323270000000  0.4562200000000  0.5798620000000 1.0
C      1  0.5114090000000  0.4147500000000  0.4044830000000 1.0
C      1  0.4527760000000  0.4312720000000  0.4532090000000 1.0
C      1  0.5131090000000  0.4525350000000  0.5270230000000 1.0
C      1  0.4392010000000  0.4101070000000  0.4946850000000 1.0
C      1  0.5321440000000  0.6042530000000  0.5254350000000 1.0
C      1  0.4620580000000  0.4939610000000  0.4366560000000 1.0
C      1  0.4437220000000  0.5216270000000  0.4049070000000 1.0
C      1  0.6004930000000  0.4506350000000  0.5096450000000 1.0
C      1  0.4916480000000  0.4429890000000  0.4844080000000 1.0
C      1  0.5301530000000  0.4180520000000  0.4406070000000 1.0
C      1  0.6012400000000  0.4751520000000  0.4982360000000 1.0
C      1  0.5593990000000  0.4414250000000  0.5910340000000 1.0
C      1  0.4308850000000  0.5157730000000  0.4745980000000 1.0
C      1  0.4935890000000  0.5062090000000  0.3954880000000 1.0
C      1  0.4226830000000  0.4573350000000  0.4501340000000 1.0
C      1  0.5562070000000  0.4058550000000  0.5075900000000 1.0
C      1  0.5234350000000  0.5020210000000  0.5847040000000 1.0
C      1  0.4668270000000  0.4010430000000  0.4903040000000 1.0
C      1  0.4428300000000  0.4780420000000  0.5371790000000 1.0
C      1  0.4730320000000  0.4638450000000  0.5437480000000 1.0
C      1  0.4107320000000  0.4445960000000  0.5367360000000 1.0
C      1  0.4773980000000  0.5300020000000  0.4845510000000 1.0
C      1  0.5847760000000  0.5131790000000  0.5625360000000 1.0
C      1  0.5739490000000  0.4809220000000  0.4802320000000 1.0
C      1  0.4623310000000  0.4471230000000  0.4074860000000 1.0
C      1  0.5118290000000  0.5502030000000  0.3871230000000 1.0
C      1  0.4610000000000  0.5539800000000  0.5848780000000 1.0
C      1  0.5437750000000  0.4436460000000  0.5152000000000 1.0
C      1  0.4476760000000  0.5415790000000  0.4844590000000 1.0
C      1  0.4766990000000  0.4800790000000  0.4838570000000 1.0
C      1  0.4857930000000  0.4459780000000  0.5875280000000 1.0
C      1  0.4157890000000  0.4729970000000  0.5553390000000 1.0
C      1  0.4983890000000  0.4178010000000  0.4359620000000 1.0
C      1  0.4769840000000  0.5996070000000  0.5653520000000 1.0
C      1  0.5576280000000  0.5380920000000  0.4106840000000 1.0
C      1  0.5692390000000  0.4954100000000  0.5103740000000 1.0
C      1  0.4130830000000  0.4784890000000  0.4249360000000 1.0
C      1  0.4838490000000  0.4075850000000  0.5465270000000 1.0
C      1  0.4900140000000  0.4395600000000  0.4124050000000 1.0
C      1  0.5177940000000  0.5398520000000  0.5392050000000 1.0
C      1  0.5029470000000  0.5613090000000  0.4146070000000 1.0
C      1  0.5900080000000  0.5080260000000  0.5328770000000 1.0
C      1  0.4818110000000  0.5458360000000  0.6025210000000 1.0
C      1  0.5817370000000  0.5389310000000  0.5310330000000 1.0
C      1  0.5032710000000  0.4771940000000  0.4096140000000 1.0
C      1  0.4948870000000  0.4739920000000  0.6041900000000 1.0
C      1  0.4866900000000  0.5604560000000  0.4782660000000 1.0
C      1  0.4396080000000  0.5538200000000  0.4537800000000 1.0
C      1  0.5513580000000  0.5236110000000  0.4690930000000 1.0
C      1  0.4161770000000  0.5014900000000  0.5727030000000 1.0
C      1  0.5551080000000  0.4357620000000  0.4499260000000 1.0
C      1  0.5649160000000  0.4487270000000  0.5413500000000 1.0
C      1  0.4541960000000  0.5971010000000  0.4832620000000 1.0
C      1  0.4815800000000  0.6056870000000  0.4950890000000 1.0
C      1  0.5170240000000  0.4129720000000  0.5054570000000 1.0
C      1  0.5865380000000  0.4849920000000  0.4040290000000 1.0
C      1  0.4092180000000  0.5227660000000  0.5554520000000 1.0
C      1  0.4343800000000  0.5600840000000  0.5836870000000 1.0
C      1  0.5529240000000  0.5519540000000  0.5789140000000 1.0
C      1  0.4532880000000  0.5683650000000  0.5257600000000 1.0
C      1  0.4507550000000  0.4933460000000  0.4906970000000 1.0
C      1  0.4753140000000  0.5159670000000  0.5125740000000 1.0
C      1  0.5435280000000  0.5140960000000  0.4008890000000 1.0
C      1  0.4809250000000  0.4178770000000  0.4643350000000 1.0
C      1  0.4290230000000  0.4355380000000  0.4757130000000 1.0
C      1  0.4631630000000  0.4914680000000  0.5603650000000 1.0
C      1  0.5609810000000  0.5802330000000  0.4899640000000 1.0
C      1  0.5101050000000  0.5207100000000  0.4844850000000 1.0
C      1  0.4900170000000  0.5082740000000  0.5842320000000 1.0
C      1  0.5551840000000  0.4321140000000  0.5658490000000 1.0
C      1  0.5115840000000  0.5731460000000  0.4667340000000 1.0
C      1  0.5068850000000  0.6031830000000  0.4771980000000 1.0
C      1  0.4794090000000  0.5200050000000  0.5578740000000 1.0
C      1  0.4858070000000  0.5997210000000  0.5217800000000 1.0
C      1  0.4573120000000  0.5272500000000  0.4418610000000 1.0
C      1  0.4285410000000  0.4443290000000  0.5085560000000 1.0
C      1  0.5237490000000  0.5613710000000  0.5649550000000 1.0
C      1  0.5238020000000  0.4997510000000  0.4219730000000 1.0
C      1  0.5568530000000  0.5339730000000  0.4990950000000 1.0
C      1  0.5804290000000  0.5206170000000  0.4545010000000 1.0
C      1  0.5075240000000  0.4597650000000  0.3827450000000 1.0
C      1  0.4338680000000  0.4751890000000  0.5082490000000 1.0
C      1  0.3856540000000  0.4746820000000  0.5139280000000 1.0
C      1  0.4389140000000  0.5403480000000  0.5354100000000 1.0
C      1  0.4384880000000  0.5663870000000  0.4220580000000 1.0
C      1  0.5169870000000  0.5227100000000  0.3867050000000 1.0
C      1  0.4493020000000  0.4194130000000  0.5509380000000 1.0
C      1  0.5019590000000  0.4584020000000  0.4357690000000 1.0
C      1  0.5527420000000  0.4773580000000  0.5339990000000 1.0
C      1  0.4605410000000  0.4685950000000  0.5847030000000 1.0
C      1  0.5081080000000  0.4014350000000  0.4757700000000 1.0
C      1  0.5742870000000  0.4333210000000  0.5042020000000 1.0
C      1  0.4878360000000  0.5869480000000  0.4258940000000 1.0
C      1  0.4843300000000  0.4591810000000  0.4581380000000 1.0
C      1  0.3836370000000  0.5023990000000  0.4777430000000 1.0
C      1  0.5999950000000  0.5519370000000  0.5069490000000 1.0
C      1  0.5278220000000  0.4319830000000  0.5497860000000 1.0
C      1  0.4897570000000  0.4310310000000  0.5147730000000 1.0
C      1  0.5449960000000  0.5146220000000  0.5244150000000 1.0
C      1  0.4589110000000  0.5809860000000  0.5556040000000 1.0
C      1  0.6096250000000  0.4986900000000  0.5107410000000 1.0
C      1  0.6145990000000  0.5229270000000  0.4967960000000 1.0
C      1  0.5416180000000  0.5011350000000  0.5558370000000 1.0
C      1  0.5241570000000  0.5362250000000  0.4586010000000 1.0
C      1  0.4542480000000  0.4652450000000  0.4531320000000 1.0
C      1  0.5006000000000  0.6038900000000  0.4437750000000 1.0
C      1  0.5049160000000  0.4912760000000  0.4692510000000 1.0
C      1  0.5502370000000  0.5513130000000  0.5343670000000 1.0
C      1  0.5580790000000  0.5205400000000  0.5783890000000 1.0
C      1  0.4047690000000  0.4804580000000  0.4639830000000 1.0
C      1  0.5692750000000  0.4885860000000  0.5814830000000 1.0
C      1  0.5192890000000  0.5010680000000  0.5099890000000 1.0
C      1  0.4270230000000  0.5791860000000  0.4733450000000 1.0
C      1  0.3945740000000  0.4890070000000  0.5354670000000 1.0
C      1  0.5233430000000  0.5719600000000  0.4361370000000 1.0
END
