TITL C-2847945-6269-525 -0.00132359476121899 125000 -186.681892901126 0 0 34 (C1) n - 1
REM
REM in /home/bkarasulu/work/CARBON/AIRSS/Generating-Clusters/AIREBO/with-SteepDescent/Only-C1/SD-CG-opt/Try1-1.4A-POS3A/HFTN-CG
REM
REM
REM
REM
REM
REM ./C.cell (11c1c37f851c82e70ff6c80c92926a4b)
REM
REM compiler GCC version 9.2.1 20190827 (Red Hat 9.2.1-1)
REM options -cpp -mtune=generic -march=x86-64 -g -O0 -fpre-include=/usr/include/finclude/math-vector-fortran.h
REM seed -1849087408 -299755170 -1295886311 1493810546 649588068 -635126083 -308575675 554886512 -268614824 -1194188704 2027815504 -1092946691 1517855582 -1860401665 -640693827 608590532 1225879555 769411191 2130001393 1492942569 283220232 1924610218 -1006541919 -345876452 1892911315 888209525 -1015389848 -1694288428 413405632 -409210230 -449319718 -768621904 -1866168589
REM
CELL 1.54180   50.00000   50.00000   50.00000   90.00000   90.00000   90.00000
LATT -1
SFAC C  
C      1  0.5157480000000  0.5123810000000  0.4515750000000 1.0
C      1  0.4411380000000  0.4970370000000  0.5180490000000 1.0
C      1  0.5144760000000  0.4401080000000  0.5240610000000 1.0
C      1  0.5062370000000  0.4622620000000  0.5060800000000 1.0
C      1  0.4738910000000  0.4888800000000  0.4829190000000 1.0
C      1  0.4951070000000  0.5515160000000  0.4776600000000 1.0
C      1  0.4472720000000  0.5014410000000  0.4880450000000 1.0
C      1  0.4718360000000  0.4330560000000  0.5043950000000 1.0
C      1  0.4574990000000  0.5257580000000  0.5095050000000 1.0
C      1  0.5167830000000  0.5075270000000  0.5400430000000 1.0
C      1  0.4751480000000  0.4644580000000  0.5038730000000 1.0
C      1  0.5656910000000  0.5194030000000  0.4667970000000 1.0
C      1  0.4889160000000  0.5095450000000  0.5457590000000 1.0
C      1  0.4723270000000  0.5312030000000  0.4805490000000 1.0
C      1  0.4931660000000  0.4214430000000  0.5196970000000 1.0
C      1  0.5294690000000  0.4858420000000  0.5283210000000 1.0
C      1  0.5178920000000  0.4806310000000  0.4394230000000 1.0
C      1  0.5566020000000  0.5283080000000  0.4912380000000 1.0
C      1  0.4971060000000  0.5662590000000  0.5016100000000 1.0
C      1  0.5335190000000  0.4797170000000  0.4662510000000 1.0
C      1  0.4774710000000  0.5324700000000  0.5319400000000 1.0
C      1  0.4523090000000  0.5318740000000  0.4576950000000 1.0
C      1  0.4982500000000  0.5510630000000  0.5254550000000 1.0
C      1  0.4589700000000  0.4773580000000  0.5278570000000 1.0
C      1  0.5238820000000  0.5353780000000  0.5279940000000 1.0
C      1  0.5317590000000  0.4592200000000  0.5384930000000 1.0
C      1  0.5261200000000  0.5162270000000  0.5003000000000 1.0
C      1  0.4735370000000  0.4863640000000  0.5501090000000 1.0
C      1  0.5259910000000  0.4838460000000  0.4946720000000 1.0
C      1  0.4501520000000  0.4204540000000  0.4936990000000 1.0
C      1  0.5111550000000  0.5441320000000  0.4569210000000 1.0
C      1  0.4995690000000  0.5107520000000  0.4797590000000 1.0
C      1  0.5479260000000  0.5035720000000  0.4522260000000 1.0
C      1  0.5530880000000  0.5405140000000  0.5170300000000 1.0
END
