TITL C-2848496-4490-238 -0.00121507180601656 125000 -549.326503290965 0 0 100 (C1) n - 1
REM
REM in /home/bkarasulu/work/CARBON/AIRSS/Generating-Clusters/AIREBO/with-SteepDescent/Only-C1/SD-CG-opt/Try1-1.4A-POS3A/HFTN-CG
REM
REM
REM
REM
REM
REM ./C.cell (11c1c37f851c82e70ff6c80c92926a4b)
REM
REM compiler GCC version 9.2.1 20190827 (Red Hat 9.2.1-1)
REM options -cpp -mtune=generic -march=x86-64 -g -O0 -fpre-include=/usr/include/finclude/math-vector-fortran.h
REM seed 1804935302 207900302 1187189517 -2085204675 -1810560406 -357832621 -524689170 -941859402 1524505735 1161499857 -214644610 1918590891 1096380935 1678271680 1065632051 -1506926074 1771053822 780000629 1164516692 1284948278 2139436508 -1072589699 -758155171 -2137611189 -1418587220 -1196886394 -632920628 47498932 -1993504518 -1797324375 -355997974 78119356 -385644762
REM
CELL 1.54180   50.00000   50.00000   50.00000   90.00000   90.00000   90.00000
LATT -1
SFAC C  
C      1  0.5142110000000  0.5772590000000  0.4726090000000 1.0
C      1  0.5113410000000  0.4158440000000  0.4993810000000 1.0
C      1  0.4999950000000  0.4396430000000  0.4286980000000 1.0
C      1  0.5059800000000  0.4213340000000  0.4718030000000 1.0
C      1  0.5365010000000  0.4256890000000  0.5075260000000 1.0
C      1  0.4191160000000  0.4758160000000  0.5540450000000 1.0
C      1  0.5279170000000  0.4961470000000  0.4773870000000 1.0
C      1  0.4983590000000  0.5124550000000  0.4564960000000 1.0
C      1  0.5363120000000  0.4317620000000  0.5349980000000 1.0
C      1  0.4954870000000  0.4508550000000  0.4850250000000 1.0
C      1  0.5316380000000  0.4729220000000  0.4137550000000 1.0
C      1  0.5258220000000  0.4752590000000  0.5606620000000 1.0
C      1  0.5626080000000  0.5013570000000  0.4582540000000 1.0
C      1  0.4724530000000  0.5522790000000  0.4475230000000 1.0
C      1  0.5179510000000  0.4569760000000  0.5376650000000 1.0
C      1  0.4799390000000  0.4912690000000  0.4968720000000 1.0
C      1  0.4293610000000  0.5114510000000  0.5851630000000 1.0
C      1  0.4636600000000  0.4235660000000  0.4996060000000 1.0
C      1  0.5039000000000  0.4750810000000  0.5858840000000 1.0
C      1  0.5392970000000  0.5843110000000  0.5507550000000 1.0
C      1  0.5069590000000  0.5589970000000  0.5216180000000 1.0
C      1  0.5528950000000  0.5803300000000  0.5040960000000 1.0
C      1  0.4676670000000  0.5810680000000  0.4618190000000 1.0
C      1  0.5642800000000  0.4695340000000  0.5003010000000 1.0
C      1  0.5742300000000  0.4921560000000  0.4820520000000 1.0
C      1  0.5556830000000  0.5895070000000  0.5297060000000 1.0
C      1  0.4256360000000  0.4682150000000  0.5254110000000 1.0
C      1  0.5046930000000  0.5015580000000  0.5392840000000 1.0
C      1  0.5412810000000  0.5351500000000  0.5452920000000 1.0
C      1  0.4562530000000  0.5042120000000  0.5394850000000 1.0
C      1  0.5277140000000  0.4513710000000  0.4349660000000 1.0
C      1  0.5245240000000  0.4268710000000  0.5630100000000 1.0
C      1  0.4689080000000  0.4353270000000  0.4705270000000 1.0
C      1  0.4800870000000  0.4632940000000  0.5646610000000 1.0
C      1  0.5535600000000  0.4383950000000  0.4529150000000 1.0
C      1  0.5873550000000  0.4573700000000  0.5164940000000 1.0
C      1  0.5558760000000  0.4817550000000  0.5705510000000 1.0
C      1  0.4601980000000  0.5378740000000  0.5362420000000 1.0
C      1  0.5020200000000  0.5835140000000  0.5876430000000 1.0
C      1  0.4803050000000  0.5480560000000  0.4803480000000 1.0
C      1  0.4720250000000  0.4728140000000  0.4500420000000 1.0
C      1  0.5351520000000  0.5033440000000  0.5440740000000 1.0
C      1  0.4706830000000  0.4773370000000  0.5244000000000 1.0
C      1  0.5410280000000  0.5710670000000  0.4607480000000 1.0
C      1  0.4460430000000  0.4549520000000  0.4627990000000 1.0
C      1  0.4880530000000  0.5830990000000  0.4824390000000 1.0
C      1  0.4069100000000  0.4758330000000  0.4988530000000 1.0
C      1  0.4574260000000  0.4514540000000  0.5428830000000 1.0
C      1  0.5118110000000  0.5358220000000  0.4764820000000 1.0
C      1  0.5885000000000  0.5119380000000  0.4959800000000 1.0
C      1  0.5385580000000  0.5483810000000  0.4442240000000 1.0
C      1  0.5442090000000  0.5325990000000  0.5132300000000 1.0
C      1  0.4982390000000  0.4812520000000  0.4700170000000 1.0
C      1  0.6075070000000  0.4465290000000  0.5277950000000 1.0
C      1  0.5276700000000  0.4643370000000  0.4654930000000 1.0
C      1  0.5673370000000  0.5054750000000  0.5770560000000 1.0
C      1  0.5419840000000  0.4822040000000  0.5181270000000 1.0
C      1  0.4559140000000  0.5703590000000  0.5326520000000 1.0
C      1  0.4283490000000  0.5392910000000  0.5244170000000 1.0
C      1  0.4830000000000  0.4947200000000  0.5582160000000 1.0
C      1  0.4615170000000  0.5451810000000  0.4100390000000 1.0
C      1  0.4422330000000  0.4410720000000  0.5142510000000 1.0
C      1  0.4261580000000  0.5323580000000  0.4981760000000 1.0
C      1  0.4108080000000  0.5020090000000  0.4594640000000 1.0
C      1  0.5763640000000  0.4991440000000  0.4345170000000 1.0
C      1  0.4882660000000  0.4225330000000  0.5141810000000 1.0
C      1  0.4849120000000  0.5391940000000  0.5128610000000 1.0
C      1  0.5139410000000  0.4676040000000  0.5056170000000 1.0
C      1  0.4726690000000  0.5448060000000  0.5653330000000 1.0
C      1  0.4442750000000  0.5394640000000  0.4334350000000 1.0
C      1  0.4543600000000  0.5034450000000  0.4844210000000 1.0
C      1  0.5014410000000  0.5601530000000  0.5725500000000 1.0
C      1  0.5271510000000  0.5079310000000  0.5052490000000 1.0
C      1  0.5229040000000  0.5506370000000  0.4221440000000 1.0
C      1  0.5744710000000  0.5325660000000  0.5066330000000 1.0
C      1  0.4910530000000  0.5321530000000  0.5876280000000 1.0
C      1  0.4818000000000  0.4596470000000  0.4239240000000 1.0
C      1  0.5211970000000  0.5586940000000  0.5495850000000 1.0
C      1  0.5131440000000  0.4939920000000  0.4150340000000 1.0
C      1  0.5059710000000  0.4431740000000  0.5736790000000 1.0
C      1  0.4516690000000  0.5339460000000  0.4845450000000 1.0
C      1  0.4882880000000  0.4485920000000  0.5289050000000 1.0
C      1  0.5657550000000  0.5296540000000  0.5644950000000 1.0
C      1  0.5287120000000  0.5576700000000  0.4963390000000 1.0
C      1  0.4494960000000  0.4938960000000  0.4563430000000 1.0
C      1  0.5616380000000  0.5812910000000  0.4766860000000 1.0
C      1  0.5501020000000  0.4695130000000  0.3938510000000 1.0
C      1  0.4906900000000  0.5051450000000  0.5870270000000 1.0
C      1  0.5482960000000  0.4463670000000  0.4857180000000 1.0
C      1  0.4312610000000  0.5183040000000  0.4434680000000 1.0
C      1  0.4967900000000  0.5116010000000  0.5121020000000 1.0
C      1  0.5372840000000  0.5210790000000  0.4593970000000 1.0
C      1  0.4197160000000  0.4735980000000  0.4530980000000 1.0
C      1  0.4920730000000  0.5436140000000  0.4209500000000 1.0
C      1  0.4900130000000  0.4214470000000  0.4472610000000 1.0
C      1  0.4113290000000  0.5059110000000  0.4898800000000 1.0
C      1  0.4335140000000  0.4976510000000  0.5620220000000 1.0
C      1  0.5013930000000  0.5151540000000  0.4287550000000 1.0
C      1  0.4268940000000  0.4544350000000  0.4882640000000 1.0
C      1  0.4380860000000  0.4967360000000  0.5117140000000 1.0
END
