TITL C-2848508-1660-176 0.00249039660327149 125000 -541.031072248791 0 0 104 (C1) n - 1
REM
REM in /home/bkarasulu/work/CARBON/AIRSS/Generating-Clusters/AIREBO/with-SteepDescent/Only-C1/SD-CG-opt/Try1-1.4A-POS3A/HFTN-CG
REM
REM
REM
REM
REM
REM ./C.cell (11c1c37f851c82e70ff6c80c92926a4b)
REM
REM compiler GCC version 9.2.1 20190827 (Red Hat 9.2.1-1)
REM options -cpp -mtune=generic -march=x86-64 -g -O0 -fpre-include=/usr/include/finclude/math-vector-fortran.h
REM seed -904655162 -598478361 2043294738 -2018492666 -629762230 -997060024 900130558 -1339125866 -1899767067 333067088 760511919 1553875379 -2125411976 -901773971 -457561587 -333259676 951099208 -236770548 -390589891 246395473 -1052681101 -474779450 1406033111 1117282079 1184121135 -1266799589 -1253918870 -1068721030 -704552275 1942106858 -971862147 -1629816310 1443136420
REM
CELL 1.54180   50.00000   50.00000   50.00000   90.00000   90.00000   90.00000
LATT -1
SFAC C  
C      1  0.4944870000000  0.4926850000000  0.5579150000000 1.0
C      1  0.5195390000000  0.4839230000000  0.4331050000000 1.0
C      1  0.5702960000000  0.5712840000000  0.5389530000000 1.0
C      1  0.5437020000000  0.5737790000000  0.4934510000000 1.0
C      1  0.4911270000000  0.4558980000000  0.4765510000000 1.0
C      1  0.4771490000000  0.5873370000000  0.4679860000000 1.0
C      1  0.5058350000000  0.4187210000000  0.4768070000000 1.0
C      1  0.4580830000000  0.5692970000000  0.4884090000000 1.0
C      1  0.5254610000000  0.5248830000000  0.5489310000000 1.0
C      1  0.5265330000000  0.5525050000000  0.4415100000000 1.0
C      1  0.4668490000000  0.5636630000000  0.4458620000000 1.0
C      1  0.4137330000000  0.5459500000000  0.4802930000000 1.0
C      1  0.5495730000000  0.5690560000000  0.5200080000000 1.0
C      1  0.5102810000000  0.5142960000000  0.4200550000000 1.0
C      1  0.5559660000000  0.5287210000000  0.4937790000000 1.0
C      1  0.4788310000000  0.5192690000000  0.5725610000000 1.0
C      1  0.4981400000000  0.5411060000000  0.4564080000000 1.0
C      1  0.4580240000000  0.4850460000000  0.5724500000000 1.0
C      1  0.4755780000000  0.5052960000000  0.4859550000000 1.0
C      1  0.4206020000000  0.5126640000000  0.4814820000000 1.0
C      1  0.5267940000000  0.5165670000000  0.4693190000000 1.0
C      1  0.4789410000000  0.4282680000000  0.4609240000000 1.0
C      1  0.4850260000000  0.4649630000000  0.4275110000000 1.0
C      1  0.4468270000000  0.4981990000000  0.4976080000000 1.0
C      1  0.5369370000000  0.5093090000000  0.4405650000000 1.0
C      1  0.5220620000000  0.5285240000000  0.5802970000000 1.0
C      1  0.4709720000000  0.5423760000000  0.5609180000000 1.0
C      1  0.5012720000000  0.5438410000000  0.4901830000000 1.0
C      1  0.5220170000000  0.4790430000000  0.5432250000000 1.0
C      1  0.4493330000000  0.5238000000000  0.4222380000000 1.0
C      1  0.4787550000000  0.3937120000000  0.5265710000000 1.0
C      1  0.5036230000000  0.4454660000000  0.5749770000000 1.0
C      1  0.5738790000000  0.4788620000000  0.5700010000000 1.0
C      1  0.4982290000000  0.4854910000000  0.4065880000000 1.0
C      1  0.5267570000000  0.5541500000000  0.5315750000000 1.0
C      1  0.5803600000000  0.5204690000000  0.4713540000000 1.0
C      1  0.4846240000000  0.3727520000000  0.5411650000000 1.0
C      1  0.5528260000000  0.5448410000000  0.4339040000000 1.0
C      1  0.4413040000000  0.4577830000000  0.4386600000000 1.0
C      1  0.5702380000000  0.4579610000000  0.5140700000000 1.0
C      1  0.4501760000000  0.4673160000000  0.5114400000000 1.0
C      1  0.5970340000000  0.4994050000000  0.4914320000000 1.0
C      1  0.5774200000000  0.4632740000000  0.4811420000000 1.0
C      1  0.5678980000000  0.5155810000000  0.4427780000000 1.0
C      1  0.5076780000000  0.5284110000000  0.5201530000000 1.0
C      1  0.5305490000000  0.5564420000000  0.5729120000000 1.0
C      1  0.4194530000000  0.5206460000000  0.5160690000000 1.0
C      1  0.5680510000000  0.4841510000000  0.4559720000000 1.0
C      1  0.4506630000000  0.4711490000000  0.4663650000000 1.0
C      1  0.4810560000000  0.5115360000000  0.5329690000000 1.0
C      1  0.5017010000000  0.4843370000000  0.4919200000000 1.0
C      1  0.4397900000000  0.4470860000000  0.5330810000000 1.0
C      1  0.5187330000000  0.4505120000000  0.4572680000000 1.0
C      1  0.4028480000000  0.4849180000000  0.4813340000000 1.0
C      1  0.4727240000000  0.4170750000000  0.5135920000000 1.0
C      1  0.4561800000000  0.5413530000000  0.4591340000000 1.0
C      1  0.4216650000000  0.4386140000000  0.5605810000000 1.0
C      1  0.4361540000000  0.5173820000000  0.4527420000000 1.0
C      1  0.5380730000000  0.4255140000000  0.4994550000000 1.0
C      1  0.5552950000000  0.4720000000000  0.5420840000000 1.0
C      1  0.4682690000000  0.5368560000000  0.4884630000000 1.0
C      1  0.5955660000000  0.4806540000000  0.5136800000000 1.0
C      1  0.4269040000000  0.4655920000000  0.4867020000000 1.0
C      1  0.5641390000000  0.4976460000000  0.4957080000000 1.0
C      1  0.4301900000000  0.5602700000000  0.4974620000000 1.0
C      1  0.4803530000000  0.4809160000000  0.5181630000000 1.0
C      1  0.5886650000000  0.4785190000000  0.5424760000000 1.0
C      1  0.5258030000000  0.4548110000000  0.5667820000000 1.0
C      1  0.4862330000000  0.4918180000000  0.5909000000000 1.0
C      1  0.5236100000000  0.5919900000000  0.4898080000000 1.0
C      1  0.5108610000000  0.5691150000000  0.5540970000000 1.0
C      1  0.4951280000000  0.5079610000000  0.4603510000000 1.0
C      1  0.4945170000000  0.4349400000000  0.5035110000000 1.0
C      1  0.5374130000000  0.4273670000000  0.4675550000000 1.0
C      1  0.4728750000000  0.5012220000000  0.4162540000000 1.0
C      1  0.5229490000000  0.4977940000000  0.5148720000000 1.0
C      1  0.4821090000000  0.5313020000000  0.4280660000000 1.0
C      1  0.5243850000000  0.4818500000000  0.4667060000000 1.0
C      1  0.5577380000000  0.5568960000000  0.5644750000000 1.0
C      1  0.4453710000000  0.4910280000000  0.4327500000000 1.0
C      1  0.5058780000000  0.4581960000000  0.5217510000000 1.0
C      1  0.5662790000000  0.5322540000000  0.5454740000000 1.0
C      1  0.4331320000000  0.4987250000000  0.5287360000000 1.0
C      1  0.4496360000000  0.4538000000000  0.5642980000000 1.0
C      1  0.4505160000000  0.4320260000000  0.4588850000000 1.0
C      1  0.5341540000000  0.5468080000000  0.4821620000000 1.0
C      1  0.5022120000000  0.4435800000000  0.4319440000000 1.0
C      1  0.4791820000000  0.4797110000000  0.4554210000000 1.0
C      1  0.4332080000000  0.5444150000000  0.5203770000000 1.0
C      1  0.5093250000000  0.5134860000000  0.5979040000000 1.0
C      1  0.4994260000000  0.5736360000000  0.4465870000000 1.0
C      1  0.4839500000000  0.5670790000000  0.5487650000000 1.0
C      1  0.4624260000000  0.5397910000000  0.5294660000000 1.0
C      1  0.4524030000000  0.5015790000000  0.5483280000000 1.0
C      1  0.4967010000000  0.5774840000000  0.4922100000000 1.0
C      1  0.4767380000000  0.5665480000000  0.5167990000000 1.0
C      1  0.5928750000000  0.5487260000000  0.5377550000000 1.0
C      1  0.5460400000000  0.4745690000000  0.4877900000000 1.0
C      1  0.4810340000000  0.4621860000000  0.5646800000000 1.0
C      1  0.5367330000000  0.4529300000000  0.5110710000000 1.0
C      1  0.4473050000000  0.4274830000000  0.5101250000000 1.0
C      1  0.5468000000000  0.5206320000000  0.5229820000000 1.0
C      1  0.5585330000000  0.4512910000000  0.4561680000000 1.0
C      1  0.4387370000000  0.4360580000000  0.4849930000000 1.0
END
