TITL C-2847949-8115-487 0.00041312872497374 125000 -211.321822955308 0 0 41 (C1) n - 1
REM
REM in /home/bkarasulu/work/CARBON/AIRSS/Generating-Clusters/AIREBO/with-SteepDescent/Only-C1/SD-CG-opt/Try1-1.4A-POS3A/HFTN-CG
REM
REM
REM
REM
REM
REM ./C.cell (11c1c37f851c82e70ff6c80c92926a4b)
REM
REM compiler GCC version 9.2.1 20190827 (Red Hat 9.2.1-1)
REM options -cpp -mtune=generic -march=x86-64 -g -O0 -fpre-include=/usr/include/finclude/math-vector-fortran.h
REM seed 1684349453 1628491014 441650249 1450510076 863402203 -312518901 1526175117 -1840758677 -1739235740 -367700403 755141430 -1154168937 -75645767 -253315926 -1218625885 -308098990 -1840082538 1508742225 -1276569970 -61588845 46337716 601599345 -1054844493 -1623912985 1111982855 1373367459 270384623 -2026158393 2074285632 -1918590356 458522730 498843990 1241740164
REM
CELL 1.54180   50.00000   50.00000   50.00000   90.00000   90.00000   90.00000
LATT -1
SFAC C  
C      1  0.5522160000000  0.5015020000000  0.4556470000000 1.0
C      1  0.4830690000000  0.5478460000000  0.4635650000000 1.0
C      1  0.5324550000000  0.4601480000000  0.4466310000000 1.0
C      1  0.5449740000000  0.4769280000000  0.4655580000000 1.0
C      1  0.5650640000000  0.5200280000000  0.5035380000000 1.0
C      1  0.4788220000000  0.4457660000000  0.4974250000000 1.0
C      1  0.4876440000000  0.4899310000000  0.4790900000000 1.0
C      1  0.5254790000000  0.4946520000000  0.5565000000000 1.0
C      1  0.5328670000000  0.5613880000000  0.4831120000000 1.0
C      1  0.5338320000000  0.4769480000000  0.4943030000000 1.0
C      1  0.5100110000000  0.4723560000000  0.4358500000000 1.0
C      1  0.5024960000000  0.4701710000000  0.4974540000000 1.0
C      1  0.4669550000000  0.5005220000000  0.5528770000000 1.0
C      1  0.4952960000000  0.5641210000000  0.5148530000000 1.0
C      1  0.5509920000000  0.4573190000000  0.5114190000000 1.0
C      1  0.4887250000000  0.4309070000000  0.5224260000000 1.0
C      1  0.4905930000000  0.5321100000000  0.5262580000000 1.0
C      1  0.4846390000000  0.5362770000000  0.5548690000000 1.0
C      1  0.4596580000000  0.4999040000000  0.4783960000000 1.0
C      1  0.4930130000000  0.4645490000000  0.5296260000000 1.0
C      1  0.4515300000000  0.4579930000000  0.5004110000000 1.0
C      1  0.4601770000000  0.5335940000000  0.4782100000000 1.0
C      1  0.5002080000000  0.5675320000000  0.4824080000000 1.0
C      1  0.5415750000000  0.5311780000000  0.4818720000000 1.0
C      1  0.4484000000000  0.5005740000000  0.5268760000000 1.0
C      1  0.4998340000000  0.5385540000000  0.4425800000000 1.0
C      1  0.5054250000000  0.5160020000000  0.4749220000000 1.0
C      1  0.5184390000000  0.4602610000000  0.5510880000000 1.0
C      1  0.4631650000000  0.5233390000000  0.5105050000000 1.0
C      1  0.5176790000000  0.5117540000000  0.5291580000000 1.0
C      1  0.5008180000000  0.4931030000000  0.4499010000000 1.0
C      1  0.4392270000000  0.4793910000000  0.4852260000000 1.0
C      1  0.5481250000000  0.4715110000000  0.5635830000000 1.0
C      1  0.4599640000000  0.4703990000000  0.5260170000000 1.0
C      1  0.4937550000000  0.4940520000000  0.5459120000000 1.0
C      1  0.4280170000000  0.5023990000000  0.5026060000000 1.0
C      1  0.5283260000000  0.5225720000000  0.4520210000000 1.0
C      1  0.4293030000000  0.5266470000000  0.4895140000000 1.0
C      1  0.5042240000000  0.5363670000000  0.4953970000000 1.0
C      1  0.5351870000000  0.5069290000000  0.5050150000000 1.0
C      1  0.5478200000000  0.4524760000000  0.5373820000000 1.0
END
