TITL C-2848499-1157-532 -0.00641290848997786 125000 -603.294214839722 0 0 113 (C1) n - 1
REM
REM in /home/bkarasulu/work/CARBON/AIRSS/Generating-Clusters/AIREBO/with-SteepDescent/Only-C1/SD-CG-opt/Try1-1.4A-POS3A/HFTN-CG
REM
REM
REM
REM
REM
REM ./C.cell (11c1c37f851c82e70ff6c80c92926a4b)
REM
REM compiler GCC version 9.2.1 20190827 (Red Hat 9.2.1-1)
REM options -cpp -mtune=generic -march=x86-64 -g -O0 -fpre-include=/usr/include/finclude/math-vector-fortran.h
REM seed 450687308 -130859147 464324427 373731089 2007903526 -462597107 -1859013046 -46090899 449497248 -1524809367 -71523188 -24794139 -781666263 -1843408771 1044633971 161423351 1309697461 1517014809 -1332940862 -1133950853 -345848439 577363391 1972690027 -41430134 1790462933 283966512 842264982 -875040311 -430882727 -1669412941 241228541 -1844185135 -213768211
REM
CELL 1.54180   50.00000   50.00000   50.00000   90.00000   90.00000   90.00000
LATT -1
SFAC C  
C      1  0.4761750000000  0.5801410000000  0.4875090000000 1.0
C      1  0.4718030000000  0.4510820000000  0.5387340000000 1.0
C      1  0.5711360000000  0.4464570000000  0.5576970000000 1.0
C      1  0.5057010000000  0.4672960000000  0.5877580000000 1.0
C      1  0.5359610000000  0.5440940000000  0.4314530000000 1.0
C      1  0.4015160000000  0.5343650000000  0.5517420000000 1.0
C      1  0.5014130000000  0.4224160000000  0.5120010000000 1.0
C      1  0.4880110000000  0.4918110000000  0.4208890000000 1.0
C      1  0.5380250000000  0.4894980000000  0.4365670000000 1.0
C      1  0.5816340000000  0.5059390000000  0.4579230000000 1.0
C      1  0.4383710000000  0.5701550000000  0.4811620000000 1.0
C      1  0.4232580000000  0.4925870000000  0.5265740000000 1.0
C      1  0.4263080000000  0.5314730000000  0.4301920000000 1.0
C      1  0.4778560000000  0.5424860000000  0.4504770000000 1.0
C      1  0.5593220000000  0.5595290000000  0.4481270000000 1.0
C      1  0.5451230000000  0.5205290000000  0.5426150000000 1.0
C      1  0.5807070000000  0.4720230000000  0.4633940000000 1.0
C      1  0.4369860000000  0.5437110000000  0.5109030000000 1.0
C      1  0.5179100000000  0.4851380000000  0.5063350000000 1.0
C      1  0.4517430000000  0.4873440000000  0.5087460000000 1.0
C      1  0.5235880000000  0.4214220000000  0.5329780000000 1.0
C      1  0.5009700000000  0.4149230000000  0.4812550000000 1.0
C      1  0.5276130000000  0.4639570000000  0.4189560000000 1.0
C      1  0.5866810000000  0.5118180000000  0.4873180000000 1.0
C      1  0.5370800000000  0.4456490000000  0.4414020000000 1.0
C      1  0.4955370000000  0.4538800000000  0.4881740000000 1.0
C      1  0.5169050000000  0.4922590000000  0.5980550000000 1.0
C      1  0.5125510000000  0.4646320000000  0.5484520000000 1.0
C      1  0.5071710000000  0.5526550000000  0.4753480000000 1.0
C      1  0.5229600000000  0.5235090000000  0.4966800000000 1.0
C      1  0.5839180000000  0.4897440000000  0.5329990000000 1.0
C      1  0.4906940000000  0.5781480000000  0.5246940000000 1.0
C      1  0.4383690000000  0.4709260000000  0.5471930000000 1.0
C      1  0.4718230000000  0.5088420000000  0.5231730000000 1.0
C      1  0.4975070000000  0.5266750000000  0.5739650000000 1.0
C      1  0.4722540000000  0.4117950000000  0.4733180000000 1.0
C      1  0.4654660000000  0.4614350000000  0.5007160000000 1.0
C      1  0.5425630000000  0.5003140000000  0.4884610000000 1.0
C      1  0.5078990000000  0.5556340000000  0.4426050000000 1.0
C      1  0.4846870000000  0.4824950000000  0.5405560000000 1.0
C      1  0.5025370000000  0.5045650000000  0.4459600000000 1.0
C      1  0.4651950000000  0.4883230000000  0.4630160000000 1.0
C      1  0.4501670000000  0.5461700000000  0.4698700000000 1.0
C      1  0.4390120000000  0.5544920000000  0.4224480000000 1.0
C      1  0.4819330000000  0.4610620000000  0.4514810000000 1.0
C      1  0.4811130000000  0.4704300000000  0.5723150000000 1.0
C      1  0.5502270000000  0.4271280000000  0.5217730000000 1.0
C      1  0.5305610000000  0.5344040000000  0.5764270000000 1.0
C      1  0.5450220000000  0.4649220000000  0.5098520000000 1.0
C      1  0.4637950000000  0.5289170000000  0.4961000000000 1.0
C      1  0.4736210000000  0.5506470000000  0.5701620000000 1.0
C      1  0.5816500000000  0.5093710000000  0.5531110000000 1.0
C      1  0.4914490000000  0.4872110000000  0.4850760000000 1.0
C      1  0.4549160000000  0.4491680000000  0.5681100000000 1.0
C      1  0.5170380000000  0.5057430000000  0.5319080000000 1.0
C      1  0.4518150000000  0.5743090000000  0.5105040000000 1.0
C      1  0.4825120000000  0.5166200000000  0.4705150000000 1.0
C      1  0.4305110000000  0.5246240000000  0.4621380000000 1.0
C      1  0.4211870000000  0.4625330000000  0.4938450000000 1.0
C      1  0.5506190000000  0.4824020000000  0.4645930000000 1.0
C      1  0.5320530000000  0.5447390000000  0.5138700000000 1.0
C      1  0.4296790000000  0.4992040000000  0.4409060000000 1.0
C      1  0.5379050000000  0.5434790000000  0.4035290000000 1.0
C      1  0.4240120000000  0.4531010000000  0.5220030000000 1.0
C      1  0.4430570000000  0.4618650000000  0.4422430000000 1.0
C      1  0.5637380000000  0.4487180000000  0.4474770000000 1.0
C      1  0.5151550000000  0.4370030000000  0.4659600000000 1.0
C      1  0.5517300000000  0.5185720000000  0.4476790000000 1.0
C      1  0.4083100000000  0.5329370000000  0.5004060000000 1.0
C      1  0.5129940000000  0.4746960000000  0.4542130000000 1.0
C      1  0.4452250000000  0.4504030000000  0.4797460000000 1.0
C      1  0.4673180000000  0.4504040000000  0.4234190000000 1.0
C      1  0.5330780000000  0.4612320000000  0.4782320000000 1.0
C      1  0.5122890000000  0.5907520000000  0.5080770000000 1.0
C      1  0.4970870000000  0.5301200000000  0.5260480000000 1.0
C      1  0.5577970000000  0.5603980000000  0.5006540000000 1.0
C      1  0.5389140000000  0.5860280000000  0.5126200000000 1.0
C      1  0.5141950000000  0.5004890000000  0.5653880000000 1.0
C      1  0.4841780000000  0.5811050000000  0.4544760000000 1.0
C      1  0.5259230000000  0.4474230000000  0.5745670000000 1.0
C      1  0.5927950000000  0.4895070000000  0.5057270000000 1.0
C      1  0.5626190000000  0.5273900000000  0.4940010000000 1.0
C      1  0.5747780000000  0.5366440000000  0.5416840000000 1.0
C      1  0.4595230000000  0.5660510000000  0.4365110000000 1.0
C      1  0.5217970000000  0.5244340000000  0.4632010000000 1.0
C      1  0.4369550000000  0.4964810000000  0.4801040000000 1.0
C      1  0.4189020000000  0.4741070000000  0.4619280000000 1.0
C      1  0.4534160000000  0.4366080000000  0.5175850000000 1.0
C      1  0.4650840000000  0.5608360000000  0.5388670000000 1.0
C      1  0.4613950000000  0.4352530000000  0.4597660000000 1.0
C      1  0.5890540000000  0.4638120000000  0.4922500000000 1.0
C      1  0.4648130000000  0.5177360000000  0.5705410000000 1.0
C      1  0.5009190000000  0.6002940000000  0.4774840000000 1.0
C      1  0.4830230000000  0.4302740000000  0.5610130000000 1.0
C      1  0.4696960000000  0.4137300000000  0.5050690000000 1.0
C      1  0.5628790000000  0.4687600000000  0.5377730000000 1.0
C      1  0.5517800000000  0.5711280000000  0.4713610000000 1.0
C      1  0.5405160000000  0.4825040000000  0.5540660000000 1.0
C      1  0.4876620000000  0.5521320000000  0.5029990000000 1.0
C      1  0.5783030000000  0.5581060000000  0.5262770000000 1.0
C      1  0.5207030000000  0.5432320000000  0.5451010000000 1.0
C      1  0.4589070000000  0.4891610000000  0.4296030000000 1.0
C      1  0.5555280000000  0.4414120000000  0.5769530000000 1.0
C      1  0.4247080000000  0.5238980000000  0.5356730000000 1.0
C      1  0.4549060000000  0.5288520000000  0.5431360000000 1.0
C      1  0.5112240000000  0.4259570000000  0.5583020000000 1.0
C      1  0.5708080000000  0.4461010000000  0.5059270000000 1.0
C      1  0.4540020000000  0.4887410000000  0.5716220000000 1.0
C      1  0.4097040000000  0.5049340000000  0.4985960000000 1.0
C      1  0.5527030000000  0.5084120000000  0.5724650000000 1.0
C      1  0.5042370000000  0.4751270000000  0.4057210000000 1.0
C      1  0.5245370000000  0.5787150000000  0.4719660000000 1.0
C      1  0.5074050000000  0.4551760000000  0.5189120000000 1.0
END
