TITL C-2847950-6905-682 0.00163277504464209 125000 -928.572820383353 0 0 172 (C1) n - 1
REM
REM in /home/bkarasulu/work/CARBON/AIRSS/Generating-Clusters/AIREBO/with-SteepDescent/Only-C1/SD-CG-opt/Try1-1.4A-POS3A/HFTN-CG
REM
REM
REM
REM
REM
REM ./C.cell (11c1c37f851c82e70ff6c80c92926a4b)
REM
REM compiler GCC version 9.2.1 20190827 (Red Hat 9.2.1-1)
REM options -cpp -mtune=generic -march=x86-64 -g -O0 -fpre-include=/usr/include/finclude/math-vector-fortran.h
REM seed -388303933 -554311262 836650714 -683895405 -1873215005 1699940118 -2112009273 -1472892875 -523407431 320166724 -1032089233 1639529419 -1993439432 -445182935 -976188354 -1899753153 1588882143 -586511455 -275150760 470396895 1171251672 2110291911 851034374 965723126 -907848702 -1823691140 -1534130500 -986149063 -1945796010 663019373 -1192895944 265312030 1506533757
REM
CELL 1.54180   50.00000   50.00000   50.00000   90.00000   90.00000   90.00000
LATT -1
SFAC C  
C      1  0.4687220000000  0.5867210000000  0.5114670000000 1.0
C      1  0.5320420000000  0.6069460000000  0.5489680000000 1.0
C      1  0.5113550000000  0.5343370000000  0.5374480000000 1.0
C      1  0.4631980000000  0.5704380000000  0.5474050000000 1.0
C      1  0.4917770000000  0.4079510000000  0.4505910000000 1.0
C      1  0.4478000000000  0.4869060000000  0.3939770000000 1.0
C      1  0.5135760000000  0.4299490000000  0.4776930000000 1.0
C      1  0.5193170000000  0.5536160000000  0.4817810000000 1.0
C      1  0.5935430000000  0.5376750000000  0.4813510000000 1.0
C      1  0.4441670000000  0.4519780000000  0.4246140000000 1.0
C      1  0.4645400000000  0.4789490000000  0.4208260000000 1.0
C      1  0.4765810000000  0.6163350000000  0.5057830000000 1.0
C      1  0.5679410000000  0.4128840000000  0.4608950000000 1.0
C      1  0.3893780000000  0.4952550000000  0.4885180000000 1.0
C      1  0.4283710000000  0.4297970000000  0.4847820000000 1.0
C      1  0.4395790000000  0.5084060000000  0.4963250000000 1.0
C      1  0.5947690000000  0.4982430000000  0.5497140000000 1.0
C      1  0.4108300000000  0.5596390000000  0.4631150000000 1.0
C      1  0.4880310000000  0.5640090000000  0.4085940000000 1.0
C      1  0.5206730000000  0.5332550000000  0.4362000000000 1.0
C      1  0.5138830000000  0.4037250000000  0.4342580000000 1.0
C      1  0.4744380000000  0.5112290000000  0.4249610000000 1.0
C      1  0.5250760000000  0.5225850000000  0.4681850000000 1.0
C      1  0.4621600000000  0.4889400000000  0.4645890000000 1.0
C      1  0.4291380000000  0.5661150000000  0.4820640000000 1.0
C      1  0.4989950000000  0.5495510000000  0.4548250000000 1.0
C      1  0.4872150000000  0.4667560000000  0.4430590000000 1.0
C      1  0.3948390000000  0.5427700000000  0.5076870000000 1.0
C      1  0.4615370000000  0.4582630000000  0.5039740000000 1.0
C      1  0.4641580000000  0.4754150000000  0.5332260000000 1.0
C      1  0.4699180000000  0.5184930000000  0.6008160000000 1.0
C      1  0.4888350000000  0.4663540000000  0.4001690000000 1.0
C      1  0.5721130000000  0.4450550000000  0.5649090000000 1.0
C      1  0.4955210000000  0.4960860000000  0.3888180000000 1.0
C      1  0.5293470000000  0.4545390000000  0.5607240000000 1.0
C      1  0.4707220000000  0.4566740000000  0.4710430000000 1.0
C      1  0.4879410000000  0.3971510000000  0.5404960000000 1.0
C      1  0.4550470000000  0.4979100000000  0.5677520000000 1.0
C      1  0.4968370000000  0.4279510000000  0.5038500000000 1.0
C      1  0.5122170000000  0.4801260000000  0.4897530000000 1.0
C      1  0.5425430000000  0.4049500000000  0.5153550000000 1.0
C      1  0.5619590000000  0.5627080000000  0.4771220000000 1.0
C      1  0.4000620000000  0.5337690000000  0.4626140000000 1.0
C      1  0.5414440000000  0.5291590000000  0.5118620000000 1.0
C      1  0.5137210000000  0.4883940000000  0.4433470000000 1.0
C      1  0.5321300000000  0.4876150000000  0.5591520000000 1.0
C      1  0.5537870000000  0.5334300000000  0.4822210000000 1.0
C      1  0.4687570000000  0.5361560000000  0.4054670000000 1.0
C      1  0.4699860000000  0.4215410000000  0.5794900000000 1.0
C      1  0.5257100000000  0.5583970000000  0.5567360000000 1.0
C      1  0.5456970000000  0.4099530000000  0.4351190000000 1.0
C      1  0.5500830000000  0.4958690000000  0.5992590000000 1.0
C      1  0.5396250000000  0.4628680000000  0.4117620000000 1.0
C      1  0.4381450000000  0.5235400000000  0.4690680000000 1.0
C      1  0.3888400000000  0.5256900000000  0.4869600000000 1.0
C      1  0.4935190000000  0.5711600000000  0.4953710000000 1.0
C      1  0.5786520000000  0.4354330000000  0.5394840000000 1.0
C      1  0.4514520000000  0.5582650000000  0.5750980000000 1.0
C      1  0.4194830000000  0.4862630000000  0.4942240000000 1.0
C      1  0.5835070000000  0.4588950000000  0.5206590000000 1.0
C      1  0.5295300000000  0.5717690000000  0.4414550000000 1.0
C      1  0.5395580000000  0.4922150000000  0.4631860000000 1.0
C      1  0.5921760000000  0.4967320000000  0.5132130000000 1.0
C      1  0.5200810000000  0.5062280000000  0.3962820000000 1.0
C      1  0.5368780000000  0.5202380000000  0.5549420000000 1.0
C      1  0.5831890000000  0.5419210000000  0.4503550000000 1.0
C      1  0.5787580000000  0.5556020000000  0.5539150000000 1.0
C      1  0.4251450000000  0.5191300000000  0.5524550000000 1.0
C      1  0.4792530000000  0.5235390000000  0.4540740000000 1.0
C      1  0.4563890000000  0.4682720000000  0.5843680000000 1.0
C      1  0.4613240000000  0.3906830000000  0.4863380000000 1.0
C      1  0.5165920000000  0.4382150000000  0.5401260000000 1.0
C      1  0.6076880000000  0.5221280000000  0.5398180000000 1.0
C      1  0.5414120000000  0.5577100000000  0.5265440000000 1.0
C      1  0.5517790000000  0.5148730000000  0.4190590000000 1.0
C      1  0.4934480000000  0.5078320000000  0.5388850000000 1.0
C      1  0.5687800000000  0.4831650000000  0.4925780000000 1.0
C      1  0.5414430000000  0.6090270000000  0.4901690000000 1.0
C      1  0.5761180000000  0.5016360000000  0.5780100000000 1.0
C      1  0.4501280000000  0.5543400000000  0.4263250000000 1.0
C      1  0.5003270000000  0.5262830000000  0.6140290000000 1.0
C      1  0.5266290000000  0.6070960000000  0.5172710000000 1.0
C      1  0.4752160000000  0.5385750000000  0.5209420000000 1.0
C      1  0.5384750000000  0.5866550000000  0.4706910000000 1.0
C      1  0.5742250000000  0.5108090000000  0.4735280000000 1.0
C      1  0.5675610000000  0.5260390000000  0.5584690000000 1.0
C      1  0.4254440000000  0.5545220000000  0.5119940000000 1.0
C      1  0.4431720000000  0.4191210000000  0.5423700000000 1.0
C      1  0.4367690000000  0.4415210000000  0.4566100000000 1.0
C      1  0.4550790000000  0.5460910000000  0.4552330000000 1.0
C      1  0.5366640000000  0.4118980000000  0.4658820000000 1.0
C      1  0.4624340000000  0.5171740000000  0.5421920000000 1.0
C      1  0.4922050000000  0.5014650000000  0.5065740000000 1.0
C      1  0.5603970000000  0.4814400000000  0.5315820000000 1.0
C      1  0.5817260000000  0.4219600000000  0.4832700000000 1.0
C      1  0.5105240000000  0.4564190000000  0.5957980000000 1.0
C      1  0.4940940000000  0.4975470000000  0.4668380000000 1.0
C      1  0.5410560000000  0.4676980000000  0.6035580000000 1.0
C      1  0.4930580000000  0.3946850000000  0.4791020000000 1.0
C      1  0.5397890000000  0.4988520000000  0.4965340000000 1.0
C      1  0.4328620000000  0.4711480000000  0.5287060000000 1.0
C      1  0.4747060000000  0.4606920000000  0.5589970000000 1.0
C      1  0.5467410000000  0.4461800000000  0.5822620000000 1.0
C      1  0.5691570000000  0.5676300000000  0.5301040000000 1.0
C      1  0.5905760000000  0.4496940000000  0.4930350000000 1.0
C      1  0.4754620000000  0.6008410000000  0.4757040000000 1.0
C      1  0.4438690000000  0.5759530000000  0.5241760000000 1.0
C      1  0.4289100000000  0.4580200000000  0.5004060000000 1.0
C      1  0.4960550000000  0.5766700000000  0.4376560000000 1.0
C      1  0.5665680000000  0.5145330000000  0.5267680000000 1.0
C      1  0.5513450000000  0.5383490000000  0.4426550000000 1.0
C      1  0.5616070000000  0.4577460000000  0.4273010000000 1.0
C      1  0.5182530000000  0.4509060000000  0.3993380000000 1.0
C      1  0.5100560000000  0.4560350000000  0.4658570000000 1.0
C      1  0.4854290000000  0.4296230000000  0.5502820000000 1.0
C      1  0.4997660000000  0.4337140000000  0.5814700000000 1.0
C      1  0.5332280000000  0.5194060000000  0.6075940000000 1.0
C      1  0.5637990000000  0.4258190000000  0.5104260000000 1.0
C      1  0.4088080000000  0.4932870000000  0.5374850000000 1.0
C      1  0.5186710000000  0.4533480000000  0.5097280000000 1.0
C      1  0.5315730000000  0.4900830000000  0.4194130000000 1.0
C      1  0.5162620000000  0.5763080000000  0.5201200000000 1.0
C      1  0.4947710000000  0.5503980000000  0.5933110000000 1.0
C      1  0.5676350000000  0.4795520000000  0.4497070000000 1.0
C      1  0.4685490000000  0.4318650000000  0.4487570000000 1.0
C      1  0.4160010000000  0.5098980000000  0.4493310000000 1.0
C      1  0.5286740000000  0.4778840000000  0.5282830000000 1.0
C      1  0.5309600000000  0.4103590000000  0.5397070000000 1.0
C      1  0.4939520000000  0.4793990000000  0.5923460000000 1.0
C      1  0.4658310000000  0.4911860000000  0.4966360000000 1.0
C      1  0.3877710000000  0.4805940000000  0.5173790000000 1.0
C      1  0.5337290000000  0.5331770000000  0.3971460000000 1.0
C      1  0.5842150000000  0.5622860000000  0.5019800000000 1.0
C      1  0.6086650000000  0.5131820000000  0.4937210000000 1.0
C      1  0.5371330000000  0.5452080000000  0.5859320000000 1.0
C      1  0.5169850000000  0.5870660000000  0.5607610000000 1.0
C      1  0.4748010000000  0.5455180000000  0.4897740000000 1.0
C      1  0.5106290000000  0.5267920000000  0.5759860000000 1.0
C      1  0.5046060000000  0.5880350000000  0.4679910000000 1.0
C      1  0.5644430000000  0.4764660000000  0.5632450000000 1.0
C      1  0.4676590000000  0.4295990000000  0.5212350000000 1.0
C      1  0.5238360000000  0.4008400000000  0.4922360000000 1.0
C      1  0.4784030000000  0.5698170000000  0.5838420000000 1.0
C      1  0.3866450000000  0.4532760000000  0.5144760000000 1.0
C      1  0.5895500000000  0.4686150000000  0.4702000000000 1.0
C      1  0.4289900000000  0.4804020000000  0.5606530000000 1.0
C      1  0.4900060000000  0.3975200000000  0.5128540000000 1.0
C      1  0.4736280000000  0.4405620000000  0.4162810000000 1.0
C      1  0.5785260000000  0.5099390000000  0.4396380000000 1.0
C      1  0.4590010000000  0.5719080000000  0.4752680000000 1.0
C      1  0.4429000000000  0.4942840000000  0.4421230000000 1.0
C      1  0.5192250000000  0.5565620000000  0.4123700000000 1.0
C      1  0.5919460000000  0.5364980000000  0.5212770000000 1.0
C      1  0.4019810000000  0.4834450000000  0.4592030000000 1.0
C      1  0.4114600000000  0.4561240000000  0.4169190000000 1.0
C      1  0.5508290000000  0.4544440000000  0.4987170000000 1.0
C      1  0.4954840000000  0.6087530000000  0.5308230000000 1.0
C      1  0.5021520000000  0.4968420000000  0.5698750000000 1.0
C      1  0.3977220000000  0.4332830000000  0.4990820000000 1.0
C      1  0.4696350000000  0.4901000000000  0.6041010000000 1.0
C      1  0.4501610000000  0.4377480000000  0.5886610000000 1.0
C      1  0.4973650000000  0.4740850000000  0.5374680000000 1.0
C      1  0.4758580000000  0.5140250000000  0.3836130000000 1.0
C      1  0.5633910000000  0.5698050000000  0.4440600000000 1.0
C      1  0.4118820000000  0.4604350000000  0.4464600000000 1.0
C      1  0.4564710000000  0.5739740000000  0.4024570000000 1.0
C      1  0.4371280000000  0.5265620000000  0.5214970000000 1.0
C      1  0.4495990000000  0.4127750000000  0.4978330000000 1.0
C      1  0.4458620000000  0.5284900000000  0.5781910000000 1.0
C      1  0.4862730000000  0.5923650000000  0.5593840000000 1.0
C      1  0.5014860000000  0.5266690000000  0.4923690000000 1.0
C      1  0.4921500000000  0.5612660000000  0.5352210000000 1.0
END
