TITL C-2848504-8560-254 -0.00228681856134754 125000 -491.039158794117 0 0 94 (C1) n - 1
REM
REM in /home/bkarasulu/work/CARBON/AIRSS/Generating-Clusters/AIREBO/with-SteepDescent/Only-C1/SD-CG-opt/Try1-1.4A-POS3A/HFTN-CG
REM
REM
REM
REM
REM
REM ./C.cell (11c1c37f851c82e70ff6c80c92926a4b)
REM
REM compiler GCC version 9.2.1 20190827 (Red Hat 9.2.1-1)
REM options -cpp -mtune=generic -march=x86-64 -g -O0 -fpre-include=/usr/include/finclude/math-vector-fortran.h
REM seed 1281360310 -124982093 281877655 -1373676550 -849561963 1365727269 1027100077 217608631 947087425 -1253411258 -1195662413 1833284136 -1803858743 -1714520343 -1355129109 -989691675 979816607 -649976770 -644274481 2092312807 -2063051624 367555231 -292027617 -1715133488 -1256909893 993693121 591841243 -1989061896 207992951 -1751020093 -129792682 374835060 1444131028
REM
CELL 1.54180   50.00000   50.00000   50.00000   90.00000   90.00000   90.00000
LATT -1
SFAC C  
C      1  0.5022600000000  0.4848800000000  0.5713450000000 1.0
C      1  0.5180120000000  0.5229920000000  0.5291740000000 1.0
C      1  0.5122710000000  0.4724350000000  0.5252310000000 1.0
C      1  0.5601900000000  0.5395600000000  0.5016350000000 1.0
C      1  0.4733850000000  0.5851020000000  0.4592990000000 1.0
C      1  0.5196740000000  0.4424570000000  0.5331440000000 1.0
C      1  0.5251610000000  0.4090720000000  0.4897220000000 1.0
C      1  0.4673920000000  0.4832040000000  0.4344090000000 1.0
C      1  0.5278480000000  0.5726120000000  0.4474740000000 1.0
C      1  0.4893520000000  0.5335540000000  0.4221170000000 1.0
C      1  0.5799430000000  0.4984090000000  0.5503780000000 1.0
C      1  0.4481280000000  0.4833000000000  0.5653560000000 1.0
C      1  0.4072900000000  0.4736220000000  0.4946050000000 1.0
C      1  0.4787610000000  0.5394620000000  0.5729140000000 1.0
C      1  0.5577150000000  0.4868320000000  0.4638500000000 1.0
C      1  0.4521980000000  0.5730050000000  0.4784350000000 1.0
C      1  0.5300350000000  0.5269690000000  0.5607390000000 1.0
C      1  0.4572310000000  0.5393330000000  0.4322440000000 1.0
C      1  0.5275080000000  0.4560150000000  0.4795850000000 1.0
C      1  0.4451800000000  0.4354250000000  0.4552760000000 1.0
C      1  0.4928010000000  0.4274400000000  0.4408050000000 1.0
C      1  0.5752480000000  0.4583180000000  0.5052950000000 1.0
C      1  0.5519690000000  0.5217670000000  0.5277880000000 1.0
C      1  0.4997080000000  0.4738030000000  0.4291890000000 1.0
C      1  0.4262620000000  0.4538000000000  0.4744670000000 1.0
C      1  0.5396640000000  0.4231860000000  0.5044390000000 1.0
C      1  0.4679640000000  0.4998810000000  0.6149210000000 1.0
C      1  0.5309260000000  0.5716010000000  0.5335980000000 1.0
C      1  0.5072210000000  0.5672290000000  0.5465440000000 1.0
C      1  0.5777760000000  0.5253920000000  0.4826290000000 1.0
C      1  0.5368020000000  0.4818070000000  0.4974810000000 1.0
C      1  0.4927340000000  0.4698500000000  0.4622330000000 1.0
C      1  0.4734410000000  0.5208050000000  0.5921650000000 1.0
C      1  0.5096860000000  0.5668200000000  0.4985140000000 1.0
C      1  0.4799960000000  0.4533750000000  0.5123060000000 1.0
C      1  0.4651820000000  0.5680170000000  0.5071730000000 1.0
C      1  0.5543960000000  0.4925120000000  0.5207390000000 1.0
C      1  0.4999230000000  0.4968040000000  0.5411790000000 1.0
C      1  0.4283560000000  0.5176520000000  0.4732420000000 1.0
C      1  0.5458900000000  0.4539640000000  0.5147960000000 1.0
C      1  0.4815170000000  0.5599500000000  0.4402810000000 1.0
C      1  0.5355810000000  0.4781140000000  0.5710530000000 1.0
C      1  0.4777020000000  0.4985540000000  0.4725370000000 1.0
C      1  0.5618260000000  0.4567040000000  0.4590850000000 1.0
C      1  0.4446710000000  0.5062190000000  0.5493350000000 1.0
C      1  0.4218830000000  0.4861300000000  0.4665590000000 1.0
C      1  0.5182890000000  0.5239060000000  0.4234800000000 1.0
C      1  0.4410250000000  0.5338340000000  0.5385640000000 1.0
C      1  0.5006810000000  0.4202880000000  0.5191130000000 1.0
C      1  0.4404040000000  0.5414120000000  0.4572980000000 1.0
C      1  0.4958770000000  0.5445100000000  0.5157400000000 1.0
C      1  0.4323750000000  0.4932030000000  0.5044450000000 1.0
C      1  0.4865520000000  0.5493600000000  0.4710660000000 1.0
C      1  0.4927540000000  0.5229770000000  0.4542790000000 1.0
C      1  0.5359210000000  0.5519530000000  0.4728270000000 1.0
C      1  0.4542490000000  0.4468870000000  0.4925000000000 1.0
C      1  0.5794060000000  0.4480670000000  0.4800560000000 1.0
C      1  0.5766190000000  0.4970330000000  0.4877540000000 1.0
C      1  0.5063020000000  0.4963610000000  0.5017590000000 1.0
C      1  0.4229400000000  0.5698980000000  0.4628640000000 1.0
C      1  0.4602600000000  0.5497980000000  0.5525590000000 1.0
C      1  0.4805200000000  0.5185160000000  0.4999410000000 1.0
C      1  0.5587400000000  0.4729540000000  0.5482100000000 1.0
C      1  0.4742210000000  0.4750500000000  0.5363450000000 1.0
C      1  0.4676270000000  0.4231340000000  0.5217250000000 1.0
C      1  0.4416240000000  0.4405380000000  0.5246330000000 1.0
C      1  0.5505530000000  0.5071250000000  0.5654650000000 1.0
C      1  0.5353420000000  0.4460750000000  0.4492070000000 1.0
C      1  0.5125920000000  0.4450920000000  0.4331110000000 1.0
C      1  0.5156720000000  0.5109900000000  0.4733800000000 1.0
C      1  0.4767510000000  0.4396940000000  0.4680230000000 1.0
C      1  0.4498100000000  0.4991970000000  0.4540150000000 1.0
C      1  0.5365900000000  0.5403650000000  0.4428480000000 1.0
C      1  0.4843890000000  0.4516940000000  0.5588700000000 1.0
C      1  0.5742540000000  0.5300940000000  0.4556200000000 1.0
C      1  0.5041620000000  0.5767930000000  0.4686200000000 1.0
C      1  0.4341420000000  0.5264890000000  0.5060570000000 1.0
C      1  0.5280310000000  0.5294890000000  0.4971060000000 1.0
C      1  0.4582290000000  0.5405260000000  0.4865770000000 1.0
C      1  0.5242120000000  0.4831060000000  0.4593030000000 1.0
C      1  0.5068040000000  0.4441290000000  0.4954480000000 1.0
C      1  0.5147500000000  0.4539100000000  0.5632130000000 1.0
C      1  0.4559700000000  0.4793260000000  0.4889630000000 1.0
C      1  0.4444300000000  0.4607040000000  0.5442690000000 1.0
C      1  0.5516780000000  0.5103350000000  0.4403040000000 1.0
C      1  0.5417320000000  0.5667990000000  0.5030180000000 1.0
C      1  0.4774350000000  0.5661840000000  0.5343460000000 1.0
C      1  0.5863960000000  0.4863450000000  0.5185390000000 1.0
C      1  0.4736410000000  0.4879120000000  0.5835620000000 1.0
C      1  0.4606000000000  0.5014120000000  0.5215450000000 1.0
C      1  0.5535780000000  0.5536370000000  0.5388110000000 1.0
C      1  0.5068460000000  0.5457190000000  0.5658180000000 1.0
C      1  0.4920570000000  0.4156040000000  0.4865440000000 1.0
C      1  0.5243060000000  0.4936480000000  0.4269750000000 1.0
END
