TITL C-2848502-4955-243 -0.00126489003830009 125000 -768.62700677089 0 0 140 (C1) n - 1
REM
REM in /home/bkarasulu/work/CARBON/AIRSS/Generating-Clusters/AIREBO/with-SteepDescent/Only-C1/SD-CG-opt/Try1-1.4A-POS3A/HFTN-CG
REM
REM
REM
REM
REM
REM ./C.cell (11c1c37f851c82e70ff6c80c92926a4b)
REM
REM compiler GCC version 9.2.1 20190827 (Red Hat 9.2.1-1)
REM options -cpp -mtune=generic -march=x86-64 -g -O0 -fpre-include=/usr/include/finclude/math-vector-fortran.h
REM seed -1489925972 -1765897499 -1915215219 -948619416 -1275044696 1113891769 1817456522 -761550759 -105329134 1762493900 1911516516 169763858 1241354774 1618617853 -446387190 -1914243708 361267774 890087708 228960512 -2004725056 -754746085 272166826 -1361035524 -730893766 -1651663016 1393000476 1258079690 -1386786555 -156931258 -79013492 1960138452 373784521 -1543403776
REM
CELL 1.54180   50.00000   50.00000   50.00000   90.00000   90.00000   90.00000
LATT -1
SFAC C  
C      1  0.5788170000000  0.5243560000000  0.4720080000000 1.0
C      1  0.4312890000000  0.4803810000000  0.4872450000000 1.0
C      1  0.4518590000000  0.5640800000000  0.4513110000000 1.0
C      1  0.4151010000000  0.4892180000000  0.5084580000000 1.0
C      1  0.5158810000000  0.4015720000000  0.4753030000000 1.0
C      1  0.5130050000000  0.4911180000000  0.5486940000000 1.0
C      1  0.5295020000000  0.6096570000000  0.4942070000000 1.0
C      1  0.4459740000000  0.4536060000000  0.4967190000000 1.0
C      1  0.4392480000000  0.4221340000000  0.5367900000000 1.0
C      1  0.5830900000000  0.4917200000000  0.5203510000000 1.0
C      1  0.5559020000000  0.5343260000000  0.5762970000000 1.0
C      1  0.4115130000000  0.4415660000000  0.5316790000000 1.0
C      1  0.4518610000000  0.5284310000000  0.5813070000000 1.0
C      1  0.5542570000000  0.5049710000000  0.5938390000000 1.0
C      1  0.4471730000000  0.5718890000000  0.4814730000000 1.0
C      1  0.5441550000000  0.4062950000000  0.4753660000000 1.0
C      1  0.5407380000000  0.4478130000000  0.4983290000000 1.0
C      1  0.4706070000000  0.5748770000000  0.5573680000000 1.0
C      1  0.4698040000000  0.4886960000000  0.5579340000000 1.0
C      1  0.5240390000000  0.5757770000000  0.5487860000000 1.0
C      1  0.5232090000000  0.4576310000000  0.4724500000000 1.0
C      1  0.4980680000000  0.4614370000000  0.5189850000000 1.0
C      1  0.4927960000000  0.5203080000000  0.6049240000000 1.0
C      1  0.4990010000000  0.4231860000000  0.4602650000000 1.0
C      1  0.4958200000000  0.4866950000000  0.6007360000000 1.0
C      1  0.4247600000000  0.5471060000000  0.4425350000000 1.0
C      1  0.4696520000000  0.4337190000000  0.4554390000000 1.0
C      1  0.4674970000000  0.4082150000000  0.5327910000000 1.0
C      1  0.4289510000000  0.5620860000000  0.5244510000000 1.0
C      1  0.5521200000000  0.5611030000000  0.4957850000000 1.0
C      1  0.5158920000000  0.5238470000000  0.5030380000000 1.0
C      1  0.5152180000000  0.5435620000000  0.5275750000000 1.0
C      1  0.4137620000000  0.5391410000000  0.4718460000000 1.0
C      1  0.5395980000000  0.5356210000000  0.4510000000000 1.0
C      1  0.4879680000000  0.4537790000000  0.4221430000000 1.0
C      1  0.4825840000000  0.5963290000000  0.4687880000000 1.0
C      1  0.4902450000000  0.5503890000000  0.6007530000000 1.0
C      1  0.4780990000000  0.5123330000000  0.5759590000000 1.0
C      1  0.4892660000000  0.4337560000000  0.4903090000000 1.0
C      1  0.5248500000000  0.5130180000000  0.4060040000000 1.0
C      1  0.4400240000000  0.4558100000000  0.4164350000000 1.0
C      1  0.5157020000000  0.5379630000000  0.4192900000000 1.0
C      1  0.4835000000000  0.4644960000000  0.5452990000000 1.0
C      1  0.5593770000000  0.4205110000000  0.5298270000000 1.0
C      1  0.4708800000000  0.4664970000000  0.4464860000000 1.0
C      1  0.5696840000000  0.4764770000000  0.5465110000000 1.0
C      1  0.5613700000000  0.5046690000000  0.5605880000000 1.0
C      1  0.5153820000000  0.4965550000000  0.4704800000000 1.0
C      1  0.4638240000000  0.5597030000000  0.5864310000000 1.0
C      1  0.4292220000000  0.4580560000000  0.4435950000000 1.0
C      1  0.4265840000000  0.4284630000000  0.5067310000000 1.0
C      1  0.5731210000000  0.4673700000000  0.4662120000000 1.0
C      1  0.4849940000000  0.4095150000000  0.5535990000000 1.0
C      1  0.5484000000000  0.5783370000000  0.5250380000000 1.0
C      1  0.4600960000000  0.5037300000000  0.4262490000000 1.0
C      1  0.5791510000000  0.5213610000000  0.5213150000000 1.0
C      1  0.4430170000000  0.4440260000000  0.4642210000000 1.0
C      1  0.4467460000000  0.4609400000000  0.5299680000000 1.0
C      1  0.5701740000000  0.5409290000000  0.4368220000000 1.0
C      1  0.5750260000000  0.4444730000000  0.5184970000000 1.0
C      1  0.5161090000000  0.4788680000000  0.4995100000000 1.0
C      1  0.4323940000000  0.5385180000000  0.5382530000000 1.0
C      1  0.5061710000000  0.4923680000000  0.3966790000000 1.0
C      1  0.5317590000000  0.5618690000000  0.4685650000000 1.0
C      1  0.5026620000000  0.5317800000000  0.5679200000000 1.0
C      1  0.4849920000000  0.5025730000000  0.5331490000000 1.0
C      1  0.4531120000000  0.5341850000000  0.4674800000000 1.0
C      1  0.5414240000000  0.5013710000000  0.5025540000000 1.0
C      1  0.5472230000000  0.4734820000000  0.5908540000000 1.0
C      1  0.5014160000000  0.5623270000000  0.4778380000000 1.0
C      1  0.4414050000000  0.4966000000000  0.5748840000000 1.0
C      1  0.5067710000000  0.5758720000000  0.5211460000000 1.0
C      1  0.5846800000000  0.5117650000000  0.4353840000000 1.0
C      1  0.5615560000000  0.5283160000000  0.4975360000000 1.0
C      1  0.5455280000000  0.4664690000000  0.5616690000000 1.0
C      1  0.4174830000000  0.4836820000000  0.4460030000000 1.0
C      1  0.4759190000000  0.4969320000000  0.3978360000000 1.0
C      1  0.5593370000000  0.4176410000000  0.4537910000000 1.0
C      1  0.4557790000000  0.5381990000000  0.5528770000000 1.0
C      1  0.5306530000000  0.5723480000000  0.4382080000000 1.0
C      1  0.4745490000000  0.5458660000000  0.5103860000000 1.0
C      1  0.5153660000000  0.4579530000000  0.5547070000000 1.0
C      1  0.5537790000000  0.5661040000000  0.4242140000000 1.0
C      1  0.4322270000000  0.4874270000000  0.5443250000000 1.0
C      1  0.4774950000000  0.5889300000000  0.5272250000000 1.0
C      1  0.4282610000000  0.5114050000000  0.4623620000000 1.0
C      1  0.4634320000000  0.4667300000000  0.4072240000000 1.0
C      1  0.4613980000000  0.4417700000000  0.5533490000000 1.0
C      1  0.4845840000000  0.5345540000000  0.5392560000000 1.0
C      1  0.4076410000000  0.4686880000000  0.5301570000000 1.0
C      1  0.4760980000000  0.5764590000000  0.4956190000000 1.0
C      1  0.5719240000000  0.5402460000000  0.5406710000000 1.0
C      1  0.4781780000000  0.4652790000000  0.5954500000000 1.0
C      1  0.4767720000000  0.4654420000000  0.4945560000000 1.0
C      1  0.4467080000000  0.5349040000000  0.4239460000000 1.0
C      1  0.5750510000000  0.5672500000000  0.5377560000000 1.0
C      1  0.5258950000000  0.5199800000000  0.5797750000000 1.0
C      1  0.5897960000000  0.4964580000000  0.4653120000000 1.0
C      1  0.5489390000000  0.4910450000000  0.4705830000000 1.0
C      1  0.4506570000000  0.4736580000000  0.5958010000000 1.0
C      1  0.4532290000000  0.4892410000000  0.4628270000000 1.0
C      1  0.5196080000000  0.4889370000000  0.5820440000000 1.0
C      1  0.4934660000000  0.4707180000000  0.4676150000000 1.0
C      1  0.5978090000000  0.4824240000000  0.4935040000000 1.0
C      1  0.4275030000000  0.5002870000000  0.4241550000000 1.0
C      1  0.5376430000000  0.5035600000000  0.5362830000000 1.0
C      1  0.5050400000000  0.3976600000000  0.5017390000000 1.0
C      1  0.5707840000000  0.5536800000000  0.4683410000000 1.0
C      1  0.5346550000000  0.4578890000000  0.4426270000000 1.0
C      1  0.4839560000000  0.4424350000000  0.5783670000000 1.0
C      1  0.4770830000000  0.5809600000000  0.4450510000000 1.0
C      1  0.5113840000000  0.4382270000000  0.4358240000000 1.0
C      1  0.4513530000000  0.5247430000000  0.5000950000000 1.0
C      1  0.5514840000000  0.4182820000000  0.4998860000000 1.0
C      1  0.5107430000000  0.4280910000000  0.5629320000000 1.0
C      1  0.5135170000000  0.4652790000000  0.4069080000000 1.0
C      1  0.5372070000000  0.4126740000000  0.5506050000000 1.0
C      1  0.5341110000000  0.4858070000000  0.4245290000000 1.0
C      1  0.4771960000000  0.4077470000000  0.5069870000000 1.0
C      1  0.4781340000000  0.5444830000000  0.4287530000000 1.0
C      1  0.4303440000000  0.5511710000000  0.4958540000000 1.0
C      1  0.5574660000000  0.4721810000000  0.5094880000000 1.0
C      1  0.4903710000000  0.5166510000000  0.4817430000000 1.0
C      1  0.5220190000000  0.4074840000000  0.5246540000000 1.0
C      1  0.5000820000000  0.5639830000000  0.5700560000000 1.0
C      1  0.4288250000000  0.5131610000000  0.5227860000000 1.0
C      1  0.4811090000000  0.5048600000000  0.4512090000000 1.0
C      1  0.5525180000000  0.5055280000000  0.4419700000000 1.0
C      1  0.4725600000000  0.4982850000000  0.5030450000000 1.0
C      1  0.5886300000000  0.4534330000000  0.4931230000000 1.0
C      1  0.5128150000000  0.5159100000000  0.4438980000000 1.0
C      1  0.5144130000000  0.5875380000000  0.4937350000000 1.0
C      1  0.5152260000000  0.4351180000000  0.5112790000000 1.0
C      1  0.5496750000000  0.6077080000000  0.5129870000000 1.0
C      1  0.4844490000000  0.5432620000000  0.4614140000000 1.0
C      1  0.4696490000000  0.5301720000000  0.3990730000000 1.0
C      1  0.5016860000000  0.5679190000000  0.4271880000000 1.0
C      1  0.5405550000000  0.5351750000000  0.5459320000000 1.0
C      1  0.5615390000000  0.4444480000000  0.4485520000000 1.0
C      1  0.4455950000000  0.5819570000000  0.5353010000000 1.0
END
