TITL C-2848494-1720-23 0.000989585337207704 125000 -746.9990197823 0 0 139 (C1) n - 1
REM
REM in /home/bkarasulu/work/CARBON/AIRSS/Generating-Clusters/AIREBO/with-SteepDescent/Only-C1/SD-CG-opt/Try1-1.4A-POS3A/HFTN-CG
REM
REM
REM
REM
REM
REM ./C.cell (11c1c37f851c82e70ff6c80c92926a4b)
REM
REM compiler GCC version 9.2.1 20190827 (Red Hat 9.2.1-1)
REM options -cpp -mtune=generic -march=x86-64 -g -O0 -fpre-include=/usr/include/finclude/math-vector-fortran.h
REM seed 1690860884 1181482219 -1387606148 1715981160 830995690 34403868 1680544389 -1322088955 462450281 902915950 1353047578 1756463404 59805787 -1472512545 -1819562197 -518946574 -73058991 341127558 -2102658467 -757395000 -692216948 -1781728150 -182889104 1224818197 253027225 -54093108 -1103912781 1603233060 475885657 792615230 -1274890366 -678744113 -1421597155
REM
CELL 1.54180   50.00000   50.00000   50.00000   90.00000   90.00000   90.00000
LATT -1
SFAC C  
C      1  0.4726530000000  0.4250690000000  0.5494460000000 1.0
C      1  0.5596290000000  0.5817990000000  0.5065700000000 1.0
C      1  0.5301160000000  0.5957270000000  0.5113840000000 1.0
C      1  0.4150260000000  0.4925690000000  0.4755990000000 1.0
C      1  0.5383920000000  0.5751090000000  0.5716250000000 1.0
C      1  0.4844030000000  0.5717520000000  0.5703250000000 1.0
C      1  0.5577930000000  0.4697990000000  0.5274760000000 1.0
C      1  0.5025090000000  0.5993420000000  0.3971580000000 1.0
C      1  0.4636810000000  0.5257590000000  0.5449610000000 1.0
C      1  0.5472800000000  0.4494860000000  0.4300240000000 1.0
C      1  0.5038950000000  0.5564850000000  0.4960180000000 1.0
C      1  0.5044810000000  0.5199660000000  0.5122450000000 1.0
C      1  0.4181650000000  0.4722650000000  0.4484970000000 1.0
C      1  0.5606530000000  0.5244740000000  0.4744910000000 1.0
C      1  0.6003670000000  0.5146290000000  0.5034480000000 1.0
C      1  0.5736710000000  0.5171730000000  0.5781370000000 1.0
C      1  0.5060410000000  0.5292880000000  0.4513010000000 1.0
C      1  0.5744520000000  0.5773310000000  0.5345600000000 1.0
C      1  0.4922580000000  0.5078010000000  0.5407830000000 1.0
C      1  0.6023580000000  0.4407020000000  0.5207330000000 1.0
C      1  0.5395100000000  0.5243170000000  0.4478470000000 1.0
C      1  0.4149010000000  0.5106180000000  0.5463790000000 1.0
C      1  0.3906070000000  0.5149000000000  0.4677670000000 1.0
C      1  0.4641340000000  0.4218920000000  0.4951530000000 1.0
C      1  0.5411310000000  0.5511210000000  0.4825850000000 1.0
C      1  0.4915890000000  0.3900450000000  0.4745380000000 1.0
C      1  0.4430630000000  0.4258370000000  0.5383530000000 1.0
C      1  0.4648280000000  0.5130320000000  0.4732990000000 1.0
C      1  0.4239780000000  0.5175350000000  0.4968790000000 1.0
C      1  0.4824630000000  0.5972290000000  0.5180240000000 1.0
C      1  0.4036070000000  0.5419550000000  0.4848260000000 1.0
C      1  0.5719390000000  0.4762030000000  0.4898170000000 1.0
C      1  0.5782750000000  0.5001690000000  0.4584970000000 1.0
C      1  0.4431370000000  0.4973490000000  0.4056180000000 1.0
C      1  0.5216200000000  0.5591730000000  0.4558850000000 1.0
C      1  0.4409810000000  0.5430670000000  0.5610610000000 1.0
C      1  0.5045480000000  0.4909750000000  0.4964040000000 1.0
C      1  0.4846910000000  0.5099520000000  0.4329980000000 1.0
C      1  0.6208370000000  0.5553090000000  0.4450300000000 1.0
C      1  0.4014820000000  0.5244740000000  0.5204530000000 1.0
C      1  0.4896790000000  0.5440960000000  0.5569570000000 1.0
C      1  0.4288140000000  0.4724760000000  0.5216790000000 1.0
C      1  0.4488480000000  0.5540700000000  0.5044500000000 1.0
C      1  0.4843030000000  0.4519490000000  0.5671380000000 1.0
C      1  0.4685100000000  0.4845850000000  0.5334650000000 1.0
C      1  0.5140570000000  0.5823610000000  0.4875740000000 1.0
C      1  0.4606810000000  0.5221610000000  0.4142220000000 1.0
C      1  0.4568490000000  0.4536970000000  0.5258660000000 1.0
C      1  0.5278940000000  0.5427510000000  0.5128380000000 1.0
C      1  0.4471290000000  0.4760520000000  0.4944480000000 1.0
C      1  0.4131830000000  0.5446180000000  0.5452200000000 1.0
C      1  0.5189900000000  0.4679360000000  0.4261110000000 1.0
C      1  0.4186250000000  0.5536630000000  0.5128310000000 1.0
C      1  0.5001900000000  0.4814230000000  0.5607190000000 1.0
C      1  0.5958290000000  0.5087170000000  0.5299510000000 1.0
C      1  0.4855630000000  0.4668620000000  0.4817330000000 1.0
C      1  0.4038000000000  0.4450170000000  0.4881710000000 1.0
C      1  0.4907700000000  0.4018300000000  0.5322080000000 1.0
C      1  0.4653030000000  0.4435520000000  0.4743170000000 1.0
C      1  0.5401870000000  0.5054680000000  0.5303430000000 1.0
C      1  0.5577770000000  0.5597040000000  0.5518060000000 1.0
C      1  0.4856370000000  0.4565400000000  0.5116430000000 1.0
C      1  0.4580960000000  0.4878400000000  0.4338830000000 1.0
C      1  0.5138660000000  0.4504810000000  0.5255640000000 1.0
C      1  0.5415000000000  0.4300850000000  0.4524280000000 1.0
C      1  0.4163780000000  0.4815800000000  0.5500710000000 1.0
C      1  0.4484550000000  0.4776060000000  0.5567300000000 1.0
C      1  0.4903130000000  0.5479430000000  0.5252270000000 1.0
C      1  0.5484920000000  0.5073040000000  0.4022440000000 1.0
C      1  0.4396570000000  0.4179150000000  0.5073390000000 1.0
C      1  0.5451080000000  0.5845450000000  0.4777400000000 1.0
C      1  0.5409600000000  0.4513800000000  0.4881110000000 1.0
C      1  0.5690670000000  0.4446770000000  0.4773780000000 1.0
C      1  0.4791880000000  0.6099380000000  0.4923590000000 1.0
C      1  0.5250040000000  0.4635470000000  0.5959610000000 1.0
C      1  0.4276330000000  0.4249450000000  0.4547920000000 1.0
C      1  0.5281250000000  0.4761800000000  0.5428250000000 1.0
C      1  0.4936110000000  0.5974780000000  0.4707090000000 1.0
C      1  0.4671220000000  0.5713890000000  0.5229940000000 1.0
C      1  0.5495430000000  0.5034080000000  0.5690500000000 1.0
C      1  0.4077880000000  0.4720940000000  0.4981090000000 1.0
C      1  0.5831380000000  0.4565200000000  0.5151820000000 1.0
C      1  0.5549950000000  0.4158410000000  0.4764710000000 1.0
C      1  0.4877610000000  0.4337260000000  0.4532340000000 1.0
C      1  0.5173650000000  0.4756960000000  0.4591760000000 1.0
C      1  0.4523720000000  0.5230950000000  0.5147370000000 1.0
C      1  0.5272260000000  0.5486320000000  0.5442140000000 1.0
C      1  0.5150180000000  0.4432730000000  0.4691850000000 1.0
C      1  0.5078270000000  0.5832090000000  0.4481660000000 1.0
C      1  0.4586450000000  0.5687700000000  0.5537420000000 1.0
C      1  0.5240330000000  0.4008660000000  0.5251710000000 1.0
C      1  0.5526740000000  0.5027110000000  0.4989500000000 1.0
C      1  0.5116410000000  0.5772420000000  0.5539920000000 1.0
C      1  0.5213320000000  0.5172850000000  0.5560590000000 1.0
C      1  0.5069180000000  0.5052470000000  0.5840390000000 1.0
C      1  0.4890610000000  0.4024840000000  0.4523360000000 1.0
C      1  0.6070920000000  0.5470640000000  0.4648890000000 1.0
C      1  0.4525950000000  0.5477720000000  0.4225300000000 1.0
C      1  0.5842440000000  0.5615090000000  0.5064370000000 1.0
C      1  0.5619120000000  0.5292170000000  0.5418540000000 1.0
C      1  0.5024920000000  0.4808860000000  0.6005450000000 1.0
C      1  0.4870430000000  0.4910670000000  0.4606210000000 1.0
C      1  0.4717960000000  0.4980570000000  0.5024130000000 1.0
C      1  0.4591500000000  0.5453610000000  0.4752550000000 1.0
C      1  0.4890290000000  0.4073390000000  0.5005790000000 1.0
C      1  0.4944320000000  0.4561320000000  0.4148210000000 1.0
C      1  0.4895390000000  0.5438260000000  0.4747440000000 1.0
C      1  0.4413820000000  0.5034960000000  0.4569240000000 1.0
C      1  0.4765470000000  0.4718630000000  0.5914250000000 1.0
C      1  0.4248120000000  0.4751410000000  0.4159550000000 1.0
C      1  0.5082680000000  0.5966080000000  0.5306340000000 1.0
C      1  0.5344540000000  0.4763650000000  0.5035970000000 1.0
C      1  0.5407720000000  0.4645190000000  0.5721730000000 1.0
C      1  0.5679930000000  0.4680290000000  0.5701140000000 1.0
C      1  0.4571850000000  0.4911080000000  0.5818660000000 1.0
C      1  0.5061850000000  0.5922390000000  0.4221150000000 1.0
C      1  0.5213060000000  0.4250180000000  0.5428970000000 1.0
C      1  0.4197110000000  0.4189970000000  0.4873180000000 1.0
C      1  0.5731550000000  0.4913280000000  0.5476660000000 1.0
C      1  0.4930580000000  0.4447420000000  0.3913590000000 1.0
C      1  0.5912770000000  0.5259860000000  0.5554350000000 1.0
C      1  0.4289430000000  0.4499880000000  0.5541910000000 1.0
C      1  0.5476690000000  0.4802210000000  0.4145940000000 1.0
C      1  0.5987770000000  0.4937340000000  0.4838200000000 1.0
C      1  0.4491910000000  0.5174560000000  0.5818950000000 1.0
C      1  0.4386400000000  0.4494610000000  0.4337640000000 1.0
C      1  0.5507170000000  0.4808750000000  0.4634340000000 1.0
C      1  0.5435560000000  0.5854300000000  0.5947850000000 1.0
C      1  0.5216120000000  0.5070140000000  0.4717410000000 1.0
C      1  0.4478210000000  0.5562150000000  0.4481880000000 1.0
C      1  0.5883370000000  0.5390260000000  0.4880350000000 1.0
C      1  0.5381670000000  0.4091650000000  0.4984160000000 1.0
C      1  0.5700380000000  0.4747410000000  0.4372610000000 1.0
C      1  0.4701940000000  0.4561120000000  0.4345980000000 1.0
C      1  0.5022840000000  0.4232790000000  0.5638550000000 1.0
C      1  0.4200840000000  0.5281920000000  0.4584580000000 1.0
C      1  0.4329220000000  0.4538410000000  0.4729720000000 1.0
C      1  0.5468070000000  0.5268900000000  0.4181720000000 1.0
C      1  0.5111460000000  0.4285550000000  0.4996110000000 1.0
END
