TITL C-2848502-4955-405 0.00106078311070876 125000 -696.958503196988 0 0 127 (C1) n - 1
REM
REM in /home/bkarasulu/work/CARBON/AIRSS/Generating-Clusters/AIREBO/with-SteepDescent/Only-C1/SD-CG-opt/Try1-1.4A-POS3A/HFTN-CG
REM
REM
REM
REM
REM
REM ./C.cell (11c1c37f851c82e70ff6c80c92926a4b)
REM
REM compiler GCC version 9.2.1 20190827 (Red Hat 9.2.1-1)
REM options -cpp -mtune=generic -march=x86-64 -g -O0 -fpre-include=/usr/include/finclude/math-vector-fortran.h
REM seed 1670558292 1621699852 85300150 -300763483 -555314507 -1158183145 1596695178 -464447429 -1714030442 1773559930 -585571216 -652092326 -479079134 -108162993 574422264 922103146 -837329414 -1612532884 295665038 1512225704 -854931641 1950057061 927599476 1489896973 385107058 -1272134168 427281808 -937688221 -1055839180 -1947369980 -1233229214 107874145 -926055020
REM
CELL 1.54180   50.00000   50.00000   50.00000   90.00000   90.00000   90.00000
LATT -1
SFAC C  
C      1  0.4572050000000  0.5505770000000  0.4474800000000 1.0
C      1  0.5043060000000  0.5050690000000  0.3957090000000 1.0
C      1  0.5253200000000  0.5913900000000  0.5079340000000 1.0
C      1  0.5444630000000  0.4586700000000  0.5380390000000 1.0
C      1  0.4116190000000  0.4951200000000  0.4570020000000 1.0
C      1  0.5349140000000  0.4738560000000  0.4520620000000 1.0
C      1  0.5318650000000  0.5393210000000  0.5172970000000 1.0
C      1  0.4421320000000  0.5927600000000  0.5020510000000 1.0
C      1  0.4932070000000  0.4398690000000  0.5001360000000 1.0
C      1  0.5193280000000  0.4423870000000  0.5218330000000 1.0
C      1  0.5689050000000  0.5053970000000  0.5517520000000 1.0
C      1  0.4744590000000  0.4039630000000  0.4904760000000 1.0
C      1  0.5318010000000  0.4706650000000  0.4175640000000 1.0
C      1  0.4883940000000  0.5715740000000  0.4606280000000 1.0
C      1  0.5332010000000  0.4023810000000  0.4982810000000 1.0
C      1  0.5011460000000  0.5977360000000  0.5298740000000 1.0
C      1  0.4667560000000  0.5538260000000  0.4799520000000 1.0
C      1  0.4444700000000  0.5063100000000  0.4767570000000 1.0
C      1  0.4839570000000  0.4332960000000  0.4680710000000 1.0
C      1  0.5076020000000  0.5202560000000  0.5230380000000 1.0
C      1  0.5603100000000  0.4540820000000  0.4258280000000 1.0
C      1  0.5196790000000  0.5060480000000  0.4987740000000 1.0
C      1  0.4503260000000  0.4864370000000  0.4538750000000 1.0
C      1  0.4631030000000  0.5256120000000  0.5844480000000 1.0
C      1  0.4879780000000  0.5481500000000  0.5525850000000 1.0
C      1  0.5839780000000  0.4622390000000  0.5354470000000 1.0
C      1  0.5230680000000  0.4268700000000  0.4567920000000 1.0
C      1  0.5326760000000  0.4602070000000  0.4828340000000 1.0
C      1  0.5843490000000  0.4906250000000  0.4504530000000 1.0
C      1  0.4653250000000  0.5734880000000  0.5513490000000 1.0
C      1  0.4190290000000  0.5259350000000  0.4693430000000 1.0
C      1  0.4856640000000  0.4872100000000  0.6014690000000 1.0
C      1  0.5881650000000  0.5027100000000  0.4988450000000 1.0
C      1  0.4790650000000  0.5159920000000  0.5152270000000 1.0
C      1  0.4655580000000  0.4365670000000  0.5639390000000 1.0
C      1  0.5134020000000  0.4760580000000  0.4984270000000 1.0
C      1  0.5312840000000  0.5235990000000  0.4757190000000 1.0
C      1  0.4641830000000  0.5287280000000  0.5380020000000 1.0
C      1  0.4222900000000  0.5188120000000  0.5205900000000 1.0
C      1  0.5305270000000  0.5472580000000  0.5786070000000 1.0
C      1  0.4710120000000  0.5767490000000  0.4316200000000 1.0
C      1  0.4408740000000  0.4770390000000  0.5720880000000 1.0
C      1  0.5288410000000  0.4954540000000  0.5835870000000 1.0
C      1  0.5973050000000  0.5009920000000  0.4730900000000 1.0
C      1  0.4844500000000  0.5149140000000  0.5990010000000 1.0
C      1  0.5113140000000  0.5229500000000  0.5887010000000 1.0
C      1  0.5172030000000  0.6063960000000  0.4802860000000 1.0
C      1  0.5634710000000  0.4514030000000  0.4910330000000 1.0
C      1  0.4544830000000  0.5058480000000  0.5610420000000 1.0
C      1  0.4726120000000  0.4613590000000  0.5266660000000 1.0
C      1  0.4299180000000  0.5539700000000  0.4646230000000 1.0
C      1  0.4605040000000  0.4614040000000  0.4026800000000 1.0
C      1  0.5701080000000  0.5058940000000  0.4296360000000 1.0
C      1  0.5157470000000  0.4199770000000  0.5792720000000 1.0
C      1  0.5239990000000  0.4811270000000  0.5295030000000 1.0
C      1  0.5097730000000  0.5222070000000  0.5554390000000 1.0
C      1  0.4500300000000  0.4609620000000  0.4328210000000 1.0
C      1  0.4926910000000  0.5023200000000  0.4454340000000 1.0
C      1  0.5095110000000  0.4265620000000  0.5473480000000 1.0
C      1  0.4915090000000  0.5259670000000  0.4654710000000 1.0
C      1  0.4404080000000  0.5447720000000  0.5261050000000 1.0
C      1  0.4376130000000  0.4207550000000  0.5169970000000 1.0
C      1  0.5032800000000  0.4059760000000  0.4721180000000 1.0
C      1  0.5182820000000  0.5805280000000  0.4470960000000 1.0
C      1  0.5372260000000  0.5416220000000  0.4244200000000 1.0
C      1  0.5138950000000  0.5563890000000  0.4297070000000 1.0
C      1  0.5384540000000  0.4301850000000  0.4983640000000 1.0
C      1  0.5191270000000  0.5603650000000  0.4999600000000 1.0
C      1  0.4951530000000  0.4451790000000  0.5720630000000 1.0
C      1  0.4672600000000  0.4107720000000  0.5540100000000 1.0
C      1  0.3981810000000  0.4863820000000  0.4932630000000 1.0
C      1  0.5554600000000  0.5810780000000  0.4956810000000 1.0
C      1  0.5050830000000  0.4493100000000  0.4381730000000 1.0
C      1  0.5271230000000  0.4055400000000  0.5966760000000 1.0
C      1  0.4670750000000  0.4288300000000  0.5184490000000 1.0
C      1  0.5468080000000  0.5184820000000  0.5713440000000 1.0
C      1  0.4872830000000  0.5404560000000  0.4351350000000 1.0
C      1  0.5018520000000  0.5648720000000  0.5264260000000 1.0
C      1  0.4282330000000  0.5767980000000  0.4801380000000 1.0
C      1  0.5479390000000  0.5481720000000  0.5428490000000 1.0
C      1  0.4566420000000  0.5516210000000  0.5770550000000 1.0
C      1  0.5066990000000  0.4914530000000  0.5507090000000 1.0
C      1  0.5121170000000  0.5503310000000  0.4725720000000 1.0
C      1  0.4529700000000  0.4280770000000  0.4810610000000 1.0
C      1  0.5546620000000  0.5241240000000  0.5009890000000 1.0
C      1  0.4689870000000  0.5889730000000  0.5231550000000 1.0
C      1  0.4229230000000  0.5136060000000  0.5516310000000 1.0
C      1  0.4846820000000  0.4692620000000  0.4853080000000 1.0
C      1  0.5758700000000  0.4735100000000  0.5084970000000 1.0
C      1  0.5011850000000  0.4756230000000  0.4560990000000 1.0
C      1  0.4669090000000  0.4366660000000  0.4429060000000 1.0
C      1  0.4551470000000  0.5631550000000  0.5062690000000 1.0
C      1  0.4564380000000  0.4995950000000  0.4251940000000 1.0
C      1  0.5369000000000  0.5816230000000  0.4711300000000 1.0
C      1  0.5563430000000  0.5382440000000  0.4483280000000 1.0
C      1  0.5125360000000  0.5662800000000  0.5675730000000 1.0
C      1  0.4913360000000  0.6027960000000  0.4720770000000 1.0
C      1  0.4347100000000  0.5598570000000  0.5543670000000 1.0
C      1  0.5488410000000  0.4914460000000  0.5083910000000 1.0
C      1  0.4459160000000  0.4555520000000  0.5555740000000 1.0
C      1  0.5288450000000  0.4966490000000  0.4039360000000 1.0
C      1  0.4042980000000  0.5137780000000  0.4958630000000 1.0
C      1  0.5738350000000  0.5496580000000  0.4662490000000 1.0
C      1  0.5555790000000  0.4353060000000  0.4621290000000 1.0
C      1  0.4683300000000  0.4880550000000  0.5077280000000 1.0
C      1  0.4836560000000  0.5136050000000  0.4165640000000 1.0
C      1  0.5719240000000  0.5342860000000  0.5446040000000 1.0
C      1  0.5037490000000  0.3948320000000  0.5042470000000 1.0
C      1  0.5730050000000  0.5587260000000  0.4934000000000 1.0
C      1  0.5442860000000  0.5066330000000  0.4517590000000 1.0
C      1  0.5692160000000  0.4384410000000  0.5496250000000 1.0
C      1  0.4396450000000  0.4634190000000  0.5230690000000 1.0
C      1  0.5664350000000  0.4774260000000  0.5569710000000 1.0
C      1  0.4899680000000  0.4076180000000  0.5293830000000 1.0
C      1  0.4691810000000  0.5225190000000  0.4860940000000 1.0
C      1  0.4223390000000  0.4695740000000  0.4768350000000 1.0
C      1  0.5332950000000  0.4373870000000  0.4262800000000 1.0
C      1  0.4774020000000  0.4856070000000  0.5465160000000 1.0
C      1  0.5468480000000  0.5161790000000  0.4130310000000 1.0
C      1  0.4822890000000  0.4443140000000  0.4169470000000 1.0
C      1  0.5114980000000  0.5923350000000  0.5598490000000 1.0
C      1  0.4549820000000  0.4606300000000  0.4724360000000 1.0
C      1  0.4366320000000  0.4927660000000  0.5061020000000 1.0
C      1  0.5679310000000  0.4659990000000  0.4542460000000 1.0
C      1  0.4296310000000  0.4454240000000  0.4986840000000 1.0
C      1  0.5039790000000  0.4728340000000  0.5784060000000 1.0
C      1  0.5833070000000  0.5331980000000  0.5133610000000 1.0
END
