TITL C-2848502-4955-417 0.00188472596871169 125000 -946.553141411431 0 0 175 (C1) n - 1
REM
REM in /home/bkarasulu/work/CARBON/AIRSS/Generating-Clusters/AIREBO/with-SteepDescent/Only-C1/SD-CG-opt/Try1-1.4A-POS3A/HFTN-CG
REM
REM
REM
REM
REM
REM ./C.cell (11c1c37f851c82e70ff6c80c92926a4b)
REM
REM compiler GCC version 9.2.1 20190827 (Red Hat 9.2.1-1)
REM options -cpp -mtune=generic -march=x86-64 -g -O0 -fpre-include=/usr/include/finclude/math-vector-fortran.h
REM seed 360112184 -252236952 -1580968266 65212292 1174179557 631096319 1786890386 2133500339 2023677174 -559858661 1261699648 -816718659 -262880601 -1164731195 385745840 1251060155 -262823011 -637462676 400022959 -139053852 -1090551172 -314331611 -207314991 -214849338 -1226519732 -2047471314 386619043 2023597211 1153471680 -2057752345 -1765760937 -552540965 289183912
REM
CELL 1.54180   50.00000   50.00000   50.00000   90.00000   90.00000   90.00000
LATT -1
SFAC C  
C      1  0.5058310000000  0.4216850000000  0.5502250000000 1.0
C      1  0.4324800000000  0.4573530000000  0.4689960000000 1.0
C      1  0.5376220000000  0.4715170000000  0.5904800000000 1.0
C      1  0.5354990000000  0.5312490000000  0.4666840000000 1.0
C      1  0.5872690000000  0.5444580000000  0.4541510000000 1.0
C      1  0.4497220000000  0.5294270000000  0.5936390000000 1.0
C      1  0.4569220000000  0.4899250000000  0.5063780000000 1.0
C      1  0.5212460000000  0.4599760000000  0.5683190000000 1.0
C      1  0.4143220000000  0.5438510000000  0.4325730000000 1.0
C      1  0.5048630000000  0.4436660000000  0.5277350000000 1.0
C      1  0.5806760000000  0.5009160000000  0.5774650000000 1.0
C      1  0.4723330000000  0.6090700000000  0.5671040000000 1.0
C      1  0.5411900000000  0.5460520000000  0.4295640000000 1.0
C      1  0.5192610000000  0.4343550000000  0.5016010000000 1.0
C      1  0.3829070000000  0.5167770000000  0.4755650000000 1.0
C      1  0.4332340000000  0.5794590000000  0.4864120000000 1.0
C      1  0.4623580000000  0.4560360000000  0.4373810000000 1.0
C      1  0.5659720000000  0.4748420000000  0.5863560000000 1.0
C      1  0.4737940000000  0.4674240000000  0.4611090000000 1.0
C      1  0.5123250000000  0.5852960000000  0.5439600000000 1.0
C      1  0.4676530000000  0.4439830000000  0.5728600000000 1.0
C      1  0.5607770000000  0.5149300000000  0.4592550000000 1.0
C      1  0.4728470000000  0.4676220000000  0.4079840000000 1.0
C      1  0.4510940000000  0.3982080000000  0.4311190000000 1.0
C      1  0.4888180000000  0.5184800000000  0.3908760000000 1.0
C      1  0.5352240000000  0.4211590000000  0.5405090000000 1.0
C      1  0.4957860000000  0.5412540000000  0.5438210000000 1.0
C      1  0.3839310000000  0.5192260000000  0.5095480000000 1.0
C      1  0.4716270000000  0.5922630000000  0.4494410000000 1.0
C      1  0.5232160000000  0.5874520000000  0.4294470000000 1.0
C      1  0.5269370000000  0.4719550000000  0.3988390000000 1.0
C      1  0.5679120000000  0.5486950000000  0.5123200000000 1.0
C      1  0.4888400000000  0.5782970000000  0.5020280000000 1.0
C      1  0.5785330000000  0.4546470000000  0.5724020000000 1.0
C      1  0.4297580000000  0.5300660000000  0.4773800000000 1.0
C      1  0.5452660000000  0.5979720000000  0.4861120000000 1.0
C      1  0.5243960000000  0.3890800000000  0.5037010000000 1.0
C      1  0.5279690000000  0.4745070000000  0.5383120000000 1.0
C      1  0.4963380000000  0.5531110000000  0.4626730000000 1.0
C      1  0.4373300000000  0.4466630000000  0.5703640000000 1.0
C      1  0.5919660000000  0.4336670000000  0.5234340000000 1.0
C      1  0.4926240000000  0.5653030000000  0.5631580000000 1.0
C      1  0.5113270000000  0.4014590000000  0.4804860000000 1.0
C      1  0.5072900000000  0.4223750000000  0.6015700000000 1.0
C      1  0.4115690000000  0.5011940000000  0.5580800000000 1.0
C      1  0.5347780000000  0.4631030000000  0.5069900000000 1.0
C      1  0.5679920000000  0.4183790000000  0.5059380000000 1.0
C      1  0.4852240000000  0.5447900000000  0.4024780000000 1.0
C      1  0.4573690000000  0.4647560000000  0.4869970000000 1.0
C      1  0.5602100000000  0.5598570000000  0.4541410000000 1.0
C      1  0.4364150000000  0.4109110000000  0.5270720000000 1.0
C      1  0.5080590000000  0.4791180000000  0.6005350000000 1.0
C      1  0.4217000000000  0.5548320000000  0.5407400000000 1.0
C      1  0.5036260000000  0.4626670000000  0.4216820000000 1.0
C      1  0.4448200000000  0.5953910000000  0.5144020000000 1.0
C      1  0.3893560000000  0.5455510000000  0.4917130000000 1.0
C      1  0.4400170000000  0.4201010000000  0.5008160000000 1.0
C      1  0.4649770000000  0.5494050000000  0.4619660000000 1.0
C      1  0.5637130000000  0.4857830000000  0.5225210000000 1.0
C      1  0.5857680000000  0.5161780000000  0.4388000000000 1.0
C      1  0.4848620000000  0.4238130000000  0.4606550000000 1.0
C      1  0.4897540000000  0.4244980000000  0.4930530000000 1.0
C      1  0.5786860000000  0.4914810000000  0.4860240000000 1.0
C      1  0.4094140000000  0.5655470000000  0.5607460000000 1.0
C      1  0.3992610000000  0.4724500000000  0.5330100000000 1.0
C      1  0.6005440000000  0.4948290000000  0.4601970000000 1.0
C      1  0.4838700000000  0.4014490000000  0.5475880000000 1.0
C      1  0.4564870000000  0.4450500000000  0.5322400000000 1.0
C      1  0.4701360000000  0.5167000000000  0.4297820000000 1.0
C      1  0.5370130000000  0.5004660000000  0.5583370000000 1.0
C      1  0.5158610000000  0.5103510000000  0.3996720000000 1.0
C      1  0.5432020000000  0.5014590000000  0.4037200000000 1.0
C      1  0.5078330000000  0.4876440000000  0.4439670000000 1.0
C      1  0.5085490000000  0.3707610000000  0.5186060000000 1.0
C      1  0.4316340000000  0.5266310000000  0.5302660000000 1.0
C      1  0.5443600000000  0.4236170000000  0.4841970000000 1.0
C      1  0.5478470000000  0.4911240000000  0.4928420000000 1.0
C      1  0.4841470000000  0.4639580000000  0.5330070000000 1.0
C      1  0.6164360000000  0.4862880000000  0.4890360000000 1.0
C      1  0.5605900000000  0.5183560000000  0.5190210000000 1.0
C      1  0.4491790000000  0.4987840000000  0.4162540000000 1.0
C      1  0.5026530000000  0.4980430000000  0.4821860000000 1.0
C      1  0.5371500000000  0.5847290000000  0.4567520000000 1.0
C      1  0.4152620000000  0.5527120000000  0.4856270000000 1.0
C      1  0.5647300000000  0.5271470000000  0.5900060000000 1.0
C      1  0.5428990000000  0.4049340000000  0.5193740000000 1.0
C      1  0.4407760000000  0.4527340000000  0.4116000000000 1.0
C      1  0.5318600000000  0.4467930000000  0.4658230000000 1.0
C      1  0.4645920000000  0.5548030000000  0.5801350000000 1.0
C      1  0.5022600000000  0.5139840000000  0.4281850000000 1.0
C      1  0.5083350000000  0.5075120000000  0.6007180000000 1.0
C      1  0.5538260000000  0.5650760000000  0.4872600000000 1.0
C      1  0.5470670000000  0.4465070000000  0.5412020000000 1.0
C      1  0.5743640000000  0.4362970000000  0.4508350000000 1.0
C      1  0.5627840000000  0.5487580000000  0.5650580000000 1.0
C      1  0.5217420000000  0.4100380000000  0.4541790000000 1.0
C      1  0.4619640000000  0.6045010000000  0.5425980000000 1.0
C      1  0.5266470000000  0.5459640000000  0.4945520000000 1.0
C      1  0.3947880000000  0.5763290000000  0.5796300000000 1.0
C      1  0.4932640000000  0.5949250000000  0.5795530000000 1.0
C      1  0.4589250000000  0.4190680000000  0.5513350000000 1.0
C      1  0.4070090000000  0.5044520000000  0.5245280000000 1.0
C      1  0.5766450000000  0.4593610000000  0.5396030000000 1.0
C      1  0.4225040000000  0.4780160000000  0.4521220000000 1.0
C      1  0.4324870000000  0.4799970000000  0.4260640000000 1.0
C      1  0.4397360000000  0.5628350000000  0.5153530000000 1.0
C      1  0.4700260000000  0.4973680000000  0.3936640000000 1.0
C      1  0.5303880000000  0.5147010000000  0.5074000000000 1.0
C      1  0.5379350000000  0.5493220000000  0.5879740000000 1.0
C      1  0.5775960000000  0.5887030000000  0.4930330000000 1.0
C      1  0.5054830000000  0.4312690000000  0.4346600000000 1.0
C      1  0.5006410000000  0.4377320000000  0.5759860000000 1.0
C      1  0.4929070000000  0.5734850000000  0.4356530000000 1.0
C      1  0.4469890000000  0.5754150000000  0.4581880000000 1.0
C      1  0.4052890000000  0.4112860000000  0.4661820000000 1.0
C      1  0.4404860000000  0.4302010000000  0.4355900000000 1.0
C      1  0.5119680000000  0.4748840000000  0.4861440000000 1.0
C      1  0.4797650000000  0.5007730000000  0.4582440000000 1.0
C      1  0.4878520000000  0.4884420000000  0.5535250000000 1.0
C      1  0.5088370000000  0.5014160000000  0.5301110000000 1.0
C      1  0.4318380000000  0.4233790000000  0.4677700000000 1.0
C      1  0.5142720000000  0.5685140000000  0.5891900000000 1.0
C      1  0.4908120000000  0.3772940000000  0.5386030000000 1.0
C      1  0.4587360000000  0.4964720000000  0.5874400000000 1.0
C      1  0.4805090000000  0.5196700000000  0.5572300000000 1.0
C      1  0.5646190000000  0.5177750000000  0.5511520000000 1.0
C      1  0.5373070000000  0.4920240000000  0.4604510000000 1.0
C      1  0.5665170000000  0.4520610000000  0.5014520000000 1.0
C      1  0.4393560000000  0.5573410000000  0.4323990000000 1.0
C      1  0.4821000000000  0.5518890000000  0.5182850000000 1.0
C      1  0.4606200000000  0.4059320000000  0.4594770000000 1.0
C      1  0.5942840000000  0.5021650000000  0.5454150000000 1.0
C      1  0.4646710000000  0.4391980000000  0.5016350000000 1.0
C      1  0.5573460000000  0.4643000000000  0.4056260000000 1.0
C      1  0.5884240000000  0.4374940000000  0.4798980000000 1.0
C      1  0.4558460000000  0.5337480000000  0.5074760000000 1.0
C      1  0.5274780000000  0.6130320000000  0.5053820000000 1.0
C      1  0.4020590000000  0.5268850000000  0.4487080000000 1.0
C      1  0.5192410000000  0.4657990000000  0.3724940000000 1.0
C      1  0.4553090000000  0.5118020000000  0.5422950000000 1.0
C      1  0.5243990000000  0.5284040000000  0.5443140000000 1.0
C      1  0.5518580000000  0.4147430000000  0.4529910000000 1.0
C      1  0.5465510000000  0.4650110000000  0.4517480000000 1.0
C      1  0.5972160000000  0.5043140000000  0.5115140000000 1.0
C      1  0.4599270000000  0.5223220000000  0.4757050000000 1.0
C      1  0.4616200000000  0.5458510000000  0.4202820000000 1.0
C      1  0.4824420000000  0.5206640000000  0.5906550000000 1.0
C      1  0.5983040000000  0.4632480000000  0.5063180000000 1.0
C      1  0.4207460000000  0.4632220000000  0.5495850000000 1.0
C      1  0.5014490000000  0.4526830000000  0.4675900000000 1.0
C      1  0.5150650000000  0.5345590000000  0.4443990000000 1.0
C      1  0.4257080000000  0.4942170000000  0.4994370000000 1.0
C      1  0.5068230000000  0.6075480000000  0.5224300000000 1.0
C      1  0.4377740000000  0.4864820000000  0.5676230000000 1.0
C      1  0.3799890000000  0.4591150000000  0.5214060000000 1.0
C      1  0.6014110000000  0.5438310000000  0.4775940000000 1.0
C      1  0.4890870000000  0.5525820000000  0.6008280000000 1.0
C      1  0.5324830000000  0.5167450000000  0.5871740000000 1.0
C      1  0.6071660000000  0.4740770000000  0.5367620000000 1.0
C      1  0.4127540000000  0.5018220000000  0.4690570000000 1.0
C      1  0.5581440000000  0.5196200000000  0.4196800000000 1.0
C      1  0.5171930000000  0.5697840000000  0.5145230000000 1.0
C      1  0.5423720000000  0.5784070000000  0.5476260000000 1.0
C      1  0.4971060000000  0.5304290000000  0.4880240000000 1.0
C      1  0.4524070000000  0.4783160000000  0.5380250000000 1.0
C      1  0.5644810000000  0.4582790000000  0.4302010000000 1.0
C      1  0.4766560000000  0.6045100000000  0.5133070000000 1.0
C      1  0.5478390000000  0.5512380000000  0.5372180000000 1.0
C      1  0.4829390000000  0.4730410000000  0.5817560000000 1.0
C      1  0.5942120000000  0.5348620000000  0.5023640000000 1.0
C      1  0.5139580000000  0.5590960000000  0.4131320000000 1.0
C      1  0.5110930000000  0.5797240000000  0.4766770000000 1.0
C      1  0.4880820000000  0.6025030000000  0.4702570000000 1.0
C      1  0.4818080000000  0.5123790000000  0.5125330000000 1.0
C      1  0.5846200000000  0.4661070000000  0.4638290000000 1.0
END
