TITL C-2848509-3138-596 0.0409157599596552 125000 -200.834091801488 0 0 37 (C1) n - 1
REM
REM in /home/bkarasulu/work/CARBON/AIRSS/Generating-Clusters/AIREBO/with-SteepDescent/Only-C1/SD-CG-opt/Try1-1.4A-POS3A/HFTN-CG
REM
REM
REM
REM
REM
REM ./C.cell (11c1c37f851c82e70ff6c80c92926a4b)
REM
REM compiler GCC version 9.2.1 20190827 (Red Hat 9.2.1-1)
REM options -cpp -mtune=generic -march=x86-64 -g -O0 -fpre-include=/usr/include/finclude/math-vector-fortran.h
REM seed 527777984 8733376 1543559856 -577433886 -91884617 1963478082 -1999587780 1324825448 1735275967 -1203504274 -921031510 -167730478 -653514578 -891313287 -702637883 -159277405 -367561763 -679716921 1278844760 188815353 665647632 597737079 -739218016 -195536559 2085476555 431982641 1895109736 861626533 578280578 1166905947 -2038124767 401088952 -462857295
REM
CELL 1.54180   50.00000   50.00000   50.00000   90.00000   90.00000   90.00000
LATT -1
SFAC C  
C      1  0.5896020000000  0.4928170000000  0.5402590000000 1.0
C      1  0.4862260000000  0.5165210000000  0.5386100000000 1.0
C      1  0.5834220000000  0.5549220000000  0.5053660000000 1.0
C      1  0.4692760000000  0.4357890000000  0.5207480000000 1.0
C      1  0.4690240000000  0.4892700000000  0.4763910000000 1.0
C      1  0.4945840000000  0.5197180000000  0.5073700000000 1.0
C      1  0.5203730000000  0.4537620000000  0.5036230000000 1.0
C      1  0.4908980000000  0.5382120000000  0.4505470000000 1.0
C      1  0.5799410000000  0.5297980000000  0.5119690000000 1.0
C      1  0.5337760000000  0.5129060000000  0.4563490000000 1.0
C      1  0.4549150000000  0.5120090000000  0.5480970000000 1.0
C      1  0.4669530000000  0.4619550000000  0.4740590000000 1.0
C      1  0.4958180000000  0.5014760000000  0.4835220000000 1.0
C      1  0.5052060000000  0.5480210000000  0.5058630000000 1.0
C      1  0.4933330000000  0.4444120000000  0.5141290000000 1.0
C      1  0.4351770000000  0.5170380000000  0.5301990000000 1.0
C      1  0.4643040000000  0.4358760000000  0.4743300000000 1.0
C      1  0.4707280000000  0.4932890000000  0.5667600000000 1.0
C      1  0.4483890000000  0.5056900000000  0.4723150000000 1.0
C      1  0.5535900000000  0.4901150000000  0.5094220000000 1.0
C      1  0.4446610000000  0.5543790000000  0.4635790000000 1.0
C      1  0.5184760000000  0.4803500000000  0.4864720000000 1.0
C      1  0.4207870000000  0.5282760000000  0.5103590000000 1.0
C      1  0.4450630000000  0.4294620000000  0.5285320000000 1.0
C      1  0.5224620000000  0.4804500000000  0.5464300000000 1.0
C      1  0.5615700000000  0.4987300000000  0.4508360000000 1.0
C      1  0.5470050000000  0.4932870000000  0.4798970000000 1.0
C      1  0.4988930000000  0.5472340000000  0.5356160000000 1.0
C      1  0.4993720000000  0.4916920000000  0.5556770000000 1.0
C      1  0.5802030000000  0.4923510000000  0.4329760000000 1.0
C      1  0.5075830000000  0.5183930000000  0.4601170000000 1.0
C      1  0.4707170000000  0.5554630000000  0.4559750000000 1.0
C      1  0.5350070000000  0.4744400000000  0.5224040000000 1.0
C      1  0.4323280000000  0.5308890000000  0.4789680000000 1.0
C      1  0.5362080000000  0.4330670000000  0.4933390000000 1.0
C      1  0.3996060000000  0.5338480000000  0.4880130000000 1.0
C      1  0.5745220000000  0.5040920000000  0.5208820000000 1.0
END
