TITL C-2847957-7266-159 0.0012691693977865 125000 -188.260952425413 0 0 35 (C1) n - 1
REM
REM in /home/bkarasulu/work/CARBON/AIRSS/Generating-Clusters/AIREBO/with-SteepDescent/Only-C1/SD-CG-opt/Try1-1.4A-POS3A/HFTN-CG
REM
REM
REM
REM
REM
REM ./C.cell (11c1c37f851c82e70ff6c80c92926a4b)
REM
REM compiler GCC version 9.2.1 20190827 (Red Hat 9.2.1-1)
REM options -cpp -mtune=generic -march=x86-64 -g -O0 -fpre-include=/usr/include/finclude/math-vector-fortran.h
REM seed 1963011974 1277213967 1583460470 1945371318 -624155747 -1420415507 473861002 1054234454 1625503696 1598459931 1456811989 1722201628 739343436 -1231378389 -1705247024 1403666116 1578354935 903641177 398011351 1567724634 113995930 -1472960921 -1113641727 1606430256 -1575017908 -977997069 -1331777266 -572315352 -846846794 -1617016386 -742631767 -2121122419 -363473847
REM
CELL 1.54180   50.00000   50.00000   50.00000   90.00000   90.00000   90.00000
LATT -1
SFAC C  
C      1  0.5382580000000  0.5097480000000  0.5128020000000 1.0
C      1  0.4437770000000  0.5436750000000  0.5192010000000 1.0
C      1  0.4789570000000  0.4711950000000  0.5514280000000 1.0
C      1  0.5170820000000  0.5334200000000  0.5215850000000 1.0
C      1  0.5315230000000  0.4871110000000  0.4988950000000 1.0
C      1  0.4773010000000  0.4737830000000  0.4829960000000 1.0
C      1  0.4988580000000  0.5131330000000  0.4399660000000 1.0
C      1  0.5171650000000  0.4649910000000  0.5131760000000 1.0
C      1  0.4814060000000  0.5150110000000  0.5797420000000 1.0
C      1  0.4843930000000  0.4712550000000  0.5121120000000 1.0
C      1  0.5154650000000  0.5224710000000  0.4681500000000 1.0
C      1  0.5172240000000  0.5129790000000  0.5465870000000 1.0
C      1  0.5176900000000  0.4315320000000  0.5192200000000 1.0
C      1  0.5580840000000  0.4505160000000  0.5521160000000 1.0
C      1  0.5144190000000  0.5039700000000  0.4186700000000 1.0
C      1  0.4556070000000  0.4893070000000  0.4740360000000 1.0
C      1  0.4557670000000  0.5616590000000  0.4986490000000 1.0
C      1  0.4715540000000  0.4963810000000  0.5310850000000 1.0
C      1  0.4773870000000  0.4460710000000  0.5362580000000 1.0
C      1  0.5113500000000  0.5497620000000  0.4496520000000 1.0
C      1  0.4934600000000  0.4236980000000  0.5314140000000 1.0
C      1  0.5397660000000  0.5078540000000  0.5589800000000 1.0
C      1  0.4853240000000  0.5507270000000  0.4393430000000 1.0
C      1  0.4709390000000  0.5244780000000  0.4439100000000 1.0
C      1  0.4573860000000  0.5181110000000  0.5194840000000 1.0
C      1  0.5454880000000  0.4845940000000  0.4480910000000 1.0
C      1  0.4597890000000  0.5167760000000  0.4685570000000 1.0
C      1  0.5391170000000  0.4491290000000  0.5335260000000 1.0
C      1  0.4708930000000  0.5315510000000  0.4926020000000 1.0
C      1  0.5375960000000  0.4892950000000  0.4221220000000 1.0
C      1  0.5242140000000  0.4911490000000  0.4697170000000 1.0
C      1  0.5011840000000  0.5292980000000  0.4946920000000 1.0
C      1  0.4989550000000  0.4726200000000  0.4664610000000 1.0
C      1  0.5217330000000  0.5600110000000  0.5282460000000 1.0
C      1  0.4908860000000  0.5027390000000  0.5565290000000 1.0
END
