TITL C-2848494-1720-594 -0.00238602076770925 125000 -699.837734748545 0 0 129 (C1) n - 1
REM
REM in /home/bkarasulu/work/CARBON/AIRSS/Generating-Clusters/AIREBO/with-SteepDescent/Only-C1/SD-CG-opt/Try1-1.4A-POS3A/HFTN-CG
REM
REM
REM
REM
REM
REM ./C.cell (11c1c37f851c82e70ff6c80c92926a4b)
REM
REM compiler GCC version 9.2.1 20190827 (Red Hat 9.2.1-1)
REM options -cpp -mtune=generic -march=x86-64 -g -O0 -fpre-include=/usr/include/finclude/math-vector-fortran.h
REM seed 1576966987 1289151129 1692568455 96769935 1771443249 1085720447 -1310937268 -1544455401 -703419440 1918441857 -170340704 1460878807 -1157565229 2027768593 -1843667261 797552142 -2139754023 615735977 734524507 602040785 -961213463 289331646 -1645721748 412247688 160992760 1218829801 -788650827 -1010591149 -485315271 953252356 -1333121853 1531656542 1146267388
REM
CELL 1.54180   50.00000   50.00000   50.00000   90.00000   90.00000   90.00000
LATT -1
SFAC C  
C      1  0.4681720000000  0.5791490000000  0.5693900000000 1.0
C      1  0.4827380000000  0.4554990000000  0.4312940000000 1.0
C      1  0.4369640000000  0.5615850000000  0.5425280000000 1.0
C      1  0.5945450000000  0.4716290000000  0.4965300000000 1.0
C      1  0.5644090000000  0.5650430000000  0.5361010000000 1.0
C      1  0.4301360000000  0.4620160000000  0.5041190000000 1.0
C      1  0.5146570000000  0.4596640000000  0.5045390000000 1.0
C      1  0.4762060000000  0.4673070000000  0.5876460000000 1.0
C      1  0.6006610000000  0.4840980000000  0.4699060000000 1.0
C      1  0.4774450000000  0.4396010000000  0.4853690000000 1.0
C      1  0.5025330000000  0.5050680000000  0.4046360000000 1.0
C      1  0.4294480000000  0.5348380000000  0.5479100000000 1.0
C      1  0.5623510000000  0.4594350000000  0.4380610000000 1.0
C      1  0.4715320000000  0.5603670000000  0.5022850000000 1.0
C      1  0.5287150000000  0.4848990000000  0.4126240000000 1.0
C      1  0.4858760000000  0.4678010000000  0.5023930000000 1.0
C      1  0.5214770000000  0.6039380000000  0.4945690000000 1.0
C      1  0.5241690000000  0.4281270000000  0.5129740000000 1.0
C      1  0.5615470000000  0.4326380000000  0.5452350000000 1.0
C      1  0.4684040000000  0.5998030000000  0.5081280000000 1.0
C      1  0.4912840000000  0.4919820000000  0.4481000000000 1.0
C      1  0.4621540000000  0.4593130000000  0.5358370000000 1.0
C      1  0.4089000000000  0.5281050000000  0.5126740000000 1.0
C      1  0.5307590000000  0.5574070000000  0.4320890000000 1.0
C      1  0.5488920000000  0.5227150000000  0.5452800000000 1.0
C      1  0.4425460000000  0.4221930000000  0.4768840000000 1.0
C      1  0.4112420000000  0.5004490000000  0.4726260000000 1.0
C      1  0.4657790000000  0.5211560000000  0.5765300000000 1.0
C      1  0.4578910000000  0.5828100000000  0.4835300000000 1.0
C      1  0.5950960000000  0.5425310000000  0.4747100000000 1.0
C      1  0.5515880000000  0.4481000000000  0.5104520000000 1.0
C      1  0.5173180000000  0.4729430000000  0.5357330000000 1.0
C      1  0.5208200000000  0.5846610000000  0.4668760000000 1.0
C      1  0.5605730000000  0.5455220000000  0.4367060000000 1.0
C      1  0.5063760000000  0.5425930000000  0.5708740000000 1.0
C      1  0.4539830000000  0.5645930000000  0.4540490000000 1.0
C      1  0.4996590000000  0.4442280000000  0.5402590000000 1.0
C      1  0.4834340000000  0.5304190000000  0.4096590000000 1.0
C      1  0.5085490000000  0.3798080000000  0.5214700000000 1.0
C      1  0.4668790000000  0.5644730000000  0.5318700000000 1.0
C      1  0.4678030000000  0.4274600000000  0.4550980000000 1.0
C      1  0.5502150000000  0.5012610000000  0.5097800000000 1.0
C      1  0.4771180000000  0.4458120000000  0.5632240000000 1.0
C      1  0.4025410000000  0.5036980000000  0.5025050000000 1.0
C      1  0.5027210000000  0.4509450000000  0.5934690000000 1.0
C      1  0.5443410000000  0.4568370000000  0.5486780000000 1.0
C      1  0.4386000000000  0.4745510000000  0.4354950000000 1.0
C      1  0.4059220000000  0.4795480000000  0.5155860000000 1.0
C      1  0.4380560000000  0.5396160000000  0.5091560000000 1.0
C      1  0.5049490000000  0.5231230000000  0.4484750000000 1.0
C      1  0.5151340000000  0.4989120000000  0.5870490000000 1.0
C      1  0.4396360000000  0.5139800000000  0.5673670000000 1.0
C      1  0.5617290000000  0.4741670000000  0.4959540000000 1.0
C      1  0.5229430000000  0.5038190000000  0.4891150000000 1.0
C      1  0.4566850000000  0.5231880000000  0.5323790000000 1.0
C      1  0.4933160000000  0.5504060000000  0.4406380000000 1.0
C      1  0.4939980000000  0.5180320000000  0.4783060000000 1.0
C      1  0.5489880000000  0.5238850000000  0.5757160000000 1.0
C      1  0.5329290000000  0.4285480000000  0.4641670000000 1.0
C      1  0.5395110000000  0.5801850000000  0.5014560000000 1.0
C      1  0.4864390000000  0.4812550000000  0.5473040000000 1.0
C      1  0.5667980000000  0.5374740000000  0.5315550000000 1.0
C      1  0.5613730000000  0.4551380000000  0.4690980000000 1.0
C      1  0.4867160000000  0.4616330000000  0.4629890000000 1.0
C      1  0.5674530000000  0.5295790000000  0.5021520000000 1.0
C      1  0.5849680000000  0.4417170000000  0.4980840000000 1.0
C      1  0.4840760000000  0.5384950000000  0.5455020000000 1.0
C      1  0.5046040000000  0.5252600000000  0.5930540000000 1.0
C      1  0.4955340000000  0.4271140000000  0.4347470000000 1.0
C      1  0.5200520000000  0.5527330000000  0.5064730000000 1.0
C      1  0.4901860000000  0.4293280000000  0.5132370000000 1.0
C      1  0.5034620000000  0.5267360000000  0.5213760000000 1.0
C      1  0.5319390000000  0.4612450000000  0.5798880000000 1.0
C      1  0.4365140000000  0.5581540000000  0.4825070000000 1.0
C      1  0.5167290000000  0.5733750000000  0.5333020000000 1.0
C      1  0.5874260000000  0.5128750000000  0.4655490000000 1.0
C      1  0.5600990000000  0.5273280000000  0.4631100000000 1.0
C      1  0.5345130000000  0.5236240000000  0.4330890000000 1.0
C      1  0.4693360000000  0.5923790000000  0.4466970000000 1.0
C      1  0.5860790000000  0.4820120000000  0.5266960000000 1.0
C      1  0.4389170000000  0.5230710000000  0.4527210000000 1.0
C      1  0.5614940000000  0.4228270000000  0.4817030000000 1.0
C      1  0.4200370000000  0.5447650000000  0.4606670000000 1.0
C      1  0.4421180000000  0.5094090000000  0.4837010000000 1.0
C      1  0.4899650000000  0.4803630000000  0.4161710000000 1.0
C      1  0.4655640000000  0.5319200000000  0.4906870000000 1.0
C      1  0.4810480000000  0.3816290000000  0.5192690000000 1.0
C      1  0.5372360000000  0.4561140000000  0.4247930000000 1.0
C      1  0.5690950000000  0.5590600000000  0.4852130000000 1.0
C      1  0.4351860000000  0.4320690000000  0.5012820000000 1.0
C      1  0.5426530000000  0.4912230000000  0.5685850000000 1.0
C      1  0.5665750000000  0.5785340000000  0.5112050000000 1.0
C      1  0.4581490000000  0.4990960000000  0.4452120000000 1.0
C      1  0.4676930000000  0.5518200000000  0.5721600000000 1.0
C      1  0.4699670000000  0.4071930000000  0.5202620000000 1.0
C      1  0.5287900000000  0.4594140000000  0.4778200000000 1.0
C      1  0.5265890000000  0.4075490000000  0.5574300000000 1.0
C      1  0.5392560000000  0.5695240000000  0.5504290000000 1.0
C      1  0.4296770000000  0.4725880000000  0.4743690000000 1.0
C      1  0.4774780000000  0.5934140000000  0.5406340000000 1.0
C      1  0.4604560000000  0.4773480000000  0.4688350000000 1.0
C      1  0.5232890000000  0.4321570000000  0.4373980000000 1.0
C      1  0.5670420000000  0.4186800000000  0.5150050000000 1.0
C      1  0.5472320000000  0.5668950000000  0.4602930000000 1.0
C      1  0.5582600000000  0.4848780000000  0.5384980000000 1.0
C      1  0.4108890000000  0.4787970000000  0.4468170000000 1.0
C      1  0.4468330000000  0.4581690000000  0.5725510000000 1.0
C      1  0.4570680000000  0.4929160000000  0.5347390000000 1.0
C      1  0.5008800000000  0.5973810000000  0.5168540000000 1.0
C      1  0.5152740000000  0.4344770000000  0.5669730000000 1.0
C      1  0.4519100000000  0.4500520000000  0.4347150000000 1.0
C      1  0.4980780000000  0.5680350000000  0.4872000000000 1.0
C      1  0.5249230000000  0.5060050000000  0.5320060000000 1.0
C      1  0.4372010000000  0.4853550000000  0.5612770000000 1.0
C      1  0.5333970000000  0.5501110000000  0.5697780000000 1.0
C      1  0.4561380000000  0.4842830000000  0.5018460000000 1.0
C      1  0.4424790000000  0.4345310000000  0.5482870000000 1.0
C      1  0.4849040000000  0.4952200000000  0.5759080000000 1.0
C      1  0.4444470000000  0.4188690000000  0.5241020000000 1.0
C      1  0.4581080000000  0.5399070000000  0.4304950000000 1.0
C      1  0.5382710000000  0.5318620000000  0.4869820000000 1.0
C      1  0.5753820000000  0.4873440000000  0.4472010000000 1.0
C      1  0.5213380000000  0.4857260000000  0.4627570000000 1.0
C      1  0.4925590000000  0.5746330000000  0.4561250000000 1.0
C      1  0.5052850000000  0.5564710000000  0.4098140000000 1.0
C      1  0.5227790000000  0.4020410000000  0.5308220000000 1.0
C      1  0.5424790000000  0.4939170000000  0.4414800000000 1.0
C      1  0.4518560000000  0.5367820000000  0.3987780000000 1.0
C      1  0.4866200000000  0.5016460000000  0.5056860000000 1.0
END
