TITL C-2848507-1641-682 0.00525839320356104 125000 -529.830770808449 0 0 97 (C1) n - 1
REM
REM in /home/bkarasulu/work/CARBON/AIRSS/Generating-Clusters/AIREBO/with-SteepDescent/Only-C1/SD-CG-opt/Try1-1.4A-POS3A/HFTN-CG
REM
REM
REM
REM
REM
REM ./C.cell (11c1c37f851c82e70ff6c80c92926a4b)
REM
REM compiler GCC version 9.2.1 20190827 (Red Hat 9.2.1-1)
REM options -cpp -mtune=generic -march=x86-64 -g -O0 -fpre-include=/usr/include/finclude/math-vector-fortran.h
REM seed 1070766622 1920931969 233093263 2115631026 214209395 838742747 1883842593 -1428903346 915470368 1212509961 -1238771549 -1441986685 828668523 -1196021517 -452299104 2014658285 -303107011 52486761 -385377427 -1678785326 -682601335 1933398594 1210817011 -86199104 -951569277 245023295 269063071 819033508 -921024082 -1232718705 1299782970 -1844689822 -1941994129
REM
CELL 1.54180   50.00000   50.00000   50.00000   90.00000   90.00000   90.00000
LATT -1
SFAC C  
C      1  0.5541580000000  0.4643690000000  0.4432040000000 1.0
C      1  0.4555690000000  0.4887780000000  0.5271990000000 1.0
C      1  0.4327460000000  0.4547760000000  0.5601880000000 1.0
C      1  0.4609310000000  0.4549230000000  0.4566950000000 1.0
C      1  0.4633640000000  0.5513130000000  0.5272870000000 1.0
C      1  0.5355380000000  0.4392390000000  0.4502710000000 1.0
C      1  0.5076100000000  0.5052940000000  0.4761030000000 1.0
C      1  0.4541490000000  0.5381970000000  0.5781140000000 1.0
C      1  0.5779250000000  0.5241650000000  0.4720680000000 1.0
C      1  0.4330100000000  0.5440940000000  0.5170900000000 1.0
C      1  0.5137180000000  0.5675800000000  0.4848680000000 1.0
C      1  0.4716530000000  0.5658630000000  0.4759120000000 1.0
C      1  0.5367160000000  0.5012660000000  0.5681940000000 1.0
C      1  0.5583570000000  0.5816600000000  0.4676970000000 1.0
C      1  0.5124950000000  0.4552290000000  0.4840710000000 1.0
C      1  0.5155160000000  0.5466750000000  0.5678640000000 1.0
C      1  0.4780440000000  0.5013630000000  0.5469130000000 1.0
C      1  0.4781560000000  0.4732570000000  0.4040350000000 1.0
C      1  0.5967990000000  0.5313330000000  0.4985260000000 1.0
C      1  0.4337300000000  0.4877370000000  0.5606350000000 1.0
C      1  0.4618000000000  0.4763680000000  0.5761010000000 1.0
C      1  0.5395020000000  0.5157620000000  0.4271990000000 1.0
C      1  0.4547050000000  0.4322540000000  0.5524640000000 1.0
C      1  0.5148900000000  0.4222920000000  0.4921310000000 1.0
C      1  0.4407770000000  0.4567660000000  0.5086160000000 1.0
C      1  0.5586920000000  0.4452920000000  0.5202010000000 1.0
C      1  0.4985570000000  0.4566210000000  0.4215530000000 1.0
C      1  0.5395210000000  0.5594410000000  0.5042960000000 1.0
C      1  0.4276010000000  0.5438100000000  0.4846390000000 1.0
C      1  0.5308490000000  0.5821310000000  0.4617870000000 1.0
C      1  0.5071770000000  0.4845460000000  0.5891690000000 1.0
C      1  0.5580680000000  0.4897580000000  0.5094900000000 1.0
C      1  0.4888120000000  0.4380690000000  0.4664830000000 1.0
C      1  0.5355020000000  0.5432590000000  0.5405670000000 1.0
C      1  0.5045040000000  0.5385710000000  0.4744610000000 1.0
C      1  0.4810640000000  0.4781160000000  0.5946660000000 1.0
C      1  0.4751610000000  0.5291130000000  0.4218200000000 1.0
C      1  0.4716020000000  0.4679310000000  0.5464530000000 1.0
C      1  0.5209880000000  0.4649840000000  0.5650060000000 1.0
C      1  0.4314760000000  0.4988750000000  0.4544300000000 1.0
C      1  0.5665920000000  0.5537050000000  0.4848630000000 1.0
C      1  0.5276410000000  0.4455340000000  0.5220160000000 1.0
C      1  0.4728130000000  0.4567510000000  0.5056660000000 1.0
C      1  0.5409750000000  0.4284180000000  0.4761240000000 1.0
C      1  0.4423080000000  0.5427280000000  0.4618840000000 1.0
C      1  0.5635400000000  0.5350190000000  0.5416840000000 1.0
C      1  0.5259280000000  0.4781850000000  0.4679310000000 1.0
C      1  0.4666820000000  0.5526090000000  0.4449100000000 1.0
C      1  0.5455340000000  0.5444270000000  0.4610140000000 1.0
C      1  0.4728370000000  0.5299230000000  0.5504310000000 1.0
C      1  0.4938290000000  0.5252490000000  0.5104360000000 1.0
C      1  0.4608960000000  0.5918670000000  0.4773100000000 1.0
C      1  0.5136740000000  0.5680800000000  0.5248240000000 1.0
C      1  0.5276590000000  0.4746220000000  0.5075500000000 1.0
C      1  0.5743640000000  0.4601410000000  0.4719430000000 1.0
C      1  0.5393330000000  0.5119370000000  0.4994690000000 1.0
C      1  0.4069990000000  0.4930530000000  0.5055110000000 1.0
C      1  0.4878820000000  0.5582810000000  0.5049310000000 1.0
C      1  0.4874980000000  0.4303840000000  0.5107050000000 1.0
C      1  0.4609580000000  0.5151330000000  0.4562390000000 1.0
C      1  0.5883540000000  0.5273480000000  0.5234170000000 1.0
C      1  0.5621730000000  0.4416960000000  0.4901650000000 1.0
C      1  0.5185290000000  0.5540650000000  0.4476570000000 1.0
C      1  0.4371610000000  0.5473450000000  0.5495780000000 1.0
C      1  0.4830130000000  0.4392720000000  0.5412190000000 1.0
C      1  0.4747430000000  0.5268750000000  0.4831700000000 1.0
C      1  0.5082450000000  0.4387600000000  0.4416170000000 1.0
C      1  0.4314340000000  0.4393960000000  0.5323390000000 1.0
C      1  0.5238800000000  0.5313040000000  0.5139620000000 1.0
C      1  0.5587020000000  0.4869600000000  0.5575470000000 1.0
C      1  0.4170840000000  0.4866220000000  0.4771790000000 1.0
C      1  0.5089370000000  0.4933320000000  0.5505880000000 1.0
C      1  0.4873120000000  0.5361210000000  0.5787120000000 1.0
C      1  0.5146080000000  0.5175400000000  0.5856640000000 1.0
C      1  0.4913670000000  0.5029920000000  0.4469280000000 1.0
C      1  0.5701740000000  0.5021780000000  0.5350900000000 1.0
C      1  0.5362960000000  0.4876570000000  0.4260000000000 1.0
C      1  0.5078070000000  0.5283700000000  0.4313550000000 1.0
C      1  0.4879590000000  0.4845750000000  0.4956470000000 1.0
C      1  0.4288550000000  0.5157650000000  0.5017850000000 1.0
C      1  0.4821740000000  0.4770150000000  0.4638580000000 1.0
C      1  0.4462370000000  0.4728970000000  0.4808550000000 1.0
C      1  0.5645060000000  0.5261090000000  0.4408590000000 1.0
C      1  0.5518620000000  0.4590900000000  0.5505350000000 1.0
C      1  0.5388920000000  0.5158730000000  0.4696040000000 1.0
C      1  0.5091980000000  0.4831320000000  0.4269710000000 1.0
C      1  0.5776070000000  0.4920150000000  0.4833470000000 1.0
C      1  0.4245210000000  0.4785870000000  0.5290140000000 1.0
C      1  0.5554610000000  0.4924340000000  0.4604160000000 1.0
C      1  0.5130020000000  0.4423500000000  0.5455380000000 1.0
C      1  0.4314060000000  0.5171510000000  0.5641170000000 1.0
C      1  0.5071960000000  0.4955710000000  0.5202800000000 1.0
C      1  0.4650040000000  0.4968920000000  0.4176250000000 1.0
C      1  0.4579850000000  0.5005880000000  0.4967430000000 1.0
C      1  0.5147550000000  0.5741000000000  0.5541570000000 1.0
C      1  0.4496900000000  0.4814270000000  0.4384990000000 1.0
C      1  0.4844940000000  0.4094780000000  0.4840590000000 1.0
END
