TITL C-2848508-1660-564 0.00359796788516288 125000 -1066.36770507041 0 0 197 (C1) n - 1
REM
REM in /home/bkarasulu/work/CARBON/AIRSS/Generating-Clusters/AIREBO/with-SteepDescent/Only-C1/SD-CG-opt/Try1-1.4A-POS3A/HFTN-CG
REM
REM
REM
REM
REM
REM ./C.cell (11c1c37f851c82e70ff6c80c92926a4b)
REM
REM compiler GCC version 9.2.1 20190827 (Red Hat 9.2.1-1)
REM options -cpp -mtune=generic -march=x86-64 -g -O0 -fpre-include=/usr/include/finclude/math-vector-fortran.h
REM seed -1076714542 -794538965 -449279474 -759232168 1065153877 -774624917 -172156701 -1265730405 1750793155 -118819354 726469181 96088820 521435286 -1676558485 -1546407101 1193315831 -188339795 -1164532028 -1212818689 -853981181 -982578847 -241952193 1071568555 -283754699 -1603594516 -1440725068 -1421221959 372647512 -1097349602 1438275139 -66313910 357978623 720520130
REM
CELL 1.54180   50.00000   50.00000   50.00000   90.00000   90.00000   90.00000
LATT -1
SFAC C  
C      1  0.5256900000000  0.5000630000000  0.3874640000000 1.0
C      1  0.4387340000000  0.4932180000000  0.5640610000000 1.0
C      1  0.5044520000000  0.4824930000000  0.5252440000000 1.0
C      1  0.5472080000000  0.5378310000000  0.4433180000000 1.0
C      1  0.4108520000000  0.5072970000000  0.4887170000000 1.0
C      1  0.5768960000000  0.4971880000000  0.5224990000000 1.0
C      1  0.5681240000000  0.4145520000000  0.4860490000000 1.0
C      1  0.4793420000000  0.4658100000000  0.5807160000000 1.0
C      1  0.4572010000000  0.5176720000000  0.4033700000000 1.0
C      1  0.5158540000000  0.4019970000000  0.5632010000000 1.0
C      1  0.4790180000000  0.4805180000000  0.4371510000000 1.0
C      1  0.4917500000000  0.5838340000000  0.4777760000000 1.0
C      1  0.5298330000000  0.4310750000000  0.5139250000000 1.0
C      1  0.4297750000000  0.4264300000000  0.5456730000000 1.0
C      1  0.5085800000000  0.5501740000000  0.4642330000000 1.0
C      1  0.4671380000000  0.4282290000000  0.5759700000000 1.0
C      1  0.5494990000000  0.5775780000000  0.5375380000000 1.0
C      1  0.6009710000000  0.4946970000000  0.4908010000000 1.0
C      1  0.5099570000000  0.4500630000000  0.5542290000000 1.0
C      1  0.4987490000000  0.4655460000000  0.4200520000000 1.0
C      1  0.5563220000000  0.5211400000000  0.5839470000000 1.0
C      1  0.3999120000000  0.4667490000000  0.4624030000000 1.0
C      1  0.5005320000000  0.4505190000000  0.3910880000000 1.0
C      1  0.5432020000000  0.5922470000000  0.4682060000000 1.0
C      1  0.5629030000000  0.4487400000000  0.4082410000000 1.0
C      1  0.5180530000000  0.4853380000000  0.4552150000000 1.0
C      1  0.4098870000000  0.5620540000000  0.5424820000000 1.0
C      1  0.5063430000000  0.5174630000000  0.4015670000000 1.0
C      1  0.5351970000000  0.4043800000000  0.4338850000000 1.0
C      1  0.4833320000000  0.4303310000000  0.4096880000000 1.0
C      1  0.4734780000000  0.4625690000000  0.4655190000000 1.0
C      1  0.5241050000000  0.5049440000000  0.5669280000000 1.0
C      1  0.4674910000000  0.5340390000000  0.3844360000000 1.0
C      1  0.5934860000000  0.5369150000000  0.5219990000000 1.0
C      1  0.4187540000000  0.5485060000000  0.5699730000000 1.0
C      1  0.4702830000000  0.4513720000000  0.5512520000000 1.0
C      1  0.4571810000000  0.5099010000000  0.5089160000000 1.0
C      1  0.5740250000000  0.4768010000000  0.4043710000000 1.0
C      1  0.6010940000000  0.5229540000000  0.4942090000000 1.0
C      1  0.4257700000000  0.5202280000000  0.5157770000000 1.0
C      1  0.4567860000000  0.5447220000000  0.4794860000000 1.0
C      1  0.5450400000000  0.5238480000000  0.3940140000000 1.0
C      1  0.5104050000000  0.3969280000000  0.5063910000000 1.0
C      1  0.5242060000000  0.4204730000000  0.5886140000000 1.0
C      1  0.5568580000000  0.4655500000000  0.4820940000000 1.0
C      1  0.4860830000000  0.5484660000000  0.6107010000000 1.0
C      1  0.3940450000000  0.5189920000000  0.5428280000000 1.0
C      1  0.5052660000000  0.4835730000000  0.5564080000000 1.0
C      1  0.4174300000000  0.5063110000000  0.4220580000000 1.0
C      1  0.5124490000000  0.5631410000000  0.5185070000000 1.0
C      1  0.3808750000000  0.4919920000000  0.5322040000000 1.0
C      1  0.4929460000000  0.5540700000000  0.4934240000000 1.0
C      1  0.5979980000000  0.4829290000000  0.4590290000000 1.0
C      1  0.4622290000000  0.4764220000000  0.5057830000000 1.0
C      1  0.6156710000000  0.5019500000000  0.5507930000000 1.0
C      1  0.5879570000000  0.5669300000000  0.5305660000000 1.0
C      1  0.5165260000000  0.4216990000000  0.4185700000000 1.0
C      1  0.4417980000000  0.5279310000000  0.5447750000000 1.0
C      1  0.4897370000000  0.4247680000000  0.5432200000000 1.0
C      1  0.5086030000000  0.4501840000000  0.5882060000000 1.0
C      1  0.5600460000000  0.5429510000000  0.4721670000000 1.0
C      1  0.5522230000000  0.4340050000000  0.5794250000000 1.0
C      1  0.4487890000000  0.5573280000000  0.5776050000000 1.0
C      1  0.5289130000000  0.5585500000000  0.5720840000000 1.0
C      1  0.4797770000000  0.4920740000000  0.4812250000000 1.0
C      1  0.5293420000000  0.4700240000000  0.5999400000000 1.0
C      1  0.4425890000000  0.3986210000000  0.4850600000000 1.0
C      1  0.4690150000000  0.4373090000000  0.4878900000000 1.0
C      1  0.5001420000000  0.5069040000000  0.4332910000000 1.0
C      1  0.4708060000000  0.5240750000000  0.4315890000000 1.0
C      1  0.4535370000000  0.4901790000000  0.4195040000000 1.0
C      1  0.4737160000000  0.5033000000000  0.6227940000000 1.0
C      1  0.4423170000000  0.4666430000000  0.4827310000000 1.0
C      1  0.5282970000000  0.4563100000000  0.4912190000000 1.0
C      1  0.4369240000000  0.5794090000000  0.5143970000000 1.0
C      1  0.5690250000000  0.4241360000000  0.5170980000000 1.0
C      1  0.5957320000000  0.4575810000000  0.4775170000000 1.0
C      1  0.5986000000000  0.4653630000000  0.5079470000000 1.0
C      1  0.3910510000000  0.4420970000000  0.5045740000000 1.0
C      1  0.5434250000000  0.5967050000000  0.5102290000000 1.0
C      1  0.3824850000000  0.4926210000000  0.5002690000000 1.0
C      1  0.5625060000000  0.4362900000000  0.4365090000000 1.0
C      1  0.5066410000000  0.4547250000000  0.5146850000000 1.0
C      1  0.5609580000000  0.5629150000000  0.5795070000000 1.0
C      1  0.5839280000000  0.5657330000000  0.4748170000000 1.0
C      1  0.4418950000000  0.4348700000000  0.5068060000000 1.0
C      1  0.5674730000000  0.4940060000000  0.4691140000000 1.0
C      1  0.4242440000000  0.5602350000000  0.4629070000000 1.0
C      1  0.5337160000000  0.5114180000000  0.4300870000000 1.0
C      1  0.4648860000000  0.5634920000000  0.4282470000000 1.0
C      1  0.5520150000000  0.4820580000000  0.5105400000000 1.0
C      1  0.5763630000000  0.5506160000000  0.4321980000000 1.0
C      1  0.4924680000000  0.4253980000000  0.4402380000000 1.0
C      1  0.5313070000000  0.5441810000000  0.4888220000000 1.0
C      1  0.5766210000000  0.4730430000000  0.4366060000000 1.0
C      1  0.5364860000000  0.4217860000000  0.5447920000000 1.0
C      1  0.5213890000000  0.5558390000000  0.4338000000000 1.0
C      1  0.5062940000000  0.5922830000000  0.4282210000000 1.0
C      1  0.4035400000000  0.4776660000000  0.5536150000000 1.0
C      1  0.5226990000000  0.5861390000000  0.5569780000000 1.0
C      1  0.4393490000000  0.4997160000000  0.4472120000000 1.0
C      1  0.4036420000000  0.5481630000000  0.4877270000000 1.0
C      1  0.3813060000000  0.4949930000000  0.4659430000000 1.0
C      1  0.5694650000000  0.4270610000000  0.5511800000000 1.0
C      1  0.4185730000000  0.4397960000000  0.4596860000000 1.0
C      1  0.5864580000000  0.4877970000000  0.5525290000000 1.0
C      1  0.5272670000000  0.5323200000000  0.5204510000000 1.0
C      1  0.5068060000000  0.4557290000000  0.4660140000000 1.0
C      1  0.5900810000000  0.4539890000000  0.5523630000000 1.0
C      1  0.4816920000000  0.6062600000000  0.4992630000000 1.0
C      1  0.5231740000000  0.4966860000000  0.5968900000000 1.0
C      1  0.5295300000000  0.5041990000000  0.4765930000000 1.0
C      1  0.5702450000000  0.4572100000000  0.5249230000000 1.0
C      1  0.5219930000000  0.5825260000000  0.4919500000000 1.0
C      1  0.4655800000000  0.5547970000000  0.5271090000000 1.0
C      1  0.5772780000000  0.5118140000000  0.4418360000000 1.0
C      1  0.4549140000000  0.5747340000000  0.4652530000000 1.0
C      1  0.4811690000000  0.5372800000000  0.4591870000000 1.0
C      1  0.3812320000000  0.4631550000000  0.4886910000000 1.0
C      1  0.5432150000000  0.4791310000000  0.4349290000000 1.0
C      1  0.4879720000000  0.4093670000000  0.4920790000000 1.0
C      1  0.3997450000000  0.5417140000000  0.5199610000000 1.0
C      1  0.5713540000000  0.4402320000000  0.4681010000000 1.0
C      1  0.4146910000000  0.5299640000000  0.4391840000000 1.0
C      1  0.4697720000000  0.5358780000000  0.5617960000000 1.0
C      1  0.4165720000000  0.5171520000000  0.5646110000000 1.0
C      1  0.4370470000000  0.4397600000000  0.5699980000000 1.0
C      1  0.4241750000000  0.4635350000000  0.5113380000000 1.0
C      1  0.5375900000000  0.4067940000000  0.4957560000000 1.0
C      1  0.4941650000000  0.5528960000000  0.5452960000000 1.0
C      1  0.4761500000000  0.5294150000000  0.6311130000000 1.0
C      1  0.5999130000000  0.5404380000000  0.4724860000000 1.0
C      1  0.5633660000000  0.5063030000000  0.4142130000000 1.0
C      1  0.5196950000000  0.5328120000000  0.5535990000000 1.0
C      1  0.3974930000000  0.5251200000000  0.4639530000000 1.0
C      1  0.6154430000000  0.5254140000000  0.5414530000000 1.0
C      1  0.5003820000000  0.4224130000000  0.4682530000000 1.0
C      1  0.4619000000000  0.5958650000000  0.5231560000000 1.0
C      1  0.5699970000000  0.5913600000000  0.4768330000000 1.0
C      1  0.4764650000000  0.4518870000000  0.5177210000000 1.0
C      1  0.4870920000000  0.5072580000000  0.5400410000000 1.0
C      1  0.4684490000000  0.5047560000000  0.5678720000000 1.0
C      1  0.6222020000000  0.4564710000000  0.5204020000000 1.0
C      1  0.5331820000000  0.5347910000000  0.5922090000000 1.0
C      1  0.5034710000000  0.5221220000000  0.6028350000000 1.0
C      1  0.4910680000000  0.4148250000000  0.5823680000000 1.0
C      1  0.4798870000000  0.5901920000000  0.5456590000000 1.0
C      1  0.4611660000000  0.3999860000000  0.5052560000000 1.0
C      1  0.5585820000000  0.5157260000000  0.4899810000000 1.0
C      1  0.5323840000000  0.4410530000000  0.4495970000000 1.0
C      1  0.4457140000000  0.4214560000000  0.4688330000000 1.0
C      1  0.5550470000000  0.4789660000000  0.5602590000000 1.0
C      1  0.5374760000000  0.5486860000000  0.4046970000000 1.0
C      1  0.5018300000000  0.5949680000000  0.5240950000000 1.0
C      1  0.5962670000000  0.5332010000000  0.4452830000000 1.0
C      1  0.4170670000000  0.5785400000000  0.4906470000000 1.0
C      1  0.4240640000000  0.4863410000000  0.4692420000000 1.0
C      1  0.5027260000000  0.5085070000000  0.4949550000000 1.0
C      1  0.5238200000000  0.4724850000000  0.3897510000000 1.0
C      1  0.5522650000000  0.4618640000000  0.5855870000000 1.0
C      1  0.5418930000000  0.4548750000000  0.5435750000000 1.0
C      1  0.4435470000000  0.5472690000000  0.5053320000000 1.0
C      1  0.4832300000000  0.5288230000000  0.5140270000000 1.0
C      1  0.5740920000000  0.5719650000000  0.5568210000000 1.0
C      1  0.4139240000000  0.4895860000000  0.5245800000000 1.0
C      1  0.5432500000000  0.4123130000000  0.4626840000000 1.0
C      1  0.5608870000000  0.5271960000000  0.5219250000000 1.0
C      1  0.4367430000000  0.4388470000000  0.4343940000000 1.0
C      1  0.4830970000000  0.5819180000000  0.4478260000000 1.0
C      1  0.4276520000000  0.4472550000000  0.4105300000000 1.0
C      1  0.5806940000000  0.5063640000000  0.5804250000000 1.0
C      1  0.4753510000000  0.5662630000000  0.5921050000000 1.0
C      1  0.4243890000000  0.4652530000000  0.5721400000000 1.0
C      1  0.4604250000000  0.5126820000000  0.4681600000000 1.0
C      1  0.5281740000000  0.6111720000000  0.5355640000000 1.0
C      1  0.5279290000000  0.4986750000000  0.5155540000000 1.0
C      1  0.4548720000000  0.5991000000000  0.4816900000000 1.0
C      1  0.4833970000000  0.4965160000000  0.5928030000000 1.0
C      1  0.4100550000000  0.4389800000000  0.5301600000000 1.0
C      1  0.4366740000000  0.4713040000000  0.4017120000000 1.0
C      1  0.4930540000000  0.5759290000000  0.5702900000000 1.0
C      1  0.4144580000000  0.4303460000000  0.4913880000000 1.0
C      1  0.4517220000000  0.4894750000000  0.5355470000000 1.0
C      1  0.5562680000000  0.5682030000000  0.4190280000000 1.0
C      1  0.5057520000000  0.3987770000000  0.5339860000000 1.0
C      1  0.4657390000000  0.4425220000000  0.4391320000000 1.0
C      1  0.4813510000000  0.4463780000000  0.6085520000000 1.0
C      1  0.5550200000000  0.5584390000000  0.5097890000000 1.0
C      1  0.5535560000000  0.5117980000000  0.5513700000000 1.0
C      1  0.5753670000000  0.5856420000000  0.5082980000000 1.0
C      1  0.4430390000000  0.5687030000000  0.5460840000000 1.0
C      1  0.4935720000000  0.5411450000000  0.3932720000000 1.0
C      1  0.4583430000000  0.4188340000000  0.5313950000000 1.0
C      1  0.5360610000000  0.5860810000000  0.4393330000000 1.0
C      1  0.4943740000000  0.5631430000000  0.4144870000000 1.0
C      1  0.4451690000000  0.5443230000000  0.4412810000000 1.0
C      1  0.5302030000000  0.4528250000000  0.4177610000000 1.0
END
