TITL C-2847948-6138-349 0.0218601013293068 125000 -130.801147038636 0 0 25 (C1) n - 1
REM
REM in /home/bkarasulu/work/CARBON/AIRSS/Generating-Clusters/AIREBO/with-SteepDescent/Only-C1/SD-CG-opt/Try1-1.4A-POS3A/HFTN-CG
REM
REM
REM
REM
REM
REM ./C.cell (11c1c37f851c82e70ff6c80c92926a4b)
REM
REM compiler GCC version 9.2.1 20190827 (Red Hat 9.2.1-1)
REM options -cpp -mtune=generic -march=x86-64 -g -O0 -fpre-include=/usr/include/finclude/math-vector-fortran.h
REM seed -2055321101 -2060124310 -1505939030 -1344725459 1791054655 987293598 -1060770290 -470965138 -2115841619 -1054325195 -1700612748 -1331322739 -1079577220 354864980 230534581 650130712 -1293615902 1061705102 488009341 -531765897 -409864575 1145935690 -133390967 -1034623669 865718722 -255042131 1783625709 -372682978 -1705844387 2001731566 -1088617072 -1011744215 742298204
REM
CELL 1.54180   50.00000   50.00000   50.00000   90.00000   90.00000   90.00000
LATT -1
SFAC C  
C      1  0.5048300000000  0.5510650000000  0.4779350000000 1.0
C      1  0.5202750000000  0.5064780000000  0.4186470000000 1.0
C      1  0.5027090000000  0.4944050000000  0.5626830000000 1.0
C      1  0.4887320000000  0.4973010000000  0.4999530000000 1.0
C      1  0.4465570000000  0.4848940000000  0.4730440000000 1.0
C      1  0.5121100000000  0.4756220000000  0.5427480000000 1.0
C      1  0.5019880000000  0.4471170000000  0.5448950000000 1.0
C      1  0.5458030000000  0.5025050000000  0.4911100000000 1.0
C      1  0.4877120000000  0.4246810000000  0.4914150000000 1.0
C      1  0.4883420000000  0.4737610000000  0.5183770000000 1.0
C      1  0.4580340000000  0.5324100000000  0.4828120000000 1.0
C      1  0.4879840000000  0.4471500000000  0.5035100000000 1.0
C      1  0.4645550000000  0.4762340000000  0.5425540000000 1.0
C      1  0.4616110000000  0.5043350000000  0.4849190000000 1.0
C      1  0.5473800000000  0.5506860000000  0.5034320000000 1.0
C      1  0.4742780000000  0.4947740000000  0.5625610000000 1.0
C      1  0.4809880000000  0.5486990000000  0.4934850000000 1.0
C      1  0.5131230000000  0.5005790000000  0.4833600000000 1.0
C      1  0.5277110000000  0.5635720000000  0.4890660000000 1.0
C      1  0.5101930000000  0.5276580000000  0.4636760000000 1.0
C      1  0.4822720000000  0.5262520000000  0.5139760000000 1.0
C      1  0.4739000000000  0.4474750000000  0.5448290000000 1.0
C      1  0.5566680000000  0.5248190000000  0.5031210000000 1.0
C      1  0.5393930000000  0.4898400000000  0.4626400000000 1.0
C      1  0.5228510000000  0.5076870000000  0.4452510000000 1.0
END
