TITL C-2848496-4490-48 0.0017214824443302 125000 -817.651110048525 0 0 151 (C1) n - 1
REM
REM in /home/bkarasulu/work/CARBON/AIRSS/Generating-Clusters/AIREBO/with-SteepDescent/Only-C1/SD-CG-opt/Try1-1.4A-POS3A/HFTN-CG
REM
REM
REM
REM
REM
REM ./C.cell (11c1c37f851c82e70ff6c80c92926a4b)
REM
REM compiler GCC version 9.2.1 20190827 (Red Hat 9.2.1-1)
REM options -cpp -mtune=generic -march=x86-64 -g -O0 -fpre-include=/usr/include/finclude/math-vector-fortran.h
REM seed -1388581629 -257025746 -1395855411 -1266290002 -2115027225 2057904246 -645157640 -822177698 -689941254 -1985790644 -191983045 -1297738284 1020100049 -1028742451 -1592350347 -1283693118 -217252334 -1009379652 -1519936848 -1304470069 -212834539 2122524060 1118047748 -1766915098 -1741093203 -1988142701 60203602 -1617771774 1192230155 -662924115 950549189 722395015 84977878
REM
CELL 1.54180   50.00000   50.00000   50.00000   90.00000   90.00000   90.00000
LATT -1
SFAC C  
C      1  0.5617440000000  0.5161830000000  0.5382800000000 1.0
C      1  0.4354640000000  0.4553290000000  0.4212360000000 1.0
C      1  0.5720280000000  0.5638460000000  0.4793540000000 1.0
C      1  0.5944930000000  0.5685650000000  0.5308640000000 1.0
C      1  0.4020520000000  0.5733690000000  0.5287470000000 1.0
C      1  0.5928620000000  0.5380940000000  0.4688620000000 1.0
C      1  0.5573920000000  0.5381260000000  0.5610580000000 1.0
C      1  0.4447790000000  0.6103070000000  0.4789280000000 1.0
C      1  0.5383140000000  0.5154100000000  0.5977880000000 1.0
C      1  0.4122680000000  0.4994850000000  0.4487200000000 1.0
C      1  0.5207280000000  0.5920520000000  0.4694680000000 1.0
C      1  0.5219790000000  0.3764160000000  0.4622570000000 1.0
C      1  0.4902920000000  0.5539080000000  0.5738420000000 1.0
C      1  0.4925010000000  0.4557700000000  0.5601010000000 1.0
C      1  0.5045580000000  0.4826850000000  0.5201660000000 1.0
C      1  0.5763670000000  0.4261200000000  0.4869560000000 1.0
C      1  0.4440420000000  0.4403370000000  0.4468310000000 1.0
C      1  0.4446700000000  0.6015130000000  0.5070090000000 1.0
C      1  0.4375380000000  0.4589450000000  0.5179630000000 1.0
C      1  0.4816730000000  0.5111690000000  0.4311880000000 1.0
C      1  0.5121220000000  0.4420270000000  0.4668170000000 1.0
C      1  0.5046840000000  0.5399420000000  0.4126730000000 1.0
C      1  0.5412050000000  0.5438480000000  0.4948450000000 1.0
C      1  0.4493750000000  0.4813520000000  0.4956040000000 1.0
C      1  0.4655630000000  0.4842180000000  0.5894420000000 1.0
C      1  0.5641830000000  0.4731380000000  0.4980820000000 1.0
C      1  0.4405590000000  0.5533540000000  0.4852630000000 1.0
C      1  0.5919270000000  0.4770150000000  0.5125320000000 1.0
C      1  0.4290370000000  0.5230470000000  0.4371480000000 1.0
C      1  0.4604660000000  0.5413500000000  0.5843060000000 1.0
C      1  0.5525590000000  0.4455770000000  0.4242170000000 1.0
C      1  0.5035560000000  0.5709350000000  0.5110550000000 1.0
C      1  0.5825110000000  0.4804820000000  0.4591110000000 1.0
C      1  0.5971970000000  0.5056410000000  0.4738330000000 1.0
C      1  0.5585770000000  0.5042080000000  0.4585280000000 1.0
C      1  0.5128920000000  0.4277950000000  0.4976940000000 1.0
C      1  0.5226560000000  0.5068130000000  0.5043390000000 1.0
C      1  0.4911570000000  0.3803040000000  0.5287990000000 1.0
C      1  0.4758730000000  0.4584890000000  0.5868270000000 1.0
C      1  0.4558470000000  0.5471090000000  0.4213700000000 1.0
C      1  0.4725770000000  0.4075330000000  0.5384140000000 1.0
C      1  0.5910530000000  0.5309620000000  0.5000510000000 1.0
C      1  0.5478010000000  0.4449990000000  0.5066170000000 1.0
C      1  0.4217320000000  0.4243390000000  0.5300120000000 1.0
C      1  0.4381600000000  0.4545580000000  0.4775800000000 1.0
C      1  0.4541970000000  0.4247130000000  0.4743080000000 1.0
C      1  0.4375360000000  0.5616220000000  0.4463020000000 1.0
C      1  0.5047440000000  0.5654420000000  0.4775170000000 1.0
C      1  0.4752090000000  0.6053110000000  0.5226520000000 1.0
C      1  0.4048020000000  0.4500750000000  0.5155610000000 1.0
C      1  0.4602960000000  0.4913590000000  0.4699500000000 1.0
C      1  0.4858480000000  0.4205910000000  0.4693360000000 1.0
C      1  0.4197880000000  0.4445780000000  0.5650640000000 1.0
C      1  0.5199040000000  0.4604300000000  0.5041550000000 1.0
C      1  0.4252560000000  0.4627110000000  0.5471820000000 1.0
C      1  0.4835110000000  0.4695530000000  0.4060190000000 1.0
C      1  0.5634880000000  0.4751810000000  0.4319810000000 1.0
C      1  0.4981160000000  0.4278310000000  0.5498150000000 1.0
C      1  0.4718550000000  0.5662030000000  0.4818070000000 1.0
C      1  0.5827420000000  0.5059110000000  0.5811510000000 1.0
C      1  0.5196970000000  0.5405860000000  0.4683190000000 1.0
C      1  0.4830130000000  0.4440260000000  0.4939020000000 1.0
C      1  0.5311950000000  0.5961640000000  0.4970880000000 1.0
C      1  0.4443240000000  0.4095950000000  0.5234260000000 1.0
C      1  0.5229160000000  0.4802470000000  0.4516280000000 1.0
C      1  0.5150210000000  0.5046730000000  0.4296880000000 1.0
C      1  0.4467800000000  0.5291260000000  0.5056560000000 1.0
C      1  0.4100520000000  0.4504170000000  0.4842730000000 1.0
C      1  0.5373550000000  0.4033020000000  0.5696950000000 1.0
C      1  0.5316940000000  0.4085870000000  0.4570780000000 1.0
C      1  0.5034550000000  0.4910130000000  0.4007800000000 1.0
C      1  0.5096830000000  0.4852020000000  0.5605390000000 1.0
C      1  0.4640720000000  0.5747920000000  0.5126050000000 1.0
C      1  0.5852070000000  0.4300750000000  0.5133090000000 1.0
C      1  0.4821550000000  0.4721420000000  0.5350440000000 1.0
C      1  0.4604700000000  0.5022070000000  0.5202500000000 1.0
C      1  0.5315070000000  0.5728420000000  0.5370620000000 1.0
C      1  0.5629740000000  0.5237210000000  0.5077170000000 1.0
C      1  0.5283770000000  0.5588310000000  0.5846000000000 1.0
C      1  0.5351470000000  0.5032240000000  0.5355690000000 1.0
C      1  0.4989060000000  0.5190140000000  0.4746150000000 1.0
C      1  0.4915040000000  0.4665280000000  0.4720770000000 1.0
C      1  0.5112580000000  0.5294470000000  0.5847350000000 1.0
C      1  0.4806010000000  0.5551610000000  0.4129450000000 1.0
C      1  0.4032270000000  0.4831260000000  0.5208670000000 1.0
C      1  0.5389490000000  0.4870260000000  0.5971490000000 1.0
C      1  0.5395220000000  0.4528910000000  0.4547610000000 1.0
C      1  0.5134340000000  0.3897210000000  0.4329060000000 1.0
C      1  0.4458670000000  0.4046590000000  0.4964370000000 1.0
C      1  0.5622470000000  0.5252400000000  0.5873920000000 1.0
C      1  0.5505360000000  0.5696070000000  0.5633370000000 1.0
C      1  0.5483630000000  0.5015410000000  0.4285430000000 1.0
C      1  0.5253030000000  0.4258810000000  0.4292680000000 1.0
C      1  0.4248630000000  0.5746720000000  0.5066340000000 1.0
C      1  0.4429970000000  0.4903980000000  0.5688970000000 1.0
C      1  0.4540730000000  0.4798360000000  0.4146190000000 1.0
C      1  0.4207810000000  0.5185900000000  0.5182410000000 1.0
C      1  0.5095100000000  0.6094670000000  0.5196710000000 1.0
C      1  0.6087390000000  0.4934260000000  0.4991780000000 1.0
C      1  0.5448380000000  0.4416590000000  0.5393570000000 1.0
C      1  0.5111220000000  0.5380090000000  0.5072170000000 1.0
C      1  0.5725050000000  0.4307310000000  0.4083050000000 1.0
C      1  0.5265190000000  0.5412690000000  0.5487440000000 1.0
C      1  0.5015340000000  0.4104050000000  0.5208200000000 1.0
C      1  0.4943330000000  0.3945820000000  0.4595720000000 1.0
C      1  0.4730480000000  0.5165320000000  0.4601480000000 1.0
C      1  0.4680880000000  0.4540940000000  0.5172280000000 1.0
C      1  0.4182470000000  0.5263010000000  0.5507670000000 1.0
C      1  0.4018400000000  0.5063410000000  0.4986670000000 1.0
C      1  0.4995030000000  0.4401500000000  0.4118280000000 1.0
C      1  0.4567120000000  0.5568950000000  0.5351990000000 1.0
C      1  0.5045060000000  0.6082000000000  0.4501890000000 1.0
C      1  0.4414530000000  0.4862900000000  0.4455240000000 1.0
C      1  0.5518220000000  0.5738890000000  0.5027100000000 1.0
C      1  0.4820430000000  0.6019790000000  0.4675250000000 1.0
C      1  0.5945800000000  0.5699860000000  0.4578300000000 1.0
C      1  0.5059780000000  0.5783020000000  0.5921550000000 1.0
C      1  0.5346680000000  0.4724180000000  0.5321650000000 1.0
C      1  0.4508430000000  0.5345290000000  0.4588650000000 1.0
C      1  0.4376780000000  0.5382590000000  0.5745470000000 1.0
C      1  0.5097840000000  0.4906250000000  0.4775220000000 1.0
C      1  0.5779130000000  0.4946240000000  0.5560640000000 1.0
C      1  0.5429830000000  0.4206750000000  0.4833490000000 1.0
C      1  0.4165400000000  0.4943010000000  0.5497280000000 1.0
C      1  0.4910340000000  0.5983420000000  0.4951940000000 1.0
C      1  0.4264160000000  0.5536080000000  0.5357080000000 1.0
C      1  0.4047330000000  0.5178210000000  0.4715320000000 1.0
C      1  0.5058220000000  0.5146940000000  0.5439950000000 1.0
C      1  0.5651190000000  0.4631150000000  0.5562320000000 1.0
C      1  0.4134950000000  0.5456760000000  0.4661570000000 1.0
C      1  0.5278920000000  0.4356030000000  0.3970050000000 1.0
C      1  0.4770490000000  0.5298630000000  0.5316550000000 1.0
C      1  0.5657510000000  0.4537800000000  0.4719800000000 1.0
C      1  0.4538070000000  0.5847810000000  0.4597720000000 1.0
C      1  0.4978290000000  0.5552160000000  0.5406900000000 1.0
C      1  0.5209390000000  0.5371140000000  0.4379850000000 1.0
C      1  0.5837790000000  0.4543280000000  0.5291740000000 1.0
C      1  0.4699610000000  0.4961740000000  0.5518530000000 1.0
C      1  0.5080440000000  0.5190460000000  0.3930810000000 1.0
C      1  0.4890700000000  0.5054470000000  0.5784710000000 1.0
C      1  0.5523940000000  0.4996390000000  0.4894920000000 1.0
C      1  0.5283320000000  0.4222830000000  0.5543060000000 1.0
C      1  0.4654730000000  0.5718080000000  0.5590180000000 1.0
C      1  0.4798410000000  0.5300290000000  0.4977690000000 1.0
C      1  0.4729740000000  0.4447880000000  0.4295120000000 1.0
C      1  0.5648680000000  0.5756150000000  0.5324600000000 1.0
C      1  0.6041900000000  0.5485340000000  0.5187500000000 1.0
C      1  0.5376120000000  0.4758620000000  0.5717960000000 1.0
C      1  0.4712380000000  0.4690730000000  0.4490500000000 1.0
C      1  0.4521310000000  0.5138230000000  0.4154620000000 1.0
C      1  0.5790450000000  0.4477220000000  0.5778070000000 1.0
END
