TITL C-2847944-5688-669 0.000167129849949065 125000 -607.896884873422 0 0 118 (C1) n - 1
REM
REM in /home/bkarasulu/work/CARBON/AIRSS/Generating-Clusters/AIREBO/with-SteepDescent/Only-C1/SD-CG-opt/Try1-1.4A-POS3A/HFTN-CG
REM
REM
REM
REM
REM
REM ./C.cell (11c1c37f851c82e70ff6c80c92926a4b)
REM
REM compiler GCC version 9.2.1 20190827 (Red Hat 9.2.1-1)
REM options -cpp -mtune=generic -march=x86-64 -g -O0 -fpre-include=/usr/include/finclude/math-vector-fortran.h
REM seed -941304142 -647817093 813308973 -1334665500 -767414936 -1775313544 -774095700 4483981 -802446939 1458485798 -1779105543 -493817218 1252910140 -1795198014 246753358 -2052348320 519264949 -109084059 -1494071933 -29469490 -564551269 2117594429 -1048526159 374978757 -1971750408 -1089561756 1101107494 1821616526 366017140 965957714 -1961969904 1760077710 1545084087
REM
CELL 1.54180   50.00000   50.00000   50.00000   90.00000   90.00000   90.00000
LATT -1
SFAC C  
C      1  0.4895670000000  0.4354300000000  0.5259700000000 1.0
C      1  0.5547550000000  0.4326960000000  0.5320430000000 1.0
C      1  0.5583120000000  0.5237560000000  0.5340520000000 1.0
C      1  0.4634230000000  0.4213090000000  0.5368180000000 1.0
C      1  0.5556540000000  0.4250370000000  0.4814420000000 1.0
C      1  0.5268050000000  0.4446150000000  0.5849280000000 1.0
C      1  0.4349170000000  0.5543150000000  0.4555010000000 1.0
C      1  0.5701660000000  0.4570440000000  0.5185180000000 1.0
C      1  0.4636960000000  0.5285840000000  0.5822140000000 1.0
C      1  0.4555920000000  0.4705390000000  0.5272910000000 1.0
C      1  0.4444460000000  0.4445820000000  0.5095650000000 1.0
C      1  0.5381710000000  0.4589010000000  0.4580480000000 1.0
C      1  0.5164060000000  0.5725030000000  0.4381280000000 1.0
C      1  0.4440380000000  0.5717600000000  0.4354830000000 1.0
C      1  0.4685110000000  0.5881430000000  0.5029980000000 1.0
C      1  0.4381330000000  0.4942010000000  0.5443950000000 1.0
C      1  0.4816060000000  0.5786220000000  0.4567170000000 1.0
C      1  0.4905770000000  0.5504370000000  0.4399160000000 1.0
C      1  0.4672930000000  0.5668820000000  0.4213650000000 1.0
C      1  0.5389410000000  0.5384330000000  0.5100890000000 1.0
C      1  0.4808970000000  0.4627080000000  0.4282950000000 1.0
C      1  0.5861970000000  0.5374940000000  0.4729210000000 1.0
C      1  0.4402150000000  0.5103970000000  0.4384560000000 1.0
C      1  0.5005990000000  0.5206710000000  0.5125520000000 1.0
C      1  0.4204170000000  0.4472170000000  0.5414170000000 1.0
C      1  0.4689540000000  0.5265280000000  0.4290320000000 1.0
C      1  0.5691690000000  0.5006880000000  0.4700790000000 1.0
C      1  0.5890140000000  0.5296990000000  0.5205810000000 1.0
C      1  0.4987000000000  0.4088170000000  0.4808560000000 1.0
C      1  0.4580780000000  0.5707700000000  0.5278580000000 1.0
C      1  0.5532010000000  0.5632020000000  0.5379480000000 1.0
C      1  0.4926010000000  0.5025800000000  0.5468290000000 1.0
C      1  0.4641410000000  0.5757520000000  0.4769290000000 1.0
C      1  0.4437740000000  0.4902240000000  0.4129800000000 1.0
C      1  0.5602280000000  0.5240510000000  0.4902940000000 1.0
C      1  0.4853440000000  0.5072450000000  0.4147250000000 1.0
C      1  0.5114350000000  0.6113420000000  0.4764640000000 1.0
C      1  0.4324000000000  0.5421510000000  0.5010030000000 1.0
C      1  0.5592520000000  0.5129750000000  0.4300700000000 1.0
C      1  0.5615100000000  0.5385350000000  0.4531230000000 1.0
C      1  0.5106180000000  0.5045800000000  0.4272030000000 1.0
C      1  0.5414360000000  0.5104460000000  0.5860450000000 1.0
C      1  0.5133520000000  0.5596130000000  0.5173800000000 1.0
C      1  0.5249160000000  0.4801840000000  0.4271360000000 1.0
C      1  0.4137840000000  0.4958960000000  0.5224930000000 1.0
C      1  0.5137940000000  0.4127360000000  0.5290240000000 1.0
C      1  0.5174220000000  0.4736000000000  0.5053170000000 1.0
C      1  0.5307290000000  0.4951260000000  0.4825470000000 1.0
C      1  0.4923150000000  0.4566600000000  0.5488720000000 1.0
C      1  0.5106330000000  0.4559040000000  0.4292020000000 1.0
C      1  0.5268850000000  0.5869330000000  0.4924720000000 1.0
C      1  0.5923290000000  0.4764910000000  0.5087260000000 1.0
C      1  0.4860450000000  0.5356330000000  0.4857010000000 1.0
C      1  0.5083150000000  0.5251480000000  0.4541870000000 1.0
C      1  0.5751200000000  0.4942210000000  0.5322980000000 1.0
C      1  0.4953320000000  0.6030120000000  0.4556150000000 1.0
C      1  0.4884570000000  0.4779290000000  0.5226240000000 1.0
C      1  0.5428620000000  0.4137640000000  0.5108640000000 1.0
C      1  0.4704570000000  0.4551210000000  0.5713320000000 1.0
C      1  0.5193100000000  0.5417510000000  0.4821300000000 1.0
C      1  0.4164800000000  0.4632870000000  0.5144850000000 1.0
C      1  0.5095260000000  0.4576430000000  0.4763440000000 1.0
C      1  0.5185210000000  0.4293830000000  0.4929820000000 1.0
C      1  0.4348930000000  0.4796900000000  0.4930910000000 1.0
C      1  0.4835650000000  0.4482800000000  0.4962270000000 1.0
C      1  0.5319340000000  0.5543260000000  0.5523130000000 1.0
C      1  0.5019320000000  0.4811710000000  0.5703900000000 1.0
C      1  0.5432260000000  0.4518910000000  0.4992780000000 1.0
C      1  0.5124750000000  0.5059170000000  0.5909010000000 1.0
C      1  0.4467850000000  0.4108030000000  0.5126480000000 1.0
C      1  0.4471300000000  0.4598470000000  0.4486330000000 1.0
C      1  0.5339660000000  0.4717470000000  0.5639570000000 1.0
C      1  0.4138200000000  0.5100840000000  0.4684940000000 1.0
C      1  0.5089870000000  0.5737700000000  0.5539980000000 1.0
C      1  0.4812030000000  0.4240520000000  0.4589580000000 1.0
C      1  0.5549050000000  0.4803600000000  0.4390630000000 1.0
C      1  0.4704580000000  0.4836540000000  0.4102310000000 1.0
C      1  0.5466610000000  0.5578970000000  0.4739330000000 1.0
C      1  0.5969140000000  0.4924010000000  0.4857100000000 1.0
C      1  0.4323220000000  0.5555500000000  0.5248960000000 1.0
C      1  0.4445680000000  0.5204000000000  0.5574910000000 1.0
C      1  0.4181340000000  0.5155360000000  0.4978550000000 1.0
C      1  0.5141140000000  0.5270580000000  0.5571380000000 1.0
C      1  0.5208390000000  0.5896490000000  0.5263230000000 1.0
C      1  0.4541320000000  0.5470540000000  0.4799810000000 1.0
C      1  0.4245400000000  0.5434780000000  0.5478500000000 1.0
C      1  0.4873490000000  0.5560530000000  0.5636790000000 1.0
C      1  0.5860690000000  0.4796320000000  0.4526700000000 1.0
C      1  0.4342730000000  0.4679800000000  0.5609760000000 1.0
C      1  0.5984700000000  0.5034330000000  0.5495350000000 1.0
C      1  0.5238930000000  0.5021290000000  0.5221280000000 1.0
C      1  0.5383740000000  0.5036190000000  0.5528650000000 1.0
C      1  0.5171640000000  0.4217410000000  0.5616870000000 1.0
C      1  0.4647740000000  0.5451660000000  0.5458380000000 1.0
C      1  0.4597510000000  0.4642790000000  0.4784780000000 1.0
C      1  0.4882290000000  0.5045210000000  0.4721520000000 1.0
C      1  0.5998040000000  0.5223300000000  0.4944660000000 1.0
C      1  0.4622930000000  0.4365120000000  0.4374330000000 1.0
C      1  0.4493340000000  0.5067130000000  0.5081150000000 1.0
C      1  0.4198810000000  0.5321780000000  0.4487280000000 1.0
C      1  0.4733420000000  0.4897330000000  0.4945470000000 1.0
C      1  0.5337550000000  0.4425240000000  0.5465760000000 1.0
C      1  0.5400580000000  0.4266910000000  0.4560440000000 1.0
C      1  0.5526030000000  0.4953360000000  0.5068370000000 1.0
C      1  0.4315800000000  0.4850840000000  0.4596530000000 1.0
C      1  0.4617980000000  0.4253220000000  0.4868570000000 1.0
C      1  0.4917890000000  0.4000140000000  0.5075630000000 1.0
C      1  0.4803100000000  0.4696650000000  0.5946830000000 1.0
C      1  0.5643210000000  0.4680520000000  0.5499390000000 1.0
C      1  0.5115420000000  0.4320810000000  0.4456610000000 1.0
C      1  0.4711420000000  0.5189380000000  0.5277210000000 1.0
C      1  0.4954920000000  0.5319690000000  0.5851590000000 1.0
C      1  0.5324770000000  0.5824740000000  0.4591420000000 1.0
C      1  0.5397880000000  0.5128180000000  0.4579580000000 1.0
C      1  0.5523700000000  0.5693260000000  0.5054470000000 1.0
C      1  0.4915570000000  0.4767360000000  0.4573800000000 1.0
C      1  0.4482510000000  0.4372260000000  0.5576890000000 1.0
C      1  0.4848930000000  0.5592220000000  0.5101630000000 1.0
END
