TITL C-2847958-8115-727 0.000699775213999946 125000 -406.188660354949 0 0 77 (C1) n - 1
REM
REM in /home/bkarasulu/work/CARBON/AIRSS/Generating-Clusters/AIREBO/with-SteepDescent/Only-C1/SD-CG-opt/Try1-1.4A-POS3A/HFTN-CG
REM
REM
REM
REM
REM
REM ./C.cell (11c1c37f851c82e70ff6c80c92926a4b)
REM
REM compiler GCC version 9.2.1 20190827 (Red Hat 9.2.1-1)
REM options -cpp -mtune=generic -march=x86-64 -g -O0 -fpre-include=/usr/include/finclude/math-vector-fortran.h
REM seed -1976804210 -641903402 155454036 -1905488045 -847956371 67112050 1491852243 -1292235995 -2093022357 1600299075 190330297 1153219590 2080644677 565650468 -401085078 -1076494607 -523161536 -1197815130 -512352160 -192829915 1731464873 -2084982571 497004585 -1575429210 -1886973836 -1248268929 -175619225 487208682 1320225997 575585896 -617709585 1975569909 1736944852
REM
CELL 1.54180   50.00000   50.00000   50.00000   90.00000   90.00000   90.00000
LATT -1
SFAC C  
C      1  0.5479370000000  0.5113640000000  0.5798850000000 1.0
C      1  0.4568100000000  0.4799710000000  0.5749020000000 1.0
C      1  0.4546390000000  0.4378960000000  0.5255550000000 1.0
C      1  0.4737310000000  0.5001890000000  0.5450670000000 1.0
C      1  0.5550380000000  0.4640540000000  0.5543740000000 1.0
C      1  0.4357170000000  0.4965940000000  0.5566790000000 1.0
C      1  0.5434440000000  0.4636470000000  0.4537890000000 1.0
C      1  0.5083090000000  0.4951750000000  0.4295940000000 1.0
C      1  0.4542350000000  0.4528790000000  0.4807830000000 1.0
C      1  0.4433130000000  0.5275980000000  0.5596360000000 1.0
C      1  0.4782630000000  0.5333470000000  0.5207630000000 1.0
C      1  0.5019200000000  0.5764550000000  0.5289430000000 1.0
C      1  0.4788000000000  0.4437770000000  0.4507390000000 1.0
C      1  0.4231050000000  0.5276380000000  0.5069890000000 1.0
C      1  0.5720220000000  0.5015310000000  0.5224680000000 1.0
C      1  0.4367110000000  0.4911840000000  0.4811570000000 1.0
C      1  0.4344120000000  0.4859080000000  0.5291680000000 1.0
C      1  0.4601360000000  0.4306110000000  0.4993980000000 1.0
C      1  0.5032260000000  0.5328630000000  0.5407310000000 1.0
C      1  0.4613270000000  0.4966430000000  0.4378000000000 1.0
C      1  0.5794300000000  0.4800760000000  0.5382130000000 1.0
C      1  0.4848140000000  0.4899960000000  0.4614930000000 1.0
C      1  0.5475560000000  0.4868620000000  0.4402170000000 1.0
C      1  0.5318320000000  0.5311040000000  0.5256820000000 1.0
C      1  0.5679900000000  0.5438700000000  0.4659960000000 1.0
C      1  0.5223300000000  0.4474930000000  0.4455380000000 1.0
C      1  0.5164450000000  0.4208050000000  0.5099750000000 1.0
C      1  0.4896320000000  0.4655130000000  0.5135670000000 1.0
C      1  0.5089700000000  0.5407700000000  0.4176270000000 1.0
C      1  0.4972370000000  0.5915870000000  0.4304960000000 1.0
C      1  0.4658840000000  0.5122090000000  0.5770960000000 1.0
C      1  0.5823610000000  0.4912670000000  0.4729980000000 1.0
C      1  0.5052740000000  0.4415340000000  0.5321700000000 1.0
C      1  0.5240550000000  0.5606550000000  0.5135180000000 1.0
C      1  0.4982690000000  0.5662950000000  0.4462720000000 1.0
C      1  0.4740000000000  0.4717300000000  0.4863030000000 1.0
C      1  0.5359310000000  0.4835680000000  0.5666350000000 1.0
C      1  0.5307780000000  0.4989460000000  0.5165320000000 1.0
C      1  0.5129520000000  0.4506760000000  0.4941010000000 1.0
C      1  0.4727850000000  0.5608350000000  0.4657780000000 1.0
C      1  0.5061160000000  0.5139890000000  0.4738580000000 1.0
C      1  0.4512490000000  0.5360690000000  0.4654500000000 1.0
C      1  0.4259570000000  0.4993900000000  0.5061840000000 1.0
C      1  0.5415680000000  0.4656510000000  0.4834370000000 1.0
C      1  0.5290770000000  0.5141070000000  0.4487640000000 1.0
C      1  0.5580980000000  0.5149960000000  0.4664810000000 1.0
C      1  0.4882550000000  0.4320380000000  0.4799510000000 1.0
C      1  0.5349610000000  0.4189060000000  0.4843550000000 1.0
C      1  0.5465040000000  0.5606830000000  0.4642950000000 1.0
C      1  0.4986940000000  0.4669480000000  0.4406970000000 1.0
C      1  0.5066110000000  0.4794030000000  0.5539850000000 1.0
C      1  0.4890030000000  0.5341030000000  0.4524220000000 1.0
C      1  0.4504500000000  0.5674680000000  0.4883970000000 1.0
C      1  0.5440210000000  0.4701080000000  0.5228410000000 1.0
C      1  0.5554890000000  0.4946110000000  0.4935740000000 1.0
C      1  0.5174310000000  0.5392520000000  0.4892860000000 1.0
C      1  0.5604390000000  0.5234420000000  0.5356300000000 1.0
C      1  0.4420210000000  0.4797170000000  0.4537790000000 1.0
C      1  0.5165920000000  0.5051250000000  0.5829060000000 1.0
C      1  0.5266470000000  0.5479500000000  0.4451030000000 1.0
C      1  0.4788120000000  0.5637600000000  0.5348280000000 1.0
C      1  0.5639330000000  0.5269890000000  0.5633680000000 1.0
C      1  0.4817040000000  0.4657320000000  0.5637150000000 1.0
C      1  0.4488760000000  0.5478440000000  0.5138780000000 1.0
C      1  0.4634530000000  0.4692880000000  0.5352440000000 1.0
C      1  0.4612360000000  0.5101450000000  0.4754320000000 1.0
C      1  0.4262220000000  0.5450790000000  0.4813620000000 1.0
C      1  0.4841210000000  0.5119690000000  0.4997120000000 1.0
C      1  0.5384910000000  0.5730790000000  0.4870210000000 1.0
C      1  0.4956450000000  0.5160220000000  0.5656930000000 1.0
C      1  0.5501350000000  0.4414850000000  0.5049430000000 1.0
C      1  0.4517290000000  0.5495370000000  0.5458610000000 1.0
C      1  0.5165390000000  0.4261680000000  0.4628230000000 1.0
C      1  0.5381870000000  0.4406050000000  0.5367650000000 1.0
C      1  0.4486800000000  0.4501590000000  0.4504570000000 1.0
C      1  0.4913990000000  0.5184800000000  0.4246160000000 1.0
C      1  0.5000350000000  0.4945900000000  0.5242570000000 1.0
END
