TITL C-2847950-6905-727 -0.00238098871199973 125000 -839.619702322135 0 0 156 (C1) n - 1
REM
REM in /home/bkarasulu/work/CARBON/AIRSS/Generating-Clusters/AIREBO/with-SteepDescent/Only-C1/SD-CG-opt/Try1-1.4A-POS3A/HFTN-CG
REM
REM
REM
REM
REM
REM ./C.cell (11c1c37f851c82e70ff6c80c92926a4b)
REM
REM compiler GCC version 9.2.1 20190827 (Red Hat 9.2.1-1)
REM options -cpp -mtune=generic -march=x86-64 -g -O0 -fpre-include=/usr/include/finclude/math-vector-fortran.h
REM seed -2079283932 -323160992 1838750471 -1884548126 913749018 1917494452 672709469 -133106872 2063925024 -431654705 1982291456 -1842602597 1915237416 1030525818 2137201679 -2088202503 -528125527 1912728007 1355462113 -36925450 -1508005114 1333711528 -1170408212 -563698495 -78057443 -232336650 -326906723 1700699413 1228767961 563996265 477250261 -553677881 563637900
REM
CELL 1.54180   50.00000   50.00000   50.00000   90.00000   90.00000   90.00000
LATT -1
SFAC C  
C      1  0.4756070000000  0.5131020000000  0.3974200000000 1.0
C      1  0.4334870000000  0.5174350000000  0.5601130000000 1.0
C      1  0.4885550000000  0.4173980000000  0.5492470000000 1.0
C      1  0.5772530000000  0.5088590000000  0.5400650000000 1.0
C      1  0.4701650000000  0.6033550000000  0.4697760000000 1.0
C      1  0.5105500000000  0.4430390000000  0.5828830000000 1.0
C      1  0.5766370000000  0.4495550000000  0.5211630000000 1.0
C      1  0.5959400000000  0.4401210000000  0.4971880000000 1.0
C      1  0.5101310000000  0.5608570000000  0.5681640000000 1.0
C      1  0.4268670000000  0.4713150000000  0.4668650000000 1.0
C      1  0.5251250000000  0.5693800000000  0.5029030000000 1.0
C      1  0.5233840000000  0.5517030000000  0.4383530000000 1.0
C      1  0.4939470000000  0.4909470000000  0.4884210000000 1.0
C      1  0.4216110000000  0.5759590000000  0.4845300000000 1.0
C      1  0.5012530000000  0.4747040000000  0.5534450000000 1.0
C      1  0.5035890000000  0.3937120000000  0.5097810000000 1.0
C      1  0.4883360000000  0.5326360000000  0.4358370000000 1.0
C      1  0.5029990000000  0.5046780000000  0.4458810000000 1.0
C      1  0.4555010000000  0.5327050000000  0.4356950000000 1.0
C      1  0.5559790000000  0.5563620000000  0.4432660000000 1.0
C      1  0.4800620000000  0.5623610000000  0.5572850000000 1.0
C      1  0.4797650000000  0.4876800000000  0.4087500000000 1.0
C      1  0.4853060000000  0.4314940000000  0.5753440000000 1.0
C      1  0.4558060000000  0.5103820000000  0.5821690000000 1.0
C      1  0.4521640000000  0.4606180000000  0.5481800000000 1.0
C      1  0.5457190000000  0.4942380000000  0.5905660000000 1.0
C      1  0.4679640000000  0.4882680000000  0.5362020000000 1.0
C      1  0.5237430000000  0.4635570000000  0.4033260000000 1.0
C      1  0.5512230000000  0.5872710000000  0.4931370000000 1.0
C      1  0.5528980000000  0.5115730000000  0.4170810000000 1.0
C      1  0.5056120000000  0.5681780000000  0.4796180000000 1.0
C      1  0.5595310000000  0.5589520000000  0.4762530000000 1.0
C      1  0.5237780000000  0.6066980000000  0.4879780000000 1.0
C      1  0.4954350000000  0.4657490000000  0.4030280000000 1.0
C      1  0.4815300000000  0.4395640000000  0.4135880000000 1.0
C      1  0.5186250000000  0.4684900000000  0.5104240000000 1.0
C      1  0.5449270000000  0.4843810000000  0.3981040000000 1.0
C      1  0.5856340000000  0.4454620000000  0.4732150000000 1.0
C      1  0.4670060000000  0.6006100000000  0.5064800000000 1.0
C      1  0.4087170000000  0.4982960000000  0.5611950000000 1.0
C      1  0.4613910000000  0.4869880000000  0.4373670000000 1.0
C      1  0.5313000000000  0.5045340000000  0.5615340000000 1.0
C      1  0.5855020000000  0.4450180000000  0.5518060000000 1.0
C      1  0.4112240000000  0.4969430000000  0.4552200000000 1.0
C      1  0.5696450000000  0.5368760000000  0.5565220000000 1.0
C      1  0.4320320000000  0.5701870000000  0.5651240000000 1.0
C      1  0.4208010000000  0.5479150000000  0.5135650000000 1.0
C      1  0.5669340000000  0.4577410000000  0.5675590000000 1.0
C      1  0.5683080000000  0.5284450000000  0.5122230000000 1.0
C      1  0.5713620000000  0.5339730000000  0.4348110000000 1.0
C      1  0.4228440000000  0.5535070000000  0.4607330000000 1.0
C      1  0.5165780000000  0.5301710000000  0.4638280000000 1.0
C      1  0.4579890000000  0.5567260000000  0.5245500000000 1.0
C      1  0.4304890000000  0.5000910000000  0.6312770000000 1.0
C      1  0.5187250000000  0.4367580000000  0.5111260000000 1.0
C      1  0.4124530000000  0.4456870000000  0.4651350000000 1.0
C      1  0.5494920000000  0.5301420000000  0.5745820000000 1.0
C      1  0.5103090000000  0.4960400000000  0.5285610000000 1.0
C      1  0.5621090000000  0.5030650000000  0.4609120000000 1.0
C      1  0.5006710000000  0.4036420000000  0.4453450000000 1.0
C      1  0.5070320000000  0.4714870000000  0.5868020000000 1.0
C      1  0.4988040000000  0.4070230000000  0.4725840000000 1.0
C      1  0.6169550000000  0.5211520000000  0.4742940000000 1.0
C      1  0.4318590000000  0.5013520000000  0.4285470000000 1.0
C      1  0.4459830000000  0.5638890000000  0.4415640000000 1.0
C      1  0.5058440000000  0.4519990000000  0.4581070000000 1.0
C      1  0.5916660000000  0.5284990000000  0.4531360000000 1.0
C      1  0.4108700000000  0.4401720000000  0.5044120000000 1.0
C      1  0.4961470000000  0.6075150000000  0.4903150000000 1.0
C      1  0.4234300000000  0.4510230000000  0.5341060000000 1.0
C      1  0.5320330000000  0.5519260000000  0.5460570000000 1.0
C      1  0.4578190000000  0.4725070000000  0.5945820000000 1.0
C      1  0.4057880000000  0.5221060000000  0.5063280000000 1.0
C      1  0.5761980000000  0.4848330000000  0.4933960000000 1.0
C      1  0.4847510000000  0.4696110000000  0.5132550000000 1.0
C      1  0.5364910000000  0.4430080000000  0.5638700000000 1.0
C      1  0.4856690000000  0.4789210000000  0.4597760000000 1.0
C      1  0.6079490000000  0.5154760000000  0.5456440000000 1.0
C      1  0.6152130000000  0.4964530000000  0.4558670000000 1.0
C      1  0.4539760000000  0.5746120000000  0.4728240000000 1.0
C      1  0.4281730000000  0.4230940000000  0.4822090000000 1.0
C      1  0.5346080000000  0.6028360000000  0.4603010000000 1.0
C      1  0.4358590000000  0.4193420000000  0.5306610000000 1.0
C      1  0.5262770000000  0.5232010000000  0.5347610000000 1.0
C      1  0.4918560000000  0.5209900000000  0.5146410000000 1.0
C      1  0.5281820000000  0.3878930000000  0.4954060000000 1.0
C      1  0.4993240000000  0.5570890000000  0.4149240000000 1.0
C      1  0.5537960000000  0.4495830000000  0.4435270000000 1.0
C      1  0.5863910000000  0.4588750000000  0.4462300000000 1.0
C      1  0.4393140000000  0.4773700000000  0.4959720000000 1.0
C      1  0.5027160000000  0.5486850000000  0.5990510000000 1.0
C      1  0.4991510000000  0.5287060000000  0.3975590000000 1.0
C      1  0.4256950000000  0.5108650000000  0.5276700000000 1.0
C      1  0.5264290000000  0.4683290000000  0.4778660000000 1.0
C      1  0.4882890000000  0.5822700000000  0.5199320000000 1.0
C      1  0.5361650000000  0.5391760000000  0.5084580000000 1.0
C      1  0.5313930000000  0.4420490000000  0.4206240000000 1.0
C      1  0.5334480000000  0.5481290000000  0.5874210000000 1.0
C      1  0.5487490000000  0.4087820000000  0.4925460000000 1.0
C      1  0.4585580000000  0.5373910000000  0.5487230000000 1.0
C      1  0.4551910000000  0.5623630000000  0.5789750000000 1.0
C      1  0.4605410000000  0.4250080000000  0.4719460000000 1.0
C      1  0.5184630000000  0.5940980000000  0.5253210000000 1.0
C      1  0.5167370000000  0.4296980000000  0.4811840000000 1.0
C      1  0.5180010000000  0.5143720000000  0.4939190000000 1.0
C      1  0.4605020000000  0.4398780000000  0.5245490000000 1.0
C      1  0.4485330000000  0.5208320000000  0.4073950000000 1.0
C      1  0.4557430000000  0.5109680000000  0.4608440000000 1.0
C      1  0.4085090000000  0.4801890000000  0.5377550000000 1.0
C      1  0.5309950000000  0.4913750000000  0.4550780000000 1.0
C      1  0.4486030000000  0.5485340000000  0.4939930000000 1.0
C      1  0.4818060000000  0.5175870000000  0.5465040000000 1.0
C      1  0.4661420000000  0.5194670000000  0.4921200000000 1.0
C      1  0.4593050000000  0.4586570000000  0.4669210000000 1.0
C      1  0.4887600000000  0.4476550000000  0.5390380000000 1.0
C      1  0.5494600000000  0.4699840000000  0.5219170000000 1.0
C      1  0.5488450000000  0.4808340000000  0.4310530000000 1.0
C      1  0.4620020000000  0.4489430000000  0.5759260000000 1.0
C      1  0.4401110000000  0.5828930000000  0.5122060000000 1.0
C      1  0.5477610000000  0.5297560000000  0.4714500000000 1.0
C      1  0.4754020000000  0.4025090000000  0.4928710000000 1.0
C      1  0.5204000000000  0.5846070000000  0.4463840000000 1.0
C      1  0.5333490000000  0.4235900000000  0.5381640000000 1.0
C      1  0.5580860000000  0.4653910000000  0.4736530000000 1.0
C      1  0.5052700000000  0.4314610000000  0.4330220000000 1.0
C      1  0.4455300000000  0.4060210000000  0.5035290000000 1.0
C      1  0.5876100000000  0.4817310000000  0.5222880000000 1.0
C      1  0.5894690000000  0.4862570000000  0.4496480000000 1.0
C      1  0.4960410000000  0.5915650000000  0.5503390000000 1.0
C      1  0.4086490000000  0.4732050000000  0.5044780000000 1.0
C      1  0.4909470000000  0.5837380000000  0.4568430000000 1.0
C      1  0.4249650000000  0.5254270000000  0.4604190000000 1.0
C      1  0.5605360000000  0.5583440000000  0.5391300000000 1.0
C      1  0.4446710000000  0.4945400000000  0.6092660000000 1.0
C      1  0.4598530000000  0.4545760000000  0.4985410000000 1.0
C      1  0.5144380000000  0.4967630000000  0.5965750000000 1.0
C      1  0.5463000000000  0.4262050000000  0.4671060000000 1.0
C      1  0.5023420000000  0.5188260000000  0.5736870000000 1.0
C      1  0.4020580000000  0.4997500000000  0.4878950000000 1.0
C      1  0.4737560000000  0.4864120000000  0.5696660000000 1.0
C      1  0.4554880000000  0.4556550000000  0.4267450000000 1.0
C      1  0.5684710000000  0.5623050000000  0.5088920000000 1.0
C      1  0.4775200000000  0.5656660000000  0.4378660000000 1.0
C      1  0.5675650000000  0.4885950000000  0.5664250000000 1.0
C      1  0.5559140000000  0.4229980000000  0.5163820000000 1.0
C      1  0.4896030000000  0.5409570000000  0.4801190000000 1.0
C      1  0.4226560000000  0.5690060000000  0.5378960000000 1.0
C      1  0.4651550000000  0.4285500000000  0.4413860000000 1.0
C      1  0.4872430000000  0.5535120000000  0.5116300000000 1.0
C      1  0.5082520000000  0.4041880000000  0.5352420000000 1.0
C      1  0.4494650000000  0.5004210000000  0.5121640000000 1.0
C      1  0.4747320000000  0.5348320000000  0.5855660000000 1.0
C      1  0.5831160000000  0.5167420000000  0.4839000000000 1.0
C      1  0.5457140000000  0.4967070000000  0.5026570000000 1.0
C      1  0.5349100000000  0.4727140000000  0.5496800000000 1.0
C      1  0.5271460000000  0.5288280000000  0.4132090000000 1.0
END
