TITL C-2847958-8115-123 0.00516151628269202 125000 -579.467517993986 0 0 106 (C1) n - 1
REM
REM in /home/bkarasulu/work/CARBON/AIRSS/Generating-Clusters/AIREBO/with-SteepDescent/Only-C1/SD-CG-opt/Try1-1.4A-POS3A/HFTN-CG
REM
REM
REM
REM
REM
REM ./C.cell (11c1c37f851c82e70ff6c80c92926a4b)
REM
REM compiler GCC version 9.2.1 20190827 (Red Hat 9.2.1-1)
REM options -cpp -mtune=generic -march=x86-64 -g -O0 -fpre-include=/usr/include/finclude/math-vector-fortran.h
REM seed -20534830 1017591512 -697055057 -2075546999 -1813417810 1792156931 -733148765 -129738263 1122293656 146360824 -1110313491 -1522744081 -1619465284 -2115216806 -538416300 48428158 -1056060494 -302482900 878584398 -1076801125 -1360692292 -420966863 1788788622 -955921950 1086109625 -925094457 1097140803 1684341862 1361701274 -411873262 -1600074114 1666659985 1666398574
REM
CELL 1.54180   50.00000   50.00000   50.00000   90.00000   90.00000   90.00000
LATT -1
SFAC C  
C      1  0.5253230000000  0.4129220000000  0.4998300000000 1.0
C      1  0.4981120000000  0.4607530000000  0.5113230000000 1.0
C      1  0.4888940000000  0.5661520000000  0.5401790000000 1.0
C      1  0.5580280000000  0.4361960000000  0.5327210000000 1.0
C      1  0.5475370000000  0.5023410000000  0.4503150000000 1.0
C      1  0.4842670000000  0.5740780000000  0.4521610000000 1.0
C      1  0.5172740000000  0.4211450000000  0.5318310000000 1.0
C      1  0.5447860000000  0.5394480000000  0.4895370000000 1.0
C      1  0.4587700000000  0.4362020000000  0.4594350000000 1.0
C      1  0.5447100000000  0.4705650000000  0.5696230000000 1.0
C      1  0.5015110000000  0.4494340000000  0.4837960000000 1.0
C      1  0.5040060000000  0.4491710000000  0.4395760000000 1.0
C      1  0.5216740000000  0.5402770000000  0.4659290000000 1.0
C      1  0.5563060000000  0.4450790000000  0.4471680000000 1.0
C      1  0.4878000000000  0.5431820000000  0.4886630000000 1.0
C      1  0.4793460000000  0.5246540000000  0.5869020000000 1.0
C      1  0.5149430000000  0.5655520000000  0.5209250000000 1.0
C      1  0.4771480000000  0.4966440000000  0.5396160000000 1.0
C      1  0.5274560000000  0.4505200000000  0.4643390000000 1.0
C      1  0.4839510000000  0.5091170000000  0.4866850000000 1.0
C      1  0.5235880000000  0.5762680000000  0.4829010000000 1.0
C      1  0.4930790000000  0.4962430000000  0.4604110000000 1.0
C      1  0.4033430000000  0.5291560000000  0.5006580000000 1.0
C      1  0.4659690000000  0.5538280000000  0.4275270000000 1.0
C      1  0.5700020000000  0.4766240000000  0.5177590000000 1.0
C      1  0.5265440000000  0.4994580000000  0.5459460000000 1.0
C      1  0.5883780000000  0.4975950000000  0.5008780000000 1.0
C      1  0.4137050000000  0.5001150000000  0.4860800000000 1.0
C      1  0.4861810000000  0.4317390000000  0.5200080000000 1.0
C      1  0.5711220000000  0.4783250000000  0.5624200000000 1.0
C      1  0.4234190000000  0.5267110000000  0.4743800000000 1.0
C      1  0.4691280000000  0.5454600000000  0.4603340000000 1.0
C      1  0.4937020000000  0.4117840000000  0.4941360000000 1.0
C      1  0.4989440000000  0.4693780000000  0.5770240000000 1.0
C      1  0.5014740000000  0.4430250000000  0.5668160000000 1.0
C      1  0.4758900000000  0.5973690000000  0.4698180000000 1.0
C      1  0.4741320000000  0.4961590000000  0.4116980000000 1.0
C      1  0.5414410000000  0.4804730000000  0.5095070000000 1.0
C      1  0.5312560000000  0.5006990000000  0.5788130000000 1.0
C      1  0.4368540000000  0.4765490000000  0.4418490000000 1.0
C      1  0.5441180000000  0.4221810000000  0.4730480000000 1.0
C      1  0.4539940000000  0.4547350000000  0.4368330000000 1.0
C      1  0.5561660000000  0.5374950000000  0.5215190000000 1.0
C      1  0.4633400000000  0.5342380000000  0.5105220000000 1.0
C      1  0.5043040000000  0.5130800000000  0.5932240000000 1.0
C      1  0.4384970000000  0.5736910000000  0.5178320000000 1.0
C      1  0.5453470000000  0.5805250000000  0.5000040000000 1.0
C      1  0.5270780000000  0.5271530000000  0.5359150000000 1.0
C      1  0.4699800000000  0.5263180000000  0.5387000000000 1.0
C      1  0.4205620000000  0.5530230000000  0.5180670000000 1.0
C      1  0.5225810000000  0.5453790000000  0.4270990000000 1.0
C      1  0.5353430000000  0.5180440000000  0.4223550000000 1.0
C      1  0.5832790000000  0.4507500000000  0.4594250000000 1.0
C      1  0.5280690000000  0.4888420000000  0.4181310000000 1.0
C      1  0.4553700000000  0.4421630000000  0.5114970000000 1.0
C      1  0.5210920000000  0.4704060000000  0.5300720000000 1.0
C      1  0.4535760000000  0.4642020000000  0.4756790000000 1.0
C      1  0.5896380000000  0.5563450000000  0.4866500000000 1.0
C      1  0.4150440000000  0.4618990000000  0.5010700000000 1.0
C      1  0.5029090000000  0.4809530000000  0.4097760000000 1.0
C      1  0.5125540000000  0.5465560000000  0.5554350000000 1.0
C      1  0.4210490000000  0.5028700000000  0.5416170000000 1.0
C      1  0.5023740000000  0.4171920000000  0.4402190000000 1.0
C      1  0.4109470000000  0.5269850000000  0.5332930000000 1.0
C      1  0.4457340000000  0.4719680000000  0.5389080000000 1.0
C      1  0.5420140000000  0.5730710000000  0.5326720000000 1.0
C      1  0.5142560000000  0.5684610000000  0.4511150000000 1.0
C      1  0.5847700000000  0.5360340000000  0.4694700000000 1.0
C      1  0.4843730000000  0.4668380000000  0.4610070000000 1.0
C      1  0.5223760000000  0.5006900000000  0.4701700000000 1.0
C      1  0.4510960000000  0.5025570000000  0.4362460000000 1.0
C      1  0.4756150000000  0.5241760000000  0.4272870000000 1.0
C      1  0.4183300000000  0.4809920000000  0.5208550000000 1.0
C      1  0.4554660000000  0.4758240000000  0.5065530000000 1.0
C      1  0.4509460000000  0.5212280000000  0.4624450000000 1.0
C      1  0.5710450000000  0.5642200000000  0.5066670000000 1.0
C      1  0.4282820000000  0.4373830000000  0.5070850000000 1.0
C      1  0.5800530000000  0.4722750000000  0.4793170000000 1.0
C      1  0.4318250000000  0.6001300000000  0.5206600000000 1.0
C      1  0.4544310000000  0.4464180000000  0.5539640000000 1.0
C      1  0.5305330000000  0.4469380000000  0.5496010000000 1.0
C      1  0.4785470000000  0.4611480000000  0.4219150000000 1.0
C      1  0.5207660000000  0.5020940000000  0.5003680000000 1.0
C      1  0.5542490000000  0.5346390000000  0.4585540000000 1.0
C      1  0.5543120000000  0.5224940000000  0.5663570000000 1.0
C      1  0.4907110000000  0.5770610000000  0.4914630000000 1.0
C      1  0.5510500000000  0.4598690000000  0.4869870000000 1.0
C      1  0.5762400000000  0.5033550000000  0.4696430000000 1.0
C      1  0.4993270000000  0.4884820000000  0.5582270000000 1.0
C      1  0.4487840000000  0.4988100000000  0.5582540000000 1.0
C      1  0.5738010000000  0.5052580000000  0.5527140000000 1.0
C      1  0.4852180000000  0.4251690000000  0.4668440000000 1.0
C      1  0.4524050000000  0.5070140000000  0.4933290000000 1.0
C      1  0.5020390000000  0.5238450000000  0.4435570000000 1.0
C      1  0.4555170000000  0.5093860000000  0.5858080000000 1.0
C      1  0.4816920000000  0.5417050000000  0.5626850000000 1.0
C      1  0.4917570000000  0.4913130000000  0.5128000000000 1.0
C      1  0.4211290000000  0.4734690000000  0.4707410000000 1.0
C      1  0.5543930000000  0.5510660000000  0.5526560000000 1.0
C      1  0.5164540000000  0.5354610000000  0.5052750000000 1.0
C      1  0.5461170000000  0.4718930000000  0.4352350000000 1.0
C      1  0.5518410000000  0.4323770000000  0.5049700000000 1.0
C      1  0.4792400000000  0.4353900000000  0.5514470000000 1.0
C      1  0.5774010000000  0.5147050000000  0.5262080000000 1.0
C      1  0.4399900000000  0.5030550000000  0.6074170000000 1.0
C      1  0.4686730000000  0.5663240000000  0.5150240000000 1.0
END
