TITL C-2847946-5639-571 0.000598044871984382 125000 -864.402543154806 0 0 158 (C1) n - 1
REM
REM in /home/bkarasulu/work/CARBON/AIRSS/Generating-Clusters/AIREBO/with-SteepDescent/Only-C1/SD-CG-opt/Try1-1.4A-POS3A/HFTN-CG
REM
REM
REM
REM
REM
REM ./C.cell (11c1c37f851c82e70ff6c80c92926a4b)
REM
REM compiler GCC version 9.2.1 20190827 (Red Hat 9.2.1-1)
REM options -cpp -mtune=generic -march=x86-64 -g -O0 -fpre-include=/usr/include/finclude/math-vector-fortran.h
REM seed -680397102 794392199 868467777 -1902111334 1879114381 -56182949 -1334372977 1234374349 -1649087964 1116061306 1234518217 1478074598 199886557 673315193 -282342366 -1849393687 230296148 -895203149 437911831 -188225531 583972878 48840853 -1605448083 1659547429 -1595550340 1185318328 146421858 834848430 102292508 -1935243553 2030884957 -1255331857 2034046281
REM
CELL 1.54180   50.00000   50.00000   50.00000   90.00000   90.00000   90.00000
LATT -1
SFAC C  
C      1  0.5908660000000  0.5306380000000  0.4640720000000 1.0
C      1  0.5977040000000  0.4830640000000  0.4909900000000 1.0
C      1  0.5327480000000  0.4536180000000  0.4550120000000 1.0
C      1  0.4100230000000  0.5218960000000  0.4425760000000 1.0
C      1  0.5799440000000  0.5617240000000  0.5541370000000 1.0
C      1  0.5050420000000  0.4512610000000  0.6104210000000 1.0
C      1  0.4995560000000  0.5283470000000  0.5419020000000 1.0
C      1  0.5524330000000  0.5595000000000  0.4558730000000 1.0
C      1  0.5507680000000  0.4688390000000  0.5035990000000 1.0
C      1  0.4032390000000  0.4993130000000  0.5164250000000 1.0
C      1  0.5297670000000  0.5749570000000  0.4751870000000 1.0
C      1  0.4472280000000  0.5870890000000  0.5446750000000 1.0
C      1  0.5914070000000  0.4640340000000  0.5349280000000 1.0
C      1  0.4488130000000  0.4398600000000  0.5655850000000 1.0
C      1  0.4155860000000  0.5418970000000  0.4902450000000 1.0
C      1  0.5494520000000  0.4197100000000  0.5317220000000 1.0
C      1  0.4049080000000  0.4558480000000  0.5582720000000 1.0
C      1  0.5012970000000  0.5527050000000  0.5182420000000 1.0
C      1  0.5827430000000  0.5435150000000  0.4882050000000 1.0
C      1  0.4974020000000  0.4311240000000  0.4770180000000 1.0
C      1  0.5470030000000  0.5480450000000  0.5891050000000 1.0
C      1  0.4004110000000  0.4603130000000  0.4832940000000 1.0
C      1  0.5321280000000  0.4861540000000  0.4461480000000 1.0
C      1  0.5773910000000  0.4396920000000  0.4897970000000 1.0
C      1  0.4471110000000  0.5465830000000  0.4863110000000 1.0
C      1  0.5128480000000  0.5973940000000  0.5099880000000 1.0
C      1  0.4757790000000  0.5213590000000  0.5186240000000 1.0
C      1  0.5052820000000  0.3934540000000  0.4664570000000 1.0
C      1  0.4952330000000  0.4090990000000  0.5188020000000 1.0
C      1  0.5987270000000  0.5041250000000  0.5104670000000 1.0
C      1  0.5520750000000  0.5034920000000  0.5565320000000 1.0
C      1  0.5222870000000  0.4447370000000  0.5176110000000 1.0
C      1  0.4582570000000  0.4720840000000  0.4621870000000 1.0
C      1  0.5019510000000  0.5227770000000  0.4263200000000 1.0
C      1  0.4727450000000  0.4876720000000  0.5721700000000 1.0
C      1  0.5717000000000  0.5228440000000  0.5128390000000 1.0
C      1  0.5654170000000  0.5851460000000  0.5397140000000 1.0
C      1  0.4319780000000  0.5021970000000  0.4294580000000 1.0
C      1  0.5519600000000  0.5276340000000  0.4559130000000 1.0
C      1  0.4553680000000  0.4495930000000  0.4231480000000 1.0
C      1  0.4468080000000  0.5127660000000  0.4043500000000 1.0
C      1  0.4814720000000  0.5008790000000  0.4419530000000 1.0
C      1  0.5275440000000  0.4321520000000  0.5551550000000 1.0
C      1  0.6020110000000  0.4754860000000  0.5655440000000 1.0
C      1  0.6060130000000  0.4940410000000  0.5381180000000 1.0
C      1  0.5086550000000  0.5822670000000  0.5540770000000 1.0
C      1  0.4853010000000  0.4608910000000  0.5578600000000 1.0
C      1  0.4529950000000  0.5051390000000  0.4558490000000 1.0
C      1  0.5130080000000  0.5527760000000  0.4253570000000 1.0
C      1  0.4541780000000  0.4632920000000  0.4899630000000 1.0
C      1  0.5771270000000  0.5080640000000  0.4440850000000 1.0
C      1  0.4534670000000  0.5784220000000  0.4908240000000 1.0
C      1  0.5058610000000  0.5328140000000  0.4946890000000 1.0
C      1  0.4906440000000  0.4558110000000  0.4150690000000 1.0
C      1  0.5080910000000  0.4633940000000  0.4761960000000 1.0
C      1  0.5508890000000  0.5264090000000  0.4159520000000 1.0
C      1  0.4170510000000  0.4837290000000  0.5715190000000 1.0
C      1  0.4537990000000  0.5424690000000  0.4080860000000 1.0
C      1  0.4354150000000  0.4271070000000  0.4691390000000 1.0
C      1  0.5229670000000  0.4711620000000  0.5920620000000 1.0
C      1  0.4532010000000  0.5089490000000  0.5903010000000 1.0
C      1  0.4707040000000  0.4805160000000  0.5113470000000 1.0
C      1  0.5246850000000  0.4918570000000  0.4846190000000 1.0
C      1  0.5826870000000  0.4886120000000  0.4686650000000 1.0
C      1  0.5254550000000  0.5331160000000  0.5945130000000 1.0
C      1  0.5294490000000  0.4845890000000  0.5236360000000 1.0
C      1  0.5260330000000  0.5153070000000  0.4984090000000 1.0
C      1  0.4255960000000  0.5693130000000  0.5335690000000 1.0
C      1  0.4992430000000  0.5762960000000  0.4736730000000 1.0
C      1  0.4156350000000  0.5319940000000  0.5724480000000 1.0
C      1  0.4464280000000  0.4688900000000  0.5629830000000 1.0
C      1  0.5492170000000  0.5975630000000  0.4905740000000 1.0
C      1  0.4750390000000  0.4077970000000  0.4661300000000 1.0
C      1  0.5566060000000  0.4995590000000  0.6037200000000 1.0
C      1  0.5664380000000  0.4166340000000  0.4673310000000 1.0
C      1  0.4993750000000  0.5072730000000  0.5674390000000 1.0
C      1  0.5854140000000  0.5116550000000  0.5579410000000 1.0
C      1  0.4569340000000  0.5386430000000  0.4590580000000 1.0
C      1  0.4599620000000  0.5788370000000  0.4410310000000 1.0
C      1  0.4756910000000  0.5040140000000  0.3886690000000 1.0
C      1  0.4082790000000  0.4923880000000  0.4839580000000 1.0
C      1  0.5540010000000  0.4714930000000  0.5847000000000 1.0
C      1  0.5711940000000  0.5880520000000  0.5130580000000 1.0
C      1  0.5627590000000  0.4120380000000  0.5013440000000 1.0
C      1  0.5426500000000  0.5158350000000  0.5262670000000 1.0
C      1  0.5038640000000  0.4094310000000  0.5627410000000 1.0
C      1  0.5017490000000  0.4701580000000  0.5087790000000 1.0
C      1  0.4202410000000  0.4877460000000  0.5396610000000 1.0
C      1  0.5226250000000  0.4544000000000  0.4040230000000 1.0
C      1  0.4809860000000  0.5327790000000  0.4014320000000 1.0
C      1  0.5547540000000  0.4933740000000  0.4231000000000 1.0
C      1  0.5331440000000  0.4809310000000  0.3999600000000 1.0
C      1  0.5242930000000  0.4115150000000  0.5106530000000 1.0
C      1  0.6009940000000  0.5403280000000  0.5163390000000 1.0
C      1  0.4091230000000  0.5289470000000  0.5187430000000 1.0
C      1  0.4721270000000  0.5273430000000  0.5707660000000 1.0
C      1  0.4892580000000  0.5734430000000  0.4279630000000 1.0
C      1  0.4234630000000  0.5715980000000  0.5053330000000 1.0
C      1  0.5403060000000  0.4156610000000  0.4455910000000 1.0
C      1  0.5813370000000  0.4909090000000  0.5832790000000 1.0
C      1  0.4382340000000  0.4399330000000  0.5273530000000 1.0
C      1  0.4859920000000  0.6071350000000  0.4682490000000 1.0
C      1  0.5159670000000  0.4625450000000  0.5450510000000 1.0
C      1  0.4432420000000  0.4030280000000  0.5133000000000 1.0
C      1  0.4556240000000  0.3935540000000  0.4875060000000 1.0
C      1  0.5227350000000  0.5171390000000  0.4526410000000 1.0
C      1  0.5636930000000  0.4717250000000  0.5530600000000 1.0
C      1  0.4393560000000  0.5001190000000  0.4865910000000 1.0
C      1  0.4510100000000  0.4320210000000  0.4973050000000 1.0
C      1  0.4694170000000  0.5987710000000  0.5282410000000 1.0
C      1  0.4519360000000  0.4911350000000  0.5376550000000 1.0
C      1  0.5348730000000  0.5720950000000  0.5086810000000 1.0
C      1  0.4870200000000  0.5535240000000  0.4555410000000 1.0
C      1  0.5068120000000  0.4450090000000  0.5788800000000 1.0
C      1  0.4102760000000  0.4379610000000  0.4697700000000 1.0
C      1  0.5410420000000  0.5510940000000  0.4259120000000 1.0
C      1  0.4846930000000  0.5791880000000  0.5042850000000 1.0
C      1  0.5942520000000  0.5396470000000  0.5463600000000 1.0
C      1  0.4609390000000  0.5928910000000  0.4649810000000 1.0
C      1  0.5017010000000  0.5456780000000  0.5913600000000 1.0
C      1  0.4923320000000  0.5219860000000  0.4670920000000 1.0
C      1  0.4418340000000  0.4730290000000  0.4348420000000 1.0
C      1  0.5683120000000  0.5701870000000  0.4840620000000 1.0
C      1  0.4881830000000  0.4329710000000  0.4381410000000 1.0
C      1  0.4563450000000  0.4232220000000  0.4442510000000 1.0
C      1  0.4614480000000  0.5490150000000  0.5164810000000 1.0
C      1  0.4678690000000  0.4543290000000  0.5328490000000 1.0
C      1  0.4844810000000  0.4611460000000  0.4541310000000 1.0
C      1  0.5531680000000  0.4828240000000  0.4726900000000 1.0
C      1  0.4722770000000  0.5075590000000  0.4907780000000 1.0
C      1  0.4809340000000  0.4248440000000  0.5015270000000 1.0
C      1  0.5522760000000  0.4529120000000  0.5316700000000 1.0
C      1  0.4433710000000  0.5545120000000  0.4333720000000 1.0
C      1  0.5323690000000  0.5480720000000  0.5313950000000 1.0
C      1  0.5444130000000  0.4452450000000  0.4837330000000 1.0
C      1  0.4048440000000  0.5200820000000  0.4702540000000 1.0
C      1  0.4110050000000  0.4496250000000  0.5323140000000 1.0
C      1  0.5932730000000  0.4587100000000  0.5044850000000 1.0
C      1  0.5040190000000  0.4828740000000  0.4272140000000 1.0
C      1  0.5705990000000  0.4634360000000  0.4262550000000 1.0
C      1  0.5498270000000  0.5546930000000  0.5598480000000 1.0
C      1  0.4263950000000  0.5388730000000  0.5431650000000 1.0
C      1  0.5616260000000  0.4421190000000  0.4443480000000 1.0
C      1  0.4897550000000  0.5548240000000  0.5608650000000 1.0
C      1  0.4542640000000  0.5221120000000  0.5449420000000 1.0
C      1  0.5076210000000  0.5017960000000  0.4001490000000 1.0
C      1  0.4847130000000  0.4067800000000  0.5437230000000 1.0
C      1  0.4003860000000  0.4659800000000  0.5126370000000 1.0
C      1  0.4944850000000  0.5944400000000  0.4099230000000 1.0
C      1  0.4135050000000  0.5477140000000  0.4337820000000 1.0
C      1  0.4639360000000  0.5615510000000  0.5413940000000 1.0
C      1  0.4253290000000  0.5093100000000  0.5846320000000 1.0
C      1  0.4978380000000  0.6001010000000  0.5356270000000 1.0
C      1  0.5277060000000  0.4163680000000  0.4771730000000 1.0
C      1  0.5357180000000  0.5819330000000  0.5523960000000 1.0
C      1  0.5189920000000  0.4302410000000  0.4260100000000 1.0
C      1  0.5296210000000  0.5030870000000  0.5824250000000 1.0
C      1  0.4553070000000  0.4151210000000  0.5431380000000 1.0
END
