TITL C-2847958-8115-106 0.00191906304332253 125000 -1019.07685555212 0 0 192 (C1) n - 1
REM
REM in /home/bkarasulu/work/CARBON/AIRSS/Generating-Clusters/AIREBO/with-SteepDescent/Only-C1/SD-CG-opt/Try1-1.4A-POS3A/HFTN-CG
REM
REM
REM
REM
REM
REM ./C.cell (11c1c37f851c82e70ff6c80c92926a4b)
REM
REM compiler GCC version 9.2.1 20190827 (Red Hat 9.2.1-1)
REM options -cpp -mtune=generic -march=x86-64 -g -O0 -fpre-include=/usr/include/finclude/math-vector-fortran.h
REM seed -174444749 -1284445067 -1047196992 -1299923857 -2116233004 1268697671 -1965609445 -804686412 1492252739 389821116 -61401650 -1756556580 -1858540388 -1428245753 298794892 1947996776 997517561 351766104 -1432893505 -1074902594 -70449225 592137984 -1374693635 -778982681 225204333 -1899626227 1047038420 -288234375 -1324630697 437307407 -654104468 2141551436 -1922678399
REM
CELL 1.54180   50.00000   50.00000   50.00000   90.00000   90.00000   90.00000
LATT -1
SFAC C  
C      1  0.4556690000000  0.4302160000000  0.3950070000000 1.0
C      1  0.4687040000000  0.4540600000000  0.6019470000000 1.0
C      1  0.4749570000000  0.5131520000000  0.5723570000000 1.0
C      1  0.5729670000000  0.5528730000000  0.4721620000000 1.0
C      1  0.4950680000000  0.5214430000000  0.5514260000000 1.0
C      1  0.5196860000000  0.5754220000000  0.4658470000000 1.0
C      1  0.5526300000000  0.5022650000000  0.6184560000000 1.0
C      1  0.5737440000000  0.4588660000000  0.4153890000000 1.0
C      1  0.5474190000000  0.5861040000000  0.4521590000000 1.0
C      1  0.5017000000000  0.5730930000000  0.4946130000000 1.0
C      1  0.4579800000000  0.4563080000000  0.3866940000000 1.0
C      1  0.3994550000000  0.5614890000000  0.5056080000000 1.0
C      1  0.5420510000000  0.4809910000000  0.6021130000000 1.0
C      1  0.4081360000000  0.5584160000000  0.4747320000000 1.0
C      1  0.5738150000000  0.4642320000000  0.4660270000000 1.0
C      1  0.4982350000000  0.5227140000000  0.4472220000000 1.0
C      1  0.5597000000000  0.4924270000000  0.5413750000000 1.0
C      1  0.5482860000000  0.5708180000000  0.4269150000000 1.0
C      1  0.4740220000000  0.4257360000000  0.5177170000000 1.0
C      1  0.5035420000000  0.5224920000000  0.5080100000000 1.0
C      1  0.5303830000000  0.5367860000000  0.3968550000000 1.0
C      1  0.5254570000000  0.4767130000000  0.4385550000000 1.0
C      1  0.4330740000000  0.5465240000000  0.4899500000000 1.0
C      1  0.4547760000000  0.4662360000000  0.5383180000000 1.0
C      1  0.4814480000000  0.6163280000000  0.5127770000000 1.0
C      1  0.5628910000000  0.5682360000000  0.5370340000000 1.0
C      1  0.4974820000000  0.5015050000000  0.4256280000000 1.0
C      1  0.4982330000000  0.5527760000000  0.5225490000000 1.0
C      1  0.5762340000000  0.5212450000000  0.3859890000000 1.0
C      1  0.4372500000000  0.4517720000000  0.5773470000000 1.0
C      1  0.4851750000000  0.4109960000000  0.5645460000000 1.0
C      1  0.6081670000000  0.4650950000000  0.4962130000000 1.0
C      1  0.5966240000000  0.5122730000000  0.4810150000000 1.0
C      1  0.5322070000000  0.5309480000000  0.4917780000000 1.0
C      1  0.4149170000000  0.4535160000000  0.5604230000000 1.0
C      1  0.3865560000000  0.5082220000000  0.4438510000000 1.0
C      1  0.4690410000000  0.4782700000000  0.4099750000000 1.0
C      1  0.4667730000000  0.4348200000000  0.5768770000000 1.0
C      1  0.5943450000000  0.5339990000000  0.5234760000000 1.0
C      1  0.5953740000000  0.5395150000000  0.4921930000000 1.0
C      1  0.5497280000000  0.5028570000000  0.4893320000000 1.0
C      1  0.5182910000000  0.4873730000000  0.4700670000000 1.0
C      1  0.4827930000000  0.5276400000000  0.6021010000000 1.0
C      1  0.5828110000000  0.5247430000000  0.5715450000000 1.0
C      1  0.4256280000000  0.5157380000000  0.5466670000000 1.0
C      1  0.5350630000000  0.4973160000000  0.4132230000000 1.0
C      1  0.5270060000000  0.4811670000000  0.5023790000000 1.0
C      1  0.5256290000000  0.5893960000000  0.5059460000000 1.0
C      1  0.4558780000000  0.4790180000000  0.6207360000000 1.0
C      1  0.6012290000000  0.4814070000000  0.4670550000000 1.0
C      1  0.4959830000000  0.4622610000000  0.4662390000000 1.0
C      1  0.4101680000000  0.4326520000000  0.4814850000000 1.0
C      1  0.5976810000000  0.4338500000000  0.5005300000000 1.0
C      1  0.5248850000000  0.5619170000000  0.4095100000000 1.0
C      1  0.3979330000000  0.5065990000000  0.4930780000000 1.0
C      1  0.4806660000000  0.4862970000000  0.3803900000000 1.0
C      1  0.5071940000000  0.4605590000000  0.5751420000000 1.0
C      1  0.4301640000000  0.4957200000000  0.4918330000000 1.0
C      1  0.3959510000000  0.5293510000000  0.4688040000000 1.0
C      1  0.5687480000000  0.4502310000000  0.5373000000000 1.0
C      1  0.3927000000000  0.4794710000000  0.5056230000000 1.0
C      1  0.4300730000000  0.4231190000000  0.5261470000000 1.0
C      1  0.5362800000000  0.4252000000000  0.5739350000000 1.0
C      1  0.4990970000000  0.5518880000000  0.5566570000000 1.0
C      1  0.5472850000000  0.5751600000000  0.5863360000000 1.0
C      1  0.5651300000000  0.5918990000000  0.4759990000000 1.0
C      1  0.4661460000000  0.5629760000000  0.5176260000000 1.0
C      1  0.4309360000000  0.4536730000000  0.5239150000000 1.0
C      1  0.4407460000000  0.5228180000000  0.4426110000000 1.0
C      1  0.4048100000000  0.4703720000000  0.5326430000000 1.0
C      1  0.5577440000000  0.4723900000000  0.5139720000000 1.0
C      1  0.4109460000000  0.4862220000000  0.5831060000000 1.0
C      1  0.4387480000000  0.5719280000000  0.5324920000000 1.0
C      1  0.5472630000000  0.5419750000000  0.5202070000000 1.0
C      1  0.5710590000000  0.4964060000000  0.5794190000000 1.0
C      1  0.4984880000000  0.5973980000000  0.5623740000000 1.0
C      1  0.4739180000000  0.6061840000000  0.5405670000000 1.0
C      1  0.4921300000000  0.4959870000000  0.4900250000000 1.0
C      1  0.5725420000000  0.4642660000000  0.5680570000000 1.0
C      1  0.5673190000000  0.5789430000000  0.5690020000000 1.0
C      1  0.4293670000000  0.4912460000000  0.4136610000000 1.0
C      1  0.5501170000000  0.5148500000000  0.4363590000000 1.0
C      1  0.6073870000000  0.5140340000000  0.5419420000000 1.0
C      1  0.5673260000000  0.5148020000000  0.5158640000000 1.0
C      1  0.4442810000000  0.4829300000000  0.5890080000000 1.0
C      1  0.4655800000000  0.4898560000000  0.5226380000000 1.0
C      1  0.5982530000000  0.5098570000000  0.4486600000000 1.0
C      1  0.4677860000000  0.4541310000000  0.5025300000000 1.0
C      1  0.5212420000000  0.5020260000000  0.5286110000000 1.0
C      1  0.5519350000000  0.6039730000000  0.4981310000000 1.0
C      1  0.4218340000000  0.5087940000000  0.4618870000000 1.0
C      1  0.5406860000000  0.4340840000000  0.4462390000000 1.0
C      1  0.5348620000000  0.4478300000000  0.5356510000000 1.0
C      1  0.5228190000000  0.4310950000000  0.4186910000000 1.0
C      1  0.5188370000000  0.4543410000000  0.3926410000000 1.0
C      1  0.4332390000000  0.4242740000000  0.4174800000000 1.0
C      1  0.5401570000000  0.4871100000000  0.5687040000000 1.0
C      1  0.5436520000000  0.5549730000000  0.4760770000000 1.0
C      1  0.5082530000000  0.3888180000000  0.5156600000000 1.0
C      1  0.5413860000000  0.4582300000000  0.4148010000000 1.0
C      1  0.4597460000000  0.5904830000000  0.4681980000000 1.0
C      1  0.5271300000000  0.6053110000000  0.5538100000000 1.0
C      1  0.4875090000000  0.4796400000000  0.6082310000000 1.0
C      1  0.5196050000000  0.4733220000000  0.5467700000000 1.0
C      1  0.4661500000000  0.4038930000000  0.4655480000000 1.0
C      1  0.4889060000000  0.5765990000000  0.4569720000000 1.0
C      1  0.5195240000000  0.5136610000000  0.5737530000000 1.0
C      1  0.4834050000000  0.5507060000000  0.4385330000000 1.0
C      1  0.4628840000000  0.4016170000000  0.4955990000000 1.0
C      1  0.5665940000000  0.4458100000000  0.4431700000000 1.0
C      1  0.5273410000000  0.4485070000000  0.4693130000000 1.0
C      1  0.4246240000000  0.5490820000000  0.5533410000000 1.0
C      1  0.4109860000000  0.5446860000000  0.5236720000000 1.0
C      1  0.4803680000000  0.5967420000000  0.4926100000000 1.0
C      1  0.5370660000000  0.5247610000000  0.5468150000000 1.0
C      1  0.4445650000000  0.4091880000000  0.4459650000000 1.0
C      1  0.5093570000000  0.5099620000000  0.3949020000000 1.0
C      1  0.4707810000000  0.3931480000000  0.5445470000000 1.0
C      1  0.4600650000000  0.4848850000000  0.4925650000000 1.0
C      1  0.5013190000000  0.4333490000000  0.4833270000000 1.0
C      1  0.4578510000000  0.5004340000000  0.4297850000000 1.0
C      1  0.4500720000000  0.5347280000000  0.5808380000000 1.0
C      1  0.5849410000000  0.4890960000000  0.5022530000000 1.0
C      1  0.4572590000000  0.5241550000000  0.4984120000000 1.0
C      1  0.4209770000000  0.4664070000000  0.4636480000000 1.0
C      1  0.4478760000000  0.4656290000000  0.4461930000000 1.0
C      1  0.5224660000000  0.3871860000000  0.5401500000000 1.0
C      1  0.5264990000000  0.5184940000000  0.4606480000000 1.0
C      1  0.6125280000000  0.5254330000000  0.5690460000000 1.0
C      1  0.5097690000000  0.4784940000000  0.3805540000000 1.0
C      1  0.5632910000000  0.4353840000000  0.5738970000000 1.0
C      1  0.5935680000000  0.4894230000000  0.5412330000000 1.0
C      1  0.5030980000000  0.4362600000000  0.5318770000000 1.0
C      1  0.5800260000000  0.4870120000000  0.4338340000000 1.0
C      1  0.5819250000000  0.5395930000000  0.4467140000000 1.0
C      1  0.4757140000000  0.5149240000000  0.3956780000000 1.0
C      1  0.5000180000000  0.5502120000000  0.5897350000000 1.0
C      1  0.4657870000000  0.5934440000000  0.5710310000000 1.0
C      1  0.4618950000000  0.5611440000000  0.4843010000000 1.0
C      1  0.4099800000000  0.4876650000000  0.4394950000000 1.0
C      1  0.5901230000000  0.5673620000000  0.5196590000000 1.0
C      1  0.4356860000000  0.4532160000000  0.4913310000000 1.0
C      1  0.5586550000000  0.5286880000000  0.4064600000000 1.0
C      1  0.4320290000000  0.4072090000000  0.5038420000000 1.0
C      1  0.4804420000000  0.3863370000000  0.5182240000000 1.0
C      1  0.4305670000000  0.5765430000000  0.4576540000000 1.0
C      1  0.4589060000000  0.4377600000000  0.4376850000000 1.0
C      1  0.4976640000000  0.5656250000000  0.4115090000000 1.0
C      1  0.4290010000000  0.5718210000000  0.4300580000000 1.0
C      1  0.4827130000000  0.4532630000000  0.5531730000000 1.0
C      1  0.4705600000000  0.5446680000000  0.4076250000000 1.0
C      1  0.5012510000000  0.5017330000000  0.5999700000000 1.0
C      1  0.5469650000000  0.4223410000000  0.5011380000000 1.0
C      1  0.4392180000000  0.5455770000000  0.4181140000000 1.0
C      1  0.4565830000000  0.5464310000000  0.4541110000000 1.0
C      1  0.4419010000000  0.5986720000000  0.5395760000000 1.0
C      1  0.4494620000000  0.5633590000000  0.5699820000000 1.0
C      1  0.4322300000000  0.4582550000000  0.4169200000000 1.0
C      1  0.5013010000000  0.4589610000000  0.5057040000000 1.0
C      1  0.4728810000000  0.4848620000000  0.4553360000000 1.0
C      1  0.4741340000000  0.5677900000000  0.5503220000000 1.0
C      1  0.4423160000000  0.5186090000000  0.3979290000000 1.0
C      1  0.4446740000000  0.4930630000000  0.5565450000000 1.0
C      1  0.4748840000000  0.5151280000000  0.4707480000000 1.0
C      1  0.4903310000000  0.4168450000000  0.4584960000000 1.0
C      1  0.5362430000000  0.4551310000000  0.6104980000000 1.0
C      1  0.4525490000000  0.4177010000000  0.5428320000000 1.0
C      1  0.4284160000000  0.5184270000000  0.5154820000000 1.0
C      1  0.5990570000000  0.4632170000000  0.5289820000000 1.0
C      1  0.5642440000000  0.4892400000000  0.4050960000000 1.0
C      1  0.4048890000000  0.4928170000000  0.5562170000000 1.0
C      1  0.5449960000000  0.5940720000000  0.5304600000000 1.0
C      1  0.5217450000000  0.4424030000000  0.5904230000000 1.0
C      1  0.4523000000000  0.5119380000000  0.6048620000000 1.0
C      1  0.5160270000000  0.5782630000000  0.5811020000000 1.0
C      1  0.4753520000000  0.5180490000000  0.5264970000000 1.0
C      1  0.5483890000000  0.5193770000000  0.5908120000000 1.0
C      1  0.5323450000000  0.5476750000000  0.5940300000000 1.0
C      1  0.4900870000000  0.5428330000000  0.4843080000000 1.0
C      1  0.5907860000000  0.5746270000000  0.4880580000000 1.0
C      1  0.4796220000000  0.4186990000000  0.4019640000000 1.0
C      1  0.5658070000000  0.5398040000000  0.5554540000000 1.0
C      1  0.5741200000000  0.4280810000000  0.5135550000000 1.0
C      1  0.3968400000000  0.4603830000000  0.4860420000000 1.0
C      1  0.5172400000000  0.4171860000000  0.5074980000000 1.0
C      1  0.5630800000000  0.4962720000000  0.4618380000000 1.0
C      1  0.4915550000000  0.4339940000000  0.4290120000000 1.0
C      1  0.4948690000000  0.4676180000000  0.4267900000000 1.0
C      1  0.5549170000000  0.4519610000000  0.4878950000000 1.0
C      1  0.5681560000000  0.5501540000000  0.4254610000000 1.0
C      1  0.5153860000000  0.4141820000000  0.5546660000000 1.0
C      1  0.4730780000000  0.4808000000000  0.5706540000000 1.0
END
