TITL C-2847947-6848-563 -6.02399044050708e-07 125000 -91.0983695700765 0 0 17 (C1) n - 1
REM
REM in /home/bkarasulu/work/CARBON/AIRSS/Generating-Clusters/AIREBO/with-SteepDescent/Only-C1/SD-CG-opt/Try1-1.4A-POS3A/HFTN-CG
REM
REM
REM
REM
REM
REM ./C.cell (11c1c37f851c82e70ff6c80c92926a4b)
REM
REM compiler GCC version 9.2.1 20190827 (Red Hat 9.2.1-1)
REM options -cpp -mtune=generic -march=x86-64 -g -O0 -fpre-include=/usr/include/finclude/math-vector-fortran.h
REM seed -1390726133 -98145116 -326701381 -694849678 -1740008787 1031863776 2128159353 -2106596001 1685549903 -1959642852 1377011980 1978261511 1265796168 -2130257107 665561449 1585497385 -1156274330 1384683267 -809546303 767005253 1647330809 -634192083 -1420104444 -390785184 -1037878220 -1859713835 -1086469551 1034175894 -1784958441 -1772497964 422770661 1210849815 1780112933
REM
CELL 1.54180   50.00000   50.00000   50.00000   90.00000   90.00000   90.00000
LATT -1
SFAC C  
C      1  0.4895470000000  0.5355990000000  0.5652350000000 1.0
C      1  0.5236070000000  0.5410300000000  0.5076370000000 1.0
C      1  0.4927800000000  0.5083610000000  0.5261840000000 1.0
C      1  0.5189480000000  0.5158850000000  0.5183270000000 1.0
C      1  0.4815620000000  0.4840880000000  0.5168860000000 1.0
C      1  0.4520340000000  0.5307190000000  0.5369800000000 1.0
C      1  0.5403790000000  0.4976660000000  0.5219510000000 1.0
C      1  0.4853850000000  0.4667480000000  0.4109270000000 1.0
C      1  0.5436570000000  0.4857780000000  0.5460040000000 1.0
C      1  0.4836020000000  0.4779720000000  0.4899140000000 1.0
C      1  0.4878480000000  0.4644260000000  0.3849350000000 1.0
C      1  0.4854630000000  0.4694060000000  0.4374330000000 1.0
C      1  0.4777660000000  0.5252790000000  0.5432070000000 1.0
C      1  0.4832580000000  0.4733530000000  0.4636850000000 1.0
C      1  0.5275660000000  0.5637610000000  0.4952050000000 1.0
C      1  0.5570490000000  0.4927130000000  0.5012590000000 1.0
C      1  0.4695510000000  0.4672150000000  0.5342320000000 1.0
END
