TITL C-2847959-7740-372 -0.00262234410685571 125000 -694.860978895309 0 0 129 (C1) n - 1
REM
REM in /home/bkarasulu/work/CARBON/AIRSS/Generating-Clusters/AIREBO/with-SteepDescent/Only-C1/SD-CG-opt/Try1-1.4A-POS3A/HFTN-CG
REM
REM
REM
REM
REM
REM ./C.cell (11c1c37f851c82e70ff6c80c92926a4b)
REM
REM compiler GCC version 9.2.1 20190827 (Red Hat 9.2.1-1)
REM options -cpp -mtune=generic -march=x86-64 -g -O0 -fpre-include=/usr/include/finclude/math-vector-fortran.h
REM seed -2051166846 -1585353252 792024761 -471660786 -2113713170 1672121587 1687221159 337621035 -1839342450 -1958281901 -1733706759 -2105132910 -843745961 441130645 -1542571953 1115091270 -976278583 -2054400704 728517920 132823428 1851664105 -1690004626 -1791968480 -1775596228 529070526 -745810802 2018752893 236764276 1542909673 756857664 571455684 -530774343 -214155812
REM
CELL 1.54180   50.00000   50.00000   50.00000   90.00000   90.00000   90.00000
LATT -1
SFAC C  
C      1  0.4679840000000  0.5261910000000  0.4753420000000 1.0
C      1  0.5433120000000  0.5744790000000  0.4829700000000 1.0
C      1  0.4849990000000  0.4702760000000  0.4386640000000 1.0
C      1  0.4644140000000  0.4878560000000  0.5860300000000 1.0
C      1  0.4385680000000  0.4329940000000  0.4580760000000 1.0
C      1  0.5052550000000  0.4618130000000  0.4148140000000 1.0
C      1  0.5054950000000  0.4853510000000  0.3987350000000 1.0
C      1  0.4943260000000  0.4058580000000  0.4707010000000 1.0
C      1  0.4545400000000  0.5838160000000  0.5308540000000 1.0
C      1  0.4862750000000  0.4489250000000  0.4723000000000 1.0
C      1  0.5143500000000  0.4223980000000  0.5325150000000 1.0
C      1  0.5825510000000  0.4697420000000  0.4658170000000 1.0
C      1  0.5426680000000  0.4544480000000  0.4292930000000 1.0
C      1  0.5352340000000  0.5097320000000  0.6176090000000 1.0
C      1  0.5014550000000  0.4267920000000  0.5787890000000 1.0
C      1  0.5093840000000  0.5715430000000  0.5850440000000 1.0
C      1  0.5346970000000  0.5822380000000  0.5515730000000 1.0
C      1  0.5713640000000  0.4841850000000  0.5168630000000 1.0
C      1  0.3880880000000  0.4902210000000  0.5140740000000 1.0
C      1  0.5990450000000  0.4803880000000  0.5315780000000 1.0
C      1  0.5477030000000  0.5277790000000  0.5958850000000 1.0
C      1  0.5689470000000  0.5565910000000  0.5222790000000 1.0
C      1  0.5413420000000  0.4876570000000  0.4364840000000 1.0
C      1  0.5000530000000  0.5590450000000  0.4978370000000 1.0
C      1  0.4651360000000  0.5424730000000  0.4258090000000 1.0
C      1  0.5093930000000  0.4087750000000  0.5596380000000 1.0
C      1  0.5401330000000  0.5389460000000  0.5009060000000 1.0
C      1  0.5252310000000  0.4764320000000  0.5596250000000 1.0
C      1  0.5263510000000  0.5893210000000  0.5069080000000 1.0
C      1  0.4703220000000  0.5671680000000  0.4724500000000 1.0
C      1  0.4958440000000  0.4999490000000  0.5905340000000 1.0
C      1  0.5374670000000  0.5755770000000  0.4284430000000 1.0
C      1  0.5071570000000  0.5246570000000  0.4036020000000 1.0
C      1  0.5057350000000  0.5002070000000  0.4919860000000 1.0
C      1  0.4812580000000  0.5074750000000  0.3977880000000 1.0
C      1  0.4288330000000  0.5461060000000  0.4707020000000 1.0
C      1  0.4171980000000  0.5040700000000  0.3891810000000 1.0
C      1  0.4580990000000  0.5206020000000  0.4089690000000 1.0
C      1  0.4402170000000  0.5175880000000  0.4577740000000 1.0
C      1  0.4295320000000  0.5235980000000  0.5536570000000 1.0
C      1  0.5715300000000  0.5623560000000  0.4942420000000 1.0
C      1  0.4556940000000  0.4178950000000  0.5246260000000 1.0
C      1  0.4865820000000  0.5818670000000  0.5742870000000 1.0
C      1  0.4012410000000  0.5573310000000  0.4662810000000 1.0
C      1  0.5779730000000  0.5104450000000  0.4567130000000 1.0
C      1  0.4958590000000  0.5567620000000  0.5297620000000 1.0
C      1  0.5043430000000  0.5090980000000  0.5229820000000 1.0
C      1  0.5521610000000  0.5170180000000  0.4778500000000 1.0
C      1  0.4837230000000  0.4161510000000  0.4437620000000 1.0
C      1  0.5208660000000  0.4378160000000  0.4962490000000 1.0
C      1  0.4742190000000  0.5339800000000  0.5312350000000 1.0
C      1  0.4316530000000  0.5103750000000  0.4110020000000 1.0
C      1  0.4664250000000  0.4562670000000  0.5222100000000 1.0
C      1  0.4169490000000  0.5404330000000  0.5324350000000 1.0
C      1  0.4377940000000  0.5644800000000  0.5226980000000 1.0
C      1  0.4888400000000  0.4707090000000  0.4926490000000 1.0
C      1  0.4334610000000  0.5034640000000  0.5010950000000 1.0
C      1  0.5521310000000  0.4469330000000  0.5879710000000 1.0
C      1  0.5800490000000  0.5364380000000  0.4792670000000 1.0
C      1  0.5369310000000  0.5172090000000  0.4474460000000 1.0
C      1  0.5563550000000  0.4788310000000  0.5469020000000 1.0
C      1  0.4588810000000  0.4826330000000  0.5028840000000 1.0
C      1  0.4526780000000  0.5541300000000  0.4482940000000 1.0
C      1  0.5256010000000  0.5513920000000  0.5873270000000 1.0
C      1  0.5043130000000  0.5864130000000  0.4830820000000 1.0
C      1  0.4931310000000  0.4630530000000  0.5403580000000 1.0
C      1  0.4947820000000  0.5686440000000  0.4486950000000 1.0
C      1  0.4562620000000  0.5300710000000  0.5584940000000 1.0
C      1  0.4213610000000  0.4571080000000  0.4636090000000 1.0
C      1  0.5684150000000  0.4447820000000  0.4687750000000 1.0
C      1  0.4660120000000  0.4799820000000  0.5468500000000 1.0
C      1  0.4964690000000  0.5434210000000  0.4284670000000 1.0
C      1  0.4670340000000  0.4454860000000  0.4444220000000 1.0
C      1  0.5325580000000  0.4503600000000  0.5390610000000 1.0
C      1  0.4214890000000  0.4987620000000  0.5619830000000 1.0
C      1  0.5134910000000  0.4514920000000  0.5791560000000 1.0
C      1  0.5311340000000  0.4651020000000  0.4787550000000 1.0
C      1  0.5187970000000  0.4899350000000  0.6086870000000 1.0
C      1  0.4692650000000  0.5188620000000  0.5803150000000 1.0
C      1  0.5752980000000  0.4862790000000  0.4378170000000 1.0
C      1  0.5065440000000  0.5218420000000  0.4473550000000 1.0
C      1  0.3997950000000  0.4949750000000  0.4478960000000 1.0
C      1  0.5372610000000  0.4932240000000  0.4895560000000 1.0
C      1  0.4680440000000  0.5478470000000  0.5003690000000 1.0
C      1  0.4923080000000  0.4955450000000  0.4610880000000 1.0
C      1  0.4045410000000  0.4780490000000  0.4702380000000 1.0
C      1  0.4991240000000  0.5310360000000  0.4785350000000 1.0
C      1  0.3896150000000  0.5438580000000  0.5326590000000 1.0
C      1  0.5145240000000  0.4322200000000  0.4633610000000 1.0
C      1  0.5309610000000  0.5039790000000  0.4015220000000 1.0
C      1  0.4263620000000  0.4115730000000  0.4451940000000 1.0
C      1  0.5459850000000  0.4390460000000  0.4523960000000 1.0
C      1  0.5666440000000  0.4409800000000  0.5291410000000 1.0
C      1  0.4333370000000  0.4463740000000  0.5607280000000 1.0
C      1  0.5565210000000  0.4417110000000  0.5615960000000 1.0
C      1  0.4357090000000  0.5374310000000  0.5021760000000 1.0
C      1  0.4843140000000  0.5050130000000  0.5454910000000 1.0
C      1  0.5326850000000  0.5271950000000  0.5653880000000 1.0
C      1  0.4773320000000  0.5998950000000  0.4781720000000 1.0
C      1  0.5893860000000  0.4865320000000  0.4881110000000 1.0
C      1  0.5042580000000  0.4362630000000  0.4309390000000 1.0
C      1  0.5292940000000  0.5606440000000  0.5249460000000 1.0
C      1  0.5158080000000  0.4723550000000  0.4529250000000 1.0
C      1  0.5121560000000  0.5036450000000  0.5631190000000 1.0
C      1  0.5237390000000  0.5845380000000  0.4567870000000 1.0
C      1  0.4752180000000  0.4068370000000  0.4988160000000 1.0
C      1  0.5140720000000  0.4654630000000  0.5148380000000 1.0
C      1  0.5318660000000  0.4928850000000  0.5213380000000 1.0
C      1  0.5559400000000  0.5144840000000  0.5177580000000 1.0
C      1  0.4426350000000  0.4759470000000  0.5666050000000 1.0
C      1  0.5722560000000  0.5138630000000  0.5815800000000 1.0
C      1  0.5301610000000  0.4653530000000  0.6009760000000 1.0
C      1  0.6019390000000  0.5117240000000  0.4874000000000 1.0
C      1  0.5693950000000  0.4290590000000  0.4974180000000 1.0
C      1  0.4869340000000  0.4291570000000  0.5203960000000 1.0
C      1  0.5400260000000  0.4182520000000  0.5105760000000 1.0
C      1  0.5591370000000  0.4937970000000  0.4081570000000 1.0
C      1  0.5115250000000  0.5948950000000  0.5351390000000 1.0
C      1  0.5723680000000  0.4930040000000  0.5675670000000 1.0
C      1  0.4225600000000  0.5071030000000  0.4368080000000 1.0
C      1  0.4622290000000  0.4277900000000  0.4789570000000 1.0
C      1  0.4080900000000  0.4908470000000  0.4959620000000 1.0
C      1  0.4833310000000  0.5827590000000  0.5430400000000 1.0
C      1  0.4608040000000  0.4953280000000  0.4731740000000 1.0
C      1  0.4419790000000  0.4249650000000  0.5461130000000 1.0
C      1  0.5278040000000  0.5478110000000  0.4713110000000 1.0
C      1  0.5539710000000  0.4589170000000  0.5031810000000 1.0
C      1  0.5481420000000  0.5375690000000  0.5413290000000 1.0
C      1  0.5396660000000  0.5493980000000  0.4410750000000 1.0
END
