TITL C-2847953-8112-67 0.000332489448107349 125000 -1016.0873317069 0 0 190 (C1) n - 1
REM
REM in /home/bkarasulu/work/CARBON/AIRSS/Generating-Clusters/AIREBO/with-SteepDescent/Only-C1/SD-CG-opt/Try1-1.4A-POS3A/HFTN-CG
REM
REM
REM
REM
REM
REM ./C.cell (11c1c37f851c82e70ff6c80c92926a4b)
REM
REM compiler GCC version 9.2.1 20190827 (Red Hat 9.2.1-1)
REM options -cpp -mtune=generic -march=x86-64 -g -O0 -fpre-include=/usr/include/finclude/math-vector-fortran.h
REM seed -2045516036 1408928519 271536600 -1968023649 -430278846 -348892214 -2070924326 125642717 683175515 1080013020 -1292592275 1101728764 1894976417 -635285946 1446162922 -886602930 -1436763356 482938040 -1237813995 -865847029 -548908745 1185021556 -1799542969 -1613846236 -1672243988 508050724 -2075344929 -1368933327 1864710381 -1284850927 1153257850 603978599 1882267787
REM
CELL 1.54180   50.00000   50.00000   50.00000   90.00000   90.00000   90.00000
LATT -1
SFAC C  
C      1  0.4518440000000  0.5222520000000  0.4709790000000 1.0
C      1  0.5825870000000  0.5523660000000  0.5567230000000 1.0
C      1  0.4435700000000  0.5205540000000  0.5815950000000 1.0
C      1  0.3951040000000  0.5493330000000  0.4821790000000 1.0
C      1  0.4772100000000  0.5371970000000  0.4767270000000 1.0
C      1  0.4573510000000  0.4660720000000  0.5433740000000 1.0
C      1  0.4196870000000  0.5273000000000  0.4478890000000 1.0
C      1  0.4956290000000  0.5246260000000  0.3968890000000 1.0
C      1  0.5533920000000  0.5127000000000  0.4846050000000 1.0
C      1  0.5036200000000  0.5139370000000  0.4412460000000 1.0
C      1  0.4156700000000  0.4855990000000  0.4181310000000 1.0
C      1  0.4101990000000  0.5069120000000  0.4633750000000 1.0
C      1  0.5026690000000  0.5147060000000  0.4752740000000 1.0
C      1  0.4153500000000  0.4598200000000  0.4942600000000 1.0
C      1  0.4586000000000  0.4947640000000  0.4880940000000 1.0
C      1  0.6083570000000  0.4633780000000  0.5080130000000 1.0
C      1  0.5797490000000  0.4780980000000  0.5610090000000 1.0
C      1  0.6198500000000  0.4941790000000  0.5030050000000 1.0
C      1  0.4931820000000  0.5091580000000  0.5464550000000 1.0
C      1  0.5831090000000  0.4991320000000  0.4814160000000 1.0
C      1  0.5307110000000  0.5620660000000  0.5867600000000 1.0
C      1  0.5878940000000  0.4616210000000  0.4486470000000 1.0
C      1  0.5518260000000  0.5570070000000  0.5633640000000 1.0
C      1  0.4985710000000  0.5546240000000  0.4612190000000 1.0
C      1  0.5457800000000  0.4359680000000  0.4562530000000 1.0
C      1  0.4061740000000  0.4874690000000  0.5363290000000 1.0
C      1  0.5113320000000  0.4282790000000  0.5127330000000 1.0
C      1  0.5955260000000  0.4323330000000  0.5144670000000 1.0
C      1  0.5455080000000  0.5330780000000  0.4056970000000 1.0
C      1  0.5377040000000  0.4076710000000  0.5188590000000 1.0
C      1  0.5673220000000  0.4167210000000  0.5048190000000 1.0
C      1  0.4752250000000  0.5908100000000  0.5578730000000 1.0
C      1  0.4943000000000  0.5430500000000  0.5443650000000 1.0
C      1  0.4073450000000  0.5520930000000  0.5082190000000 1.0
C      1  0.4839510000000  0.4424450000000  0.4108470000000 1.0
C      1  0.5464620000000  0.4887820000000  0.3843480000000 1.0
C      1  0.4819550000000  0.5700440000000  0.5318050000000 1.0
C      1  0.4669470000000  0.4139310000000  0.4491250000000 1.0
C      1  0.4976610000000  0.6063180000000  0.5372620000000 1.0
C      1  0.5656140000000  0.5334510000000  0.5341310000000 1.0
C      1  0.5575490000000  0.5688570000000  0.4532670000000 1.0
C      1  0.4977540000000  0.4653530000000  0.4884930000000 1.0
C      1  0.4541990000000  0.4454320000000  0.4164660000000 1.0
C      1  0.3988230000000  0.4838080000000  0.4832960000000 1.0
C      1  0.4408210000000  0.4768220000000  0.5199340000000 1.0
C      1  0.4162300000000  0.4196330000000  0.4807170000000 1.0
C      1  0.4559270000000  0.5732570000000  0.4400470000000 1.0
C      1  0.4081510000000  0.4548220000000  0.5264580000000 1.0
C      1  0.4464220000000  0.4395450000000  0.5611940000000 1.0
C      1  0.4700060000000  0.5624170000000  0.4944420000000 1.0
C      1  0.4878670000000  0.5331410000000  0.5150520000000 1.0
C      1  0.5790360000000  0.5097370000000  0.4526980000000 1.0
C      1  0.4453820000000  0.4757440000000  0.5890640000000 1.0
C      1  0.5931340000000  0.4980080000000  0.5948240000000 1.0
C      1  0.4185610000000  0.5595030000000  0.5641750000000 1.0
C      1  0.5443560000000  0.4081420000000  0.5508320000000 1.0
C      1  0.4508290000000  0.5973650000000  0.4954800000000 1.0
C      1  0.4744410000000  0.4986300000000  0.4327480000000 1.0
C      1  0.5238480000000  0.5230940000000  0.6129310000000 1.0
C      1  0.4096600000000  0.5520890000000  0.4571910000000 1.0
C      1  0.5345020000000  0.5597030000000  0.4309200000000 1.0
C      1  0.4770170000000  0.4443970000000  0.5001150000000 1.0
C      1  0.5244290000000  0.4988570000000  0.4960500000000 1.0
C      1  0.5982430000000  0.5187570000000  0.5021680000000 1.0
C      1  0.5947720000000  0.5062200000000  0.5316910000000 1.0
C      1  0.4799010000000  0.4191000000000  0.5226540000000 1.0
C      1  0.6032780000000  0.5314540000000  0.5528310000000 1.0
C      1  0.5347720000000  0.4365070000000  0.5764920000000 1.0
C      1  0.4467830000000  0.5718180000000  0.5573500000000 1.0
C      1  0.4603340000000  0.3999800000000  0.4763230000000 1.0
C      1  0.3986080000000  0.4326950000000  0.5017630000000 1.0
C      1  0.5489030000000  0.5978770000000  0.5253400000000 1.0
C      1  0.5266320000000  0.6154480000000  0.5218090000000 1.0
C      1  0.5350650000000  0.5262930000000  0.4373470000000 1.0
C      1  0.4251250000000  0.5742360000000  0.4521450000000 1.0
C      1  0.4795100000000  0.6019880000000  0.4802460000000 1.0
C      1  0.5390060000000  0.5187250000000  0.3842310000000 1.0
C      1  0.4997170000000  0.6145850000000  0.4559740000000 1.0
C      1  0.5098450000000  0.5507250000000  0.4092600000000 1.0
C      1  0.4194260000000  0.4974730000000  0.5066540000000 1.0
C      1  0.4749920000000  0.4974820000000  0.3987630000000 1.0
C      1  0.4513760000000  0.5228810000000  0.4392430000000 1.0
C      1  0.5694850000000  0.4548030000000  0.5835780000000 1.0
C      1  0.5307470000000  0.5041950000000  0.5415780000000 1.0
C      1  0.5135310000000  0.4869510000000  0.4265970000000 1.0
C      1  0.5652320000000  0.4214910000000  0.5748090000000 1.0
C      1  0.3955830000000  0.5363730000000  0.5294510000000 1.0
C      1  0.4846450000000  0.4947380000000  0.6025410000000 1.0
C      1  0.4713300000000  0.5457230000000  0.3998300000000 1.0
C      1  0.5302520000000  0.4667660000000  0.4864260000000 1.0
C      1  0.5261930000000  0.4746530000000  0.4535970000000 1.0
C      1  0.5620750000000  0.5064750000000  0.5546180000000 1.0
C      1  0.4701900000000  0.4261800000000  0.5750710000000 1.0
C      1  0.4327420000000  0.4352950000000  0.5341700000000 1.0
C      1  0.5432970000000  0.5006680000000  0.5963070000000 1.0
C      1  0.4592780000000  0.6149120000000  0.5302460000000 1.0
C      1  0.4394390000000  0.4080800000000  0.4929170000000 1.0
C      1  0.5294110000000  0.5430190000000  0.4664260000000 1.0
C      1  0.4592750000000  0.5484550000000  0.4241690000000 1.0
C      1  0.5064760000000  0.4041490000000  0.4584740000000 1.0
C      1  0.5119890000000  0.5786970000000  0.5265590000000 1.0
C      1  0.4383230000000  0.4606580000000  0.4581060000000 1.0
C      1  0.5397970000000  0.5702310000000  0.5400630000000 1.0
C      1  0.5714560000000  0.5802270000000  0.5061170000000 1.0
C      1  0.4679350000000  0.4463450000000  0.4541350000000 1.0
C      1  0.5942640000000  0.4756950000000  0.4236470000000 1.0
C      1  0.4819170000000  0.6185160000000  0.5097030000000 1.0
C      1  0.4634930000000  0.5176670000000  0.5427210000000 1.0
C      1  0.5185380000000  0.5945170000000  0.4759770000000 1.0
C      1  0.5122670000000  0.3981050000000  0.4971770000000 1.0
C      1  0.4148620000000  0.4820840000000  0.4469330000000 1.0
C      1  0.5617100000000  0.5447750000000  0.4769220000000 1.0
C      1  0.5226860000000  0.4339670000000  0.4811640000000 1.0
C      1  0.4997680000000  0.5010960000000  0.5758790000000 1.0
C      1  0.5657070000000  0.4145430000000  0.4735940000000 1.0
C      1  0.3794390000000  0.5057430000000  0.4968430000000 1.0
C      1  0.3742810000000  0.5294270000000  0.4821020000000 1.0
C      1  0.5331010000000  0.4622930000000  0.4163930000000 1.0
C      1  0.5275000000000  0.4554190000000  0.5188130000000 1.0
C      1  0.5757060000000  0.4814970000000  0.5216280000000 1.0
C      1  0.4850490000000  0.4891790000000  0.4765950000000 1.0
C      1  0.4322780000000  0.5231510000000  0.4975210000000 1.0
C      1  0.5006420000000  0.5786510000000  0.4223690000000 1.0
C      1  0.5242300000000  0.4839390000000  0.5779550000000 1.0
C      1  0.5576330000000  0.4458040000000  0.5530070000000 1.0
C      1  0.5467620000000  0.4794950000000  0.5299340000000 1.0
C      1  0.4490470000000  0.4622090000000  0.4903570000000 1.0
C      1  0.4752820000000  0.5704980000000  0.5852620000000 1.0
C      1  0.5626890000000  0.4782400000000  0.4112670000000 1.0
C      1  0.5544300000000  0.4980340000000  0.4376710000000 1.0
C      1  0.5123460000000  0.5401370000000  0.4956960000000 1.0
C      1  0.5420020000000  0.4301840000000  0.4229610000000 1.0
C      1  0.5836490000000  0.5375260000000  0.4519730000000 1.0
C      1  0.5960370000000  0.4724080000000  0.4795790000000 1.0
C      1  0.4870410000000  0.4164190000000  0.4835020000000 1.0
C      1  0.4298360000000  0.4533910000000  0.5837380000000 1.0
C      1  0.4688600000000  0.4954630000000  0.3665900000000 1.0
C      1  0.4611150000000  0.5185280000000  0.5116250000000 1.0
C      1  0.3856240000000  0.5101890000000  0.5234940000000 1.0
C      1  0.5793550000000  0.5467830000000  0.5059530000000 1.0
C      1  0.5452740000000  0.5268630000000  0.5747150000000 1.0
C      1  0.5063210000000  0.4891650000000  0.5232830000000 1.0
C      1  0.5154070000000  0.4366750000000  0.4031850000000 1.0
C      1  0.4856280000000  0.4722040000000  0.4510120000000 1.0
C      1  0.4704990000000  0.4716920000000  0.6002700000000 1.0
C      1  0.4216920000000  0.4320430000000  0.4554220000000 1.0
C      1  0.4511900000000  0.5822570000000  0.5252930000000 1.0
C      1  0.4866540000000  0.4502080000000  0.5867890000000 1.0
C      1  0.5691850000000  0.4842420000000  0.5989470000000 1.0
C      1  0.5233630000000  0.4660530000000  0.5508530000000 1.0
C      1  0.4415690000000  0.4247780000000  0.4334630000000 1.0
C      1  0.4717450000000  0.5373150000000  0.5918800000000 1.0
C      1  0.5239550000000  0.5879290000000  0.4430610000000 1.0
C      1  0.4412440000000  0.5531630000000  0.5107720000000 1.0
C      1  0.4581600000000  0.5434390000000  0.5613900000000 1.0
C      1  0.5224330000000  0.6214480000000  0.4954190000000 1.0
C      1  0.4872350000000  0.4613030000000  0.5278360000000 1.0
C      1  0.4415280000000  0.4947150000000  0.4063370000000 1.0
C      1  0.4181930000000  0.5072340000000  0.5613440000000 1.0
C      1  0.4867630000000  0.4050370000000  0.5663230000000 1.0
C      1  0.4992570000000  0.4453200000000  0.5553740000000 1.0
C      1  0.5023970000000  0.5726490000000  0.4964550000000 1.0
C      1  0.5789610000000  0.4444050000000  0.4767980000000 1.0
C      1  0.4494590000000  0.4938640000000  0.5613140000000 1.0
C      1  0.4500570000000  0.5764340000000  0.4723120000000 1.0
C      1  0.5423630000000  0.5318700000000  0.5093730000000 1.0
C      1  0.5076310000000  0.4474410000000  0.4541240000000 1.0
C      1  0.5176510000000  0.4561290000000  0.5891300000000 1.0
C      1  0.5580300000000  0.4415710000000  0.5244960000000 1.0
C      1  0.5012070000000  0.5566460000000  0.5729730000000 1.0
C      1  0.5429990000000  0.5627620000000  0.5077220000000 1.0
C      1  0.4854310000000  0.5833080000000  0.4524300000000 1.0
C      1  0.4970480000000  0.4718220000000  0.4021390000000 1.0
C      1  0.5674850000000  0.4446180000000  0.4067640000000 1.0
C      1  0.4955860000000  0.4246370000000  0.4354920000000 1.0
C      1  0.5567550000000  0.4666750000000  0.4507440000000 1.0
C      1  0.5147940000000  0.4159130000000  0.5625200000000 1.0
C      1  0.4518560000000  0.4733940000000  0.4296210000000 1.0
C      1  0.5132290000000  0.4972200000000  0.3872080000000 1.0
C      1  0.5341210000000  0.5495830000000  0.6108470000000 1.0
C      1  0.4951510000000  0.5221830000000  0.6094390000000 1.0
C      1  0.4797220000000  0.3950460000000  0.5417640000000 1.0
C      1  0.5146830000000  0.5277430000000  0.5744810000000 1.0
C      1  0.5924610000000  0.4575180000000  0.5371120000000 1.0
C      1  0.5483730000000  0.5821740000000  0.4810800000000 1.0
C      1  0.6029850000000  0.5011510000000  0.5643410000000 1.0
C      1  0.4482610000000  0.4211780000000  0.5159440000000 1.0
C      1  0.4083290000000  0.5365980000000  0.5544130000000 1.0
C      1  0.5360890000000  0.4034950000000  0.4590820000000 1.0
C      1  0.5619960000000  0.4617950000000  0.4975450000000 1.0
END
