TITL C-2848502-4955-551 -0.000716944848032783 125000 -771.776098963631 0 0 143 (C1) n - 1
REM
REM in /home/bkarasulu/work/CARBON/AIRSS/Generating-Clusters/AIREBO/with-SteepDescent/Only-C1/SD-CG-opt/Try1-1.4A-POS3A/HFTN-CG
REM
REM
REM
REM
REM
REM ./C.cell (11c1c37f851c82e70ff6c80c92926a4b)
REM
REM compiler GCC version 9.2.1 20190827 (Red Hat 9.2.1-1)
REM options -cpp -mtune=generic -march=x86-64 -g -O0 -fpre-include=/usr/include/finclude/math-vector-fortran.h
REM seed 1347090363 -1746984598 947795421 -345397908 -1209177740 651394317 734569379 -873385346 -1509123483 1318448114 2052929234 668028945 731964962 1361767207 -755182955 1780242466 -70439911 -1364098948 -724143164 -777618311 1600767922 15258165 -757195076 1572283550 -1778488280 1123192324 -812060425 2114964585 -1159601382 1905938032 487749462 -1484327142 1470376900
REM
CELL 1.54180   50.00000   50.00000   50.00000   90.00000   90.00000   90.00000
LATT -1
SFAC C  
C      1  0.5495470000000  0.3999150000000  0.4928550000000 1.0
C      1  0.3953010000000  0.5146670000000  0.4419950000000 1.0
C      1  0.5098960000000  0.4820710000000  0.5836990000000 1.0
C      1  0.4997470000000  0.5590830000000  0.4527690000000 1.0
C      1  0.4683470000000  0.4055820000000  0.4974070000000 1.0
C      1  0.6009420000000  0.4592410000000  0.4882360000000 1.0
C      1  0.5827580000000  0.4957780000000  0.5458330000000 1.0
C      1  0.5435700000000  0.4373530000000  0.4432810000000 1.0
C      1  0.4585720000000  0.4268800000000  0.4561070000000 1.0
C      1  0.4343270000000  0.4748920000000  0.4223000000000 1.0
C      1  0.5441900000000  0.4865490000000  0.4850060000000 1.0
C      1  0.5050340000000  0.4607960000000  0.4152340000000 1.0
C      1  0.4997460000000  0.5723030000000  0.5796060000000 1.0
C      1  0.4807220000000  0.5692430000000  0.5063830000000 1.0
C      1  0.4919760000000  0.4899790000000  0.4607170000000 1.0
C      1  0.4361320000000  0.4945450000000  0.5746320000000 1.0
C      1  0.4535440000000  0.5131750000000  0.5521230000000 1.0
C      1  0.5215770000000  0.4574440000000  0.5903140000000 1.0
C      1  0.5602220000000  0.5103590000000  0.4225690000000 1.0
C      1  0.4731200000000  0.4062450000000  0.5571630000000 1.0
C      1  0.5788260000000  0.4378840000000  0.4844560000000 1.0
C      1  0.5449930000000  0.5089930000000  0.3979000000000 1.0
C      1  0.5738680000000  0.5678540000000  0.5224230000000 1.0
C      1  0.5225540000000  0.5091150000000  0.4358090000000 1.0
C      1  0.4858530000000  0.5938570000000  0.5682140000000 1.0
C      1  0.4669480000000  0.5618210000000  0.4533870000000 1.0
C      1  0.4848320000000  0.4796640000000  0.5714130000000 1.0
C      1  0.5282540000000  0.4854240000000  0.4120110000000 1.0
C      1  0.5261450000000  0.5239020000000  0.4662170000000 1.0
C      1  0.4697640000000  0.5988620000000  0.5454380000000 1.0
C      1  0.5080410000000  0.4333300000000  0.5168590000000 1.0
C      1  0.4795120000000  0.5320770000000  0.5632900000000 1.0
C      1  0.5195350000000  0.4509930000000  0.5427120000000 1.0
C      1  0.5493390000000  0.5308510000000  0.4856130000000 1.0
C      1  0.5391020000000  0.5658620000000  0.5519340000000 1.0
C      1  0.4213990000000  0.4387350000000  0.5247300000000 1.0
C      1  0.5191330000000  0.5655020000000  0.4800420000000 1.0
C      1  0.5419590000000  0.5659340000000  0.4264710000000 1.0
C      1  0.4361620000000  0.4602120000000  0.5053620000000 1.0
C      1  0.5596960000000  0.5517210000000  0.5675290000000 1.0
C      1  0.4916700000000  0.4328140000000  0.4576280000000 1.0
C      1  0.4755710000000  0.4609870000000  0.4676040000000 1.0
C      1  0.4898360000000  0.3906700000000  0.4889440000000 1.0
C      1  0.5198320000000  0.4161120000000  0.5617950000000 1.0
C      1  0.5203600000000  0.5539420000000  0.5181630000000 1.0
C      1  0.4920160000000  0.5539520000000  0.5324480000000 1.0
C      1  0.5126240000000  0.5493820000000  0.3922180000000 1.0
C      1  0.4335550000000  0.4791890000000  0.4702510000000 1.0
C      1  0.4919750000000  0.4343330000000  0.5536450000000 1.0
C      1  0.4538780000000  0.5306040000000  0.4927030000000 1.0
C      1  0.5712300000000  0.5555470000000  0.4938070000000 1.0
C      1  0.5355050000000  0.4748890000000  0.5539020000000 1.0
C      1  0.5736770000000  0.4739500000000  0.4529980000000 1.0
C      1  0.4590870000000  0.4476370000000  0.4931790000000 1.0
C      1  0.4630970000000  0.5146150000000  0.3951220000000 1.0
C      1  0.4953840000000  0.5438390000000  0.4891020000000 1.0
C      1  0.5828370000000  0.5551130000000  0.5477950000000 1.0
C      1  0.4033570000000  0.4577080000000  0.5030270000000 1.0
C      1  0.4231770000000  0.5284890000000  0.5527580000000 1.0
C      1  0.4822660000000  0.4591460000000  0.5325080000000 1.0
C      1  0.5708800000000  0.5059750000000  0.4767810000000 1.0
C      1  0.4659330000000  0.4611820000000  0.5813660000000 1.0
C      1  0.4369610000000  0.5642450000000  0.5325040000000 1.0
C      1  0.4708420000000  0.5113160000000  0.5156220000000 1.0
C      1  0.5118850000000  0.5546590000000  0.5571050000000 1.0
C      1  0.5547470000000  0.5140720000000  0.5285410000000 1.0
C      1  0.5934970000000  0.4819080000000  0.4737020000000 1.0
C      1  0.5548220000000  0.4410410000000  0.5074040000000 1.0
C      1  0.5309580000000  0.4080100000000  0.4480120000000 1.0
C      1  0.4851780000000  0.5375210000000  0.4072550000000 1.0
C      1  0.4063660000000  0.5384430000000  0.5007910000000 1.0
C      1  0.3979050000000  0.5132540000000  0.5114530000000 1.0
C      1  0.4134020000000  0.5635510000000  0.5101820000000 1.0
C      1  0.5074920000000  0.5212220000000  0.5516750000000 1.0
C      1  0.4440400000000  0.4753440000000  0.5913800000000 1.0
C      1  0.5290400000000  0.5838180000000  0.5067440000000 1.0
C      1  0.5353130000000  0.4528550000000  0.4190980000000 1.0
C      1  0.4592020000000  0.4371850000000  0.5623050000000 1.0
C      1  0.5516150000000  0.5726970000000  0.4756730000000 1.0
C      1  0.4600460000000  0.5001830000000  0.4664690000000 1.0
C      1  0.4075370000000  0.4883470000000  0.4901860000000 1.0
C      1  0.5273360000000  0.5093150000000  0.5765370000000 1.0
C      1  0.4282430000000  0.5808170000000  0.4899830000000 1.0
C      1  0.6224480000000  0.4556300000000  0.5045440000000 1.0
C      1  0.4472530000000  0.5369810000000  0.5755870000000 1.0
C      1  0.5329710000000  0.5266610000000  0.5127570000000 1.0
C      1  0.5848120000000  0.5199950000000  0.5242490000000 1.0
C      1  0.5751450000000  0.4700260000000  0.5634940000000 1.0
C      1  0.4098640000000  0.5104080000000  0.4644150000000 1.0
C      1  0.5696920000000  0.4458150000000  0.4551180000000 1.0
C      1  0.5024410000000  0.5107590000000  0.4855660000000 1.0
C      1  0.5651110000000  0.4298510000000  0.5359430000000 1.0
C      1  0.5416270000000  0.4702510000000  0.5094300000000 1.0
C      1  0.5317410000000  0.5681000000000  0.4002980000000 1.0
C      1  0.4497770000000  0.4108460000000  0.4763500000000 1.0
C      1  0.4600900000000  0.5436800000000  0.5380630000000 1.0
C      1  0.4768670000000  0.4316550000000  0.5130000000000 1.0
C      1  0.5276950000000  0.4259550000000  0.4935260000000 1.0
C      1  0.4362350000000  0.5075360000000  0.4133100000000 1.0
C      1  0.5539530000000  0.5824300000000  0.4438860000000 1.0
C      1  0.4927260000000  0.5050710000000  0.4055280000000 1.0
C      1  0.4115550000000  0.4728760000000  0.4465370000000 1.0
C      1  0.5054940000000  0.4348690000000  0.5848460000000 1.0
C      1  0.4927220000000  0.4689770000000  0.4952070000000 1.0
C      1  0.4915610000000  0.4853550000000  0.4273030000000 1.0
C      1  0.4943340000000  0.5279720000000  0.4382070000000 1.0
C      1  0.5491340000000  0.5787630000000  0.5297620000000 1.0
C      1  0.4223320000000  0.4892540000000  0.5452350000000 1.0
C      1  0.5045760000000  0.5091910000000  0.5194960000000 1.0
C      1  0.5873260000000  0.5274190000000  0.4974180000000 1.0
C      1  0.4170350000000  0.4619120000000  0.5622330000000 1.0
C      1  0.5526270000000  0.4504980000000  0.5798680000000 1.0
C      1  0.5200680000000  0.5563990000000  0.5961650000000 1.0
C      1  0.5486140000000  0.4896560000000  0.4457730000000 1.0
C      1  0.5466270000000  0.4260110000000  0.5579860000000 1.0
C      1  0.5535240000000  0.4840450000000  0.5329700000000 1.0
C      1  0.4643480000000  0.6162650000000  0.4994290000000 1.0
C      1  0.5101500000000  0.4755910000000  0.5211850000000 1.0
C      1  0.5397040000000  0.5379600000000  0.5853280000000 1.0
C      1  0.5669560000000  0.6013290000000  0.4645850000000 1.0
C      1  0.4744260000000  0.5309880000000  0.4656110000000 1.0
C      1  0.5104130000000  0.6072280000000  0.5132690000000 1.0
C      1  0.4027180000000  0.5118040000000  0.5387200000000 1.0
C      1  0.5739150000000  0.4068220000000  0.4899310000000 1.0
C      1  0.5219020000000  0.4447390000000  0.4653660000000 1.0
C      1  0.5229840000000  0.4763360000000  0.4637130000000 1.0
C      1  0.5181200000000  0.5202100000000  0.3929110000000 1.0
C      1  0.4523050000000  0.5599800000000  0.5024630000000 1.0
C      1  0.5275000000000  0.5465420000000  0.4416020000000 1.0
C      1  0.4301860000000  0.4404710000000  0.5511640000000 1.0
C      1  0.4418580000000  0.4872710000000  0.5213750000000 1.0
C      1  0.4803420000000  0.5996100000000  0.5159040000000 1.0
C      1  0.5764890000000  0.5181520000000  0.4455140000000 1.0
C      1  0.5497530000000  0.4843190000000  0.5819220000000 1.0
C      1  0.5091690000000  0.4073860000000  0.4718870000000 1.0
C      1  0.3794440000000  0.5198550000000  0.4217820000000 1.0
C      1  0.4761670000000  0.4900640000000  0.5416320000000 1.0
C      1  0.4471950000000  0.4845520000000  0.3923420000000 1.0
C      1  0.4639510000000  0.4870920000000  0.4955050000000 1.0
C      1  0.5860490000000  0.4445300000000  0.5471510000000 1.0
C      1  0.4481880000000  0.4580590000000  0.4475590000000 1.0
C      1  0.4434590000000  0.5909460000000  0.5463970000000 1.0
C      1  0.4249740000000  0.5284740000000  0.4812780000000 1.0
END
