TITL C-2847955-7945-665 -2.66805575691823e-07 125000 -153.094063504724 0 0 27 (C1) n - 1
REM
REM in /home/bkarasulu/work/CARBON/AIRSS/Generating-Clusters/AIREBO/with-SteepDescent/Only-C1/SD-CG-opt/Try1-1.4A-POS3A/HFTN-CG
REM
REM
REM
REM
REM
REM ./C.cell (11c1c37f851c82e70ff6c80c92926a4b)
REM
REM compiler GCC version 9.2.1 20190827 (Red Hat 9.2.1-1)
REM options -cpp -mtune=generic -march=x86-64 -g -O0 -fpre-include=/usr/include/finclude/math-vector-fortran.h
REM seed 91463438 1563124386 -1220629743 -1926232514 -509769813 1982454871 -524496413 -403450108 -393321912 658477637 -288271843 -845333530 -308711769 -971686678 -1287239923 899149252 245425545 103695409 1410387647 956530033 1351202582 -1760045380 -1310147117 1612725491 -440129442 -61668150 1360168439 -656144601 -1757698093 -1525271811 -820191405 -1257610696 -673951553
REM
CELL 1.54180   50.00000   50.00000   50.00000   90.00000   90.00000   90.00000
LATT -1
SFAC C  
C      1  0.4488330000000  0.5283340000000  0.4865740000000 1.0
C      1  0.4866130000000  0.4599070000000  0.5213130000000 1.0
C      1  0.5785710000000  0.5306070000000  0.4690580000000 1.0
C      1  0.4955380000000  0.4828910000000  0.4608580000000 1.0
C      1  0.5234320000000  0.5076300000000  0.5535390000000 1.0
C      1  0.5340290000000  0.4839400000000  0.5122610000000 1.0
C      1  0.4959880000000  0.5320670000000  0.5007360000000 1.0
C      1  0.4446690000000  0.5531670000000  0.4770260000000 1.0
C      1  0.5422490000000  0.5060180000000  0.5321420000000 1.0
C      1  0.5607900000000  0.5047070000000  0.4785890000000 1.0
C      1  0.4774770000000  0.4448420000000  0.5417380000000 1.0
C      1  0.4788520000000  0.4897770000000  0.4832450000000 1.0
C      1  0.4326450000000  0.4382770000000  0.5068170000000 1.0
C      1  0.4693470000000  0.4693080000000  0.5012530000000 1.0
C      1  0.5135760000000  0.4665040000000  0.5188530000000 1.0
C      1  0.4280260000000  0.5110340000000  0.4938040000000 1.0
C      1  0.5412660000000  0.4858860000000  0.4852140000000 1.0
C      1  0.5585430000000  0.5317570000000  0.4944850000000 1.0
C      1  0.5685690000000  0.5013710000000  0.5420270000000 1.0
C      1  0.4250040000000  0.4840250000000  0.4933150000000 1.0
C      1  0.5413570000000  0.5320340000000  0.5157040000000 1.0
C      1  0.4859520000000  0.4830250000000  0.4356730000000 1.0
C      1  0.5133340000000  0.5703320000000  0.5239470000000 1.0
C      1  0.4748570000000  0.5176110000000  0.4899210000000 1.0
C      1  0.5165230000000  0.5454490000000  0.5140450000000 1.0
C      1  0.5221630000000  0.4766150000000  0.4670280000000 1.0
C      1  0.4417970000000  0.4628840000000  0.5008370000000 1.0
END
