TITL C-2847956-8218-520 -0.00106042454055676 125000 -797.000650126607 0 0 150 (C1) n - 1
REM
REM in /home/bkarasulu/work/CARBON/AIRSS/Generating-Clusters/AIREBO/with-SteepDescent/Only-C1/SD-CG-opt/Try1-1.4A-POS3A/HFTN-CG
REM
REM
REM
REM
REM
REM ./C.cell (11c1c37f851c82e70ff6c80c92926a4b)
REM
REM compiler GCC version 9.2.1 20190827 (Red Hat 9.2.1-1)
REM options -cpp -mtune=generic -march=x86-64 -g -O0 -fpre-include=/usr/include/finclude/math-vector-fortran.h
REM seed -631751184 -891838850 -1026401694 115340505 727008022 -1462093768 -1963862521 -665274750 1218665452 134625072 -371188177 -1274059472 -123032159 887176382 -1536733693 -1648197877 -925096309 99657302 -639665455 2052473725 -1061328179 -578832572 1501828897 -652981970 -1292742688 -82131079 -596393940 -1656580367 -505584255 809326407 -1573302434 -1972782505 -2004608586
REM
CELL 1.54180   50.00000   50.00000   50.00000   90.00000   90.00000   90.00000
LATT -1
SFAC C  
C      1  0.5470100000000  0.5686320000000  0.5356970000000 1.0
C      1  0.4567240000000  0.5339230000000  0.5453250000000 1.0
C      1  0.5106640000000  0.5034340000000  0.4159790000000 1.0
C      1  0.4320780000000  0.4900480000000  0.4267470000000 1.0
C      1  0.4501560000000  0.4664130000000  0.4990710000000 1.0
C      1  0.5866150000000  0.5222740000000  0.4973750000000 1.0
C      1  0.4099420000000  0.5033740000000  0.4572250000000 1.0
C      1  0.4808140000000  0.4861900000000  0.5472450000000 1.0
C      1  0.5390680000000  0.4685360000000  0.5880710000000 1.0
C      1  0.5393760000000  0.5490710000000  0.4797440000000 1.0
C      1  0.6083100000000  0.5164370000000  0.4718490000000 1.0
C      1  0.4550530000000  0.5767590000000  0.5570220000000 1.0
C      1  0.5082150000000  0.3835760000000  0.4884750000000 1.0
C      1  0.4774840000000  0.3953830000000  0.5321520000000 1.0
C      1  0.5893230000000  0.5210370000000  0.4448780000000 1.0
C      1  0.5056690000000  0.4906300000000  0.5019360000000 1.0
C      1  0.5754550000000  0.4823810000000  0.5576660000000 1.0
C      1  0.5251440000000  0.4097290000000  0.5525220000000 1.0
C      1  0.4174930000000  0.5413990000000  0.4325730000000 1.0
C      1  0.4221260000000  0.4676050000000  0.4801320000000 1.0
C      1  0.4424600000000  0.4474910000000  0.5743320000000 1.0
C      1  0.4642520000000  0.5471260000000  0.4670460000000 1.0
C      1  0.5860370000000  0.4541090000000  0.5487070000000 1.0
C      1  0.5748220000000  0.5688360000000  0.5273740000000 1.0
C      1  0.5791590000000  0.4440540000000  0.5175440000000 1.0
C      1  0.5882220000000  0.4615200000000  0.4716590000000 1.0
C      1  0.5403940000000  0.5312620000000  0.4558540000000 1.0
C      1  0.4766550000000  0.5429430000000  0.5075090000000 1.0
C      1  0.4437320000000  0.4538090000000  0.5284470000000 1.0
C      1  0.5151770000000  0.5468330000000  0.5830960000000 1.0
C      1  0.4486920000000  0.5045290000000  0.6062910000000 1.0
C      1  0.3996500000000  0.5222110000000  0.4409610000000 1.0
C      1  0.5125030000000  0.6023850000000  0.5324770000000 1.0
C      1  0.5421670000000  0.5109090000000  0.4055540000000 1.0
C      1  0.4891990000000  0.5661450000000  0.5237450000000 1.0
C      1  0.3997920000000  0.4887800000000  0.4837710000000 1.0
C      1  0.5234150000000  0.4386510000000  0.5485600000000 1.0
C      1  0.4826830000000  0.5488740000000  0.5495810000000 1.0
C      1  0.5699430000000  0.5921370000000  0.4868240000000 1.0
C      1  0.5233880000000  0.4452760000000  0.4287430000000 1.0
C      1  0.4631740000000  0.4110740000000  0.5055930000000 1.0
C      1  0.5159320000000  0.5440040000000  0.5007660000000 1.0
C      1  0.4187060000000  0.4516350000000  0.5426320000000 1.0
C      1  0.4148050000000  0.5053060000000  0.5650710000000 1.0
C      1  0.5210250000000  0.5744380000000  0.5150860000000 1.0
C      1  0.4256980000000  0.4364020000000  0.4893970000000 1.0
C      1  0.5158990000000  0.4551450000000  0.5771240000000 1.0
C      1  0.5389570000000  0.3941930000000  0.4529620000000 1.0
C      1  0.4716650000000  0.4346550000000  0.5286510000000 1.0
C      1  0.5441260000000  0.4845390000000  0.4258310000000 1.0
C      1  0.5796170000000  0.4928330000000  0.5053930000000 1.0
C      1  0.4506080000000  0.5582750000000  0.6004440000000 1.0
C      1  0.5497320000000  0.4524590000000  0.5320150000000 1.0
C      1  0.3745300000000  0.4784520000000  0.4888200000000 1.0
C      1  0.5469620000000  0.5192860000000  0.5151990000000 1.0
C      1  0.4317720000000  0.5533840000000  0.5489140000000 1.0
C      1  0.5762420000000  0.4521800000000  0.4352200000000 1.0
C      1  0.5609090000000  0.5101120000000  0.4588680000000 1.0
C      1  0.4657540000000  0.5875830000000  0.5287550000000 1.0
C      1  0.4428150000000  0.5724580000000  0.4744860000000 1.0
C      1  0.5005690000000  0.5188470000000  0.5905360000000 1.0
C      1  0.5036090000000  0.4701480000000  0.4166150000000 1.0
C      1  0.4785590000000  0.5104510000000  0.4190200000000 1.0
C      1  0.4903210000000  0.4711060000000  0.5874280000000 1.0
C      1  0.5429370000000  0.4346280000000  0.4841800000000 1.0
C      1  0.5036140000000  0.5672140000000  0.4449050000000 1.0
C      1  0.5105420000000  0.3983850000000  0.4637440000000 1.0
C      1  0.4234430000000  0.5287400000000  0.5133940000000 1.0
C      1  0.5514540000000  0.4334500000000  0.4297370000000 1.0
C      1  0.4632980000000  0.4802360000000  0.5889740000000 1.0
C      1  0.4683090000000  0.5576720000000  0.4287540000000 1.0
C      1  0.5019930000000  0.4272870000000  0.4624390000000 1.0
C      1  0.4548010000000  0.5183380000000  0.5151630000000 1.0
C      1  0.4629360000000  0.4449910000000  0.4559830000000 1.0
C      1  0.4414800000000  0.4639020000000  0.4280780000000 1.0
C      1  0.4623680000000  0.3819040000000  0.4986000000000 1.0
C      1  0.4690040000000  0.5708840000000  0.5812700000000 1.0
C      1  0.4211760000000  0.5613240000000  0.5202160000000 1.0
C      1  0.5576520000000  0.4429020000000  0.5637010000000 1.0
C      1  0.4473110000000  0.4874110000000  0.5242700000000 1.0
C      1  0.5045870000000  0.4759700000000  0.5280590000000 1.0
C      1  0.4580280000000  0.5802020000000  0.4454680000000 1.0
C      1  0.5482090000000  0.5801930000000  0.4368190000000 1.0
C      1  0.4954230000000  0.5372630000000  0.4308760000000 1.0
C      1  0.4413490000000  0.5829410000000  0.5065560000000 1.0
C      1  0.4831110000000  0.4992560000000  0.4839020000000 1.0
C      1  0.4563620000000  0.4310700000000  0.5588090000000 1.0
C      1  0.4055970000000  0.5185390000000  0.4938480000000 1.0
C      1  0.5231920000000  0.4894730000000  0.4512860000000 1.0
C      1  0.4847780000000  0.5105750000000  0.5292340000000 1.0
C      1  0.5087280000000  0.4940120000000  0.5821650000000 1.0
C      1  0.5361700000000  0.5929020000000  0.4906860000000 1.0
C      1  0.4730000000000  0.4582560000000  0.4263050000000 1.0
C      1  0.4217880000000  0.5311020000000  0.5715080000000 1.0
C      1  0.5318630000000  0.5533860000000  0.4335390000000 1.0
C      1  0.5514870000000  0.4527770000000  0.4585220000000 1.0
C      1  0.3974620000000  0.5419280000000  0.4795730000000 1.0
C      1  0.5608480000000  0.5429480000000  0.5005240000000 1.0
C      1  0.5892440000000  0.5531700000000  0.5462260000000 1.0
C      1  0.4134160000000  0.5630560000000  0.4869810000000 1.0
C      1  0.4497480000000  0.4831420000000  0.5579190000000 1.0
C      1  0.4821390000000  0.5024210000000  0.3873290000000 1.0
C      1  0.4731870000000  0.5188910000000  0.5915120000000 1.0
C      1  0.5336380000000  0.3871470000000  0.5020320000000 1.0
C      1  0.5142830000000  0.5228700000000  0.5239100000000 1.0
C      1  0.5426450000000  0.4855160000000  0.5356440000000 1.0
C      1  0.4363350000000  0.5333250000000  0.5960960000000 1.0
C      1  0.4690010000000  0.4042370000000  0.5568110000000 1.0
C      1  0.5777430000000  0.4828930000000  0.4473700000000 1.0
C      1  0.4856090000000  0.5728290000000  0.4733820000000 1.0
C      1  0.5112070000000  0.5191080000000  0.4542860000000 1.0
C      1  0.4302060000000  0.4512750000000  0.4528420000000 1.0
C      1  0.5839780000000  0.5663280000000  0.4959740000000 1.0
C      1  0.5306040000000  0.4739730000000  0.3962760000000 1.0
C      1  0.5543990000000  0.4742860000000  0.5061070000000 1.0
C      1  0.4682770000000  0.4944720000000  0.4422170000000 1.0
C      1  0.4409660000000  0.5040570000000  0.4564260000000 1.0
C      1  0.4962710000000  0.5714760000000  0.5896410000000 1.0
C      1  0.5373770000000  0.5174530000000  0.5675050000000 1.0
C      1  0.5873200000000  0.5434560000000  0.4707860000000 1.0
C      1  0.5525520000000  0.5901020000000  0.4608290000000 1.0
C      1  0.5425400000000  0.5507300000000  0.5632920000000 1.0
C      1  0.4923760000000  0.5316870000000  0.4795400000000 1.0
C      1  0.5978370000000  0.4871070000000  0.4824290000000 1.0
C      1  0.5105090000000  0.4415310000000  0.4921240000000 1.0
C      1  0.4817930000000  0.4597280000000  0.4934350000000 1.0
C      1  0.4992790000000  0.4808420000000  0.3846220000000 1.0
C      1  0.4438730000000  0.5433290000000  0.4400740000000 1.0
C      1  0.5016160000000  0.4452430000000  0.5247490000000 1.0
C      1  0.5460150000000  0.4042410000000  0.4812280000000 1.0
C      1  0.4813170000000  0.4728360000000  0.4625640000000 1.0
C      1  0.5477320000000  0.4825410000000  0.4737910000000 1.0
C      1  0.4550280000000  0.5175970000000  0.4811570000000 1.0
C      1  0.5717320000000  0.5038590000000  0.4212700000000 1.0
C      1  0.5215150000000  0.5356080000000  0.4091350000000 1.0
C      1  0.5528040000000  0.4898190000000  0.5754270000000 1.0
C      1  0.5187860000000  0.5727230000000  0.4732770000000 1.0
C      1  0.5121010000000  0.4596990000000  0.4565580000000 1.0
C      1  0.6110850000000  0.4465190000000  0.5583140000000 1.0
C      1  0.5658060000000  0.5096170000000  0.5403570000000 1.0
C      1  0.5094380000000  0.5310350000000  0.5535400000000 1.0
C      1  0.5750630000000  0.4444190000000  0.4895410000000 1.0
C      1  0.4575550000000  0.5139850000000  0.5669140000000 1.0
C      1  0.5308360000000  0.5036600000000  0.4931760000000 1.0
C      1  0.4195740000000  0.4721060000000  0.5690450000000 1.0
C      1  0.5714940000000  0.5348360000000  0.5567630000000 1.0
C      1  0.4930390000000  0.4348060000000  0.4320710000000 1.0
C      1  0.4515120000000  0.4276330000000  0.4829160000000 1.0
C      1  0.4728670000000  0.5887300000000  0.4952730000000 1.0
C      1  0.5193840000000  0.4923170000000  0.5536450000000 1.0
END
