TITL C-2847951-7423-121 0.00265021558578722 125000 -563.221466888513 0 0 102 (C1) n - 1
REM
REM in /home/bkarasulu/work/CARBON/AIRSS/Generating-Clusters/AIREBO/with-SteepDescent/Only-C1/SD-CG-opt/Try1-1.4A-POS3A/HFTN-CG
REM
REM
REM
REM
REM
REM ./C.cell (11c1c37f851c82e70ff6c80c92926a4b)
REM
REM compiler GCC version 9.2.1 20190827 (Red Hat 9.2.1-1)
REM options -cpp -mtune=generic -march=x86-64 -g -O0 -fpre-include=/usr/include/finclude/math-vector-fortran.h
REM seed -1685609270 1130643999 288471898 1024415183 -1777909916 -96123103 -1557321994 -488478335 1225846427 -1956838914 -625332795 -265734488 669061111 2106960345 1580889587 -277060732 -594111071 -361175368 2036093425 1101767388 364137051 -142414760 -788065567 -2041191898 1789179924 -1528856299 368075285 927289393 641301866 281618491 190580022 -1891982597 -173823445
REM
CELL 1.54180   50.00000   50.00000   50.00000   90.00000   90.00000   90.00000
LATT -1
SFAC C  
C      1  0.5455090000000  0.4392420000000  0.5273990000000 1.0
C      1  0.5658150000000  0.5524350000000  0.5208870000000 1.0
C      1  0.4793580000000  0.4916850000000  0.4626520000000 1.0
C      1  0.5597380000000  0.4909220000000  0.5302970000000 1.0
C      1  0.4822470000000  0.4593560000000  0.4670290000000 1.0
C      1  0.5175540000000  0.4688730000000  0.4144040000000 1.0
C      1  0.4986080000000  0.4091370000000  0.4842270000000 1.0
C      1  0.4841290000000  0.5772600000000  0.5058570000000 1.0
C      1  0.4873980000000  0.5221280000000  0.5149640000000 1.0
C      1  0.5847000000000  0.5102790000000  0.5214270000000 1.0
C      1  0.5105010000000  0.4623790000000  0.5774650000000 1.0
C      1  0.4861240000000  0.4904260000000  0.5628740000000 1.0
C      1  0.5673910000000  0.4594530000000  0.5199400000000 1.0
C      1  0.4844070000000  0.4537440000000  0.5813220000000 1.0
C      1  0.5161970000000  0.4521060000000  0.5372870000000 1.0
C      1  0.4415670000000  0.4440470000000  0.5103490000000 1.0
C      1  0.4678150000000  0.4841540000000  0.4338390000000 1.0
C      1  0.5943970000000  0.5366790000000  0.4792750000000 1.0
C      1  0.5839860000000  0.5626190000000  0.4748200000000 1.0
C      1  0.5863480000000  0.5361210000000  0.5373630000000 1.0
C      1  0.5538910000000  0.5071060000000  0.4818180000000 1.0
C      1  0.4565720000000  0.4060570000000  0.5389490000000 1.0
C      1  0.4665100000000  0.4048160000000  0.4936720000000 1.0
C      1  0.5233020000000  0.5312220000000  0.4528080000000 1.0
C      1  0.5208200000000  0.5224230000000  0.5538150000000 1.0
C      1  0.4601380000000  0.4658760000000  0.4920520000000 1.0
C      1  0.4566350000000  0.5039690000000  0.4811330000000 1.0
C      1  0.5447680000000  0.4135310000000  0.5050180000000 1.0
C      1  0.4704800000000  0.5092030000000  0.5409060000000 1.0
C      1  0.5182710000000  0.5317700000000  0.5151600000000 1.0
C      1  0.4906310000000  0.4703690000000  0.4138640000000 1.0
C      1  0.5335260000000  0.5597780000000  0.5286270000000 1.0
C      1  0.4385470000000  0.4889330000000  0.5046420000000 1.0
C      1  0.4552330000000  0.5627880000000  0.5142720000000 1.0
C      1  0.4653150000000  0.4645620000000  0.5626460000000 1.0
C      1  0.4619290000000  0.4358380000000  0.4539550000000 1.0
C      1  0.4989560000000  0.5925900000000  0.4892400000000 1.0
C      1  0.4884510000000  0.4662310000000  0.5234950000000 1.0
C      1  0.5901690000000  0.4777330000000  0.5374810000000 1.0
C      1  0.4723590000000  0.4097010000000  0.4633030000000 1.0
C      1  0.5776780000000  0.4547110000000  0.4888000000000 1.0
C      1  0.4934300000000  0.5286000000000  0.5539130000000 1.0
C      1  0.5272210000000  0.5630410000000  0.4564560000000 1.0
C      1  0.4320530000000  0.4397190000000  0.4624150000000 1.0
C      1  0.5605730000000  0.5663350000000  0.6007100000000 1.0
C      1  0.5288440000000  0.4580140000000  0.4963050000000 1.0
C      1  0.5094400000000  0.5048180000000  0.4691480000000 1.0
C      1  0.5806760000000  0.4708330000000  0.4662390000000 1.0
C      1  0.5298520000000  0.4101400000000  0.4745510000000 1.0
C      1  0.4626320000000  0.5020890000000  0.5840490000000 1.0
C      1  0.4860020000000  0.5454630000000  0.4960480000000 1.0
C      1  0.5343460000000  0.4790980000000  0.4417640000000 1.0
C      1  0.5120890000000  0.4546470000000  0.4512350000000 1.0
C      1  0.4396910000000  0.4962390000000  0.4311220000000 1.0
C      1  0.4832050000000  0.4081120000000  0.5461770000000 1.0
C      1  0.4572710000000  0.4614690000000  0.5316700000000 1.0
C      1  0.4220610000000  0.5570360000000  0.5190350000000 1.0
C      1  0.5439890000000  0.5790020000000  0.4124270000000 1.0
C      1  0.4214470000000  0.4574890000000  0.4868900000000 1.0
C      1  0.4162910000000  0.5293570000000  0.5377860000000 1.0
C      1  0.5395390000000  0.5118650000000  0.4367660000000 1.0
C      1  0.4644610000000  0.5414200000000  0.4488570000000 1.0
C      1  0.4372640000000  0.5540270000000  0.5487170000000 1.0
C      1  0.5144470000000  0.4812570000000  0.5498280000000 1.0
C      1  0.4503730000000  0.4150890000000  0.5129740000000 1.0
C      1  0.4150970000000  0.4864280000000  0.4702610000000 1.0
C      1  0.4995200000000  0.4633840000000  0.4943620000000 1.0
C      1  0.5745300000000  0.5717860000000  0.4500840000000 1.0
C      1  0.5292820000000  0.5021800000000  0.5278170000000 1.0
C      1  0.5004240000000  0.4241170000000  0.5342720000000 1.0
C      1  0.5504840000000  0.5552200000000  0.5792270000000 1.0
C      1  0.4846290000000  0.5770530000000  0.5509400000000 1.0
C      1  0.5306000000000  0.4256720000000  0.4516430000000 1.0
C      1  0.4002300000000  0.4821720000000  0.4977540000000 1.0
C      1  0.5722780000000  0.5739820000000  0.4975450000000 1.0
C      1  0.4930860000000  0.5247850000000  0.4460290000000 1.0
C      1  0.4702150000000  0.5489810000000  0.5415120000000 1.0
C      1  0.4265020000000  0.5042980000000  0.5537200000000 1.0
C      1  0.4271420000000  0.5043370000000  0.4540480000000 1.0
C      1  0.5244530000000  0.5828210000000  0.4818340000000 1.0
C      1  0.4792880000000  0.5398350000000  0.4204850000000 1.0
C      1  0.4698900000000  0.4516870000000  0.4290140000000 1.0
C      1  0.5142340000000  0.4284830000000  0.5054510000000 1.0
C      1  0.5475560000000  0.5318690000000  0.5036790000000 1.0
C      1  0.5524370000000  0.4401320000000  0.4883410000000 1.0
C      1  0.4968060000000  0.5585660000000  0.4665200000000 1.0
C      1  0.4424100000000  0.5278330000000  0.4680550000000 1.0
C      1  0.4353380000000  0.5033710000000  0.5794520000000 1.0
C      1  0.5491150000000  0.5723580000000  0.4384620000000 1.0
C      1  0.5272620000000  0.4920360000000  0.4953750000000 1.0
C      1  0.4464290000000  0.4917080000000  0.5355200000000 1.0
C      1  0.5308910000000  0.4428100000000  0.4254900000000 1.0
C      1  0.4107680000000  0.5040370000000  0.5171490000000 1.0
C      1  0.4557830000000  0.5794390000000  0.5617970000000 1.0
C      1  0.5377380000000  0.5449350000000  0.5575690000000 1.0
C      1  0.4640360000000  0.5604390000000  0.4753900000000 1.0
C      1  0.5429020000000  0.5788380000000  0.5017610000000 1.0
C      1  0.5078980000000  0.5801430000000  0.5378310000000 1.0
C      1  0.4778130000000  0.4929740000000  0.5053550000000 1.0
C      1  0.5825370000000  0.5163190000000  0.4926740000000 1.0
C      1  0.4354410000000  0.5504860000000  0.4894240000000 1.0
C      1  0.5597950000000  0.4870750000000  0.4597410000000 1.0
END
