TITL C-2848496-4490-262 -0.00121183008890599 125000 -427.171840056235 0 0 77 (C1) n - 1
REM
REM in /home/bkarasulu/work/CARBON/AIRSS/Generating-Clusters/AIREBO/with-SteepDescent/Only-C1/SD-CG-opt/Try1-1.4A-POS3A/HFTN-CG
REM
REM
REM
REM
REM
REM ./C.cell (11c1c37f851c82e70ff6c80c92926a4b)
REM
REM compiler GCC version 9.2.1 20190827 (Red Hat 9.2.1-1)
REM options -cpp -mtune=generic -march=x86-64 -g -O0 -fpre-include=/usr/include/finclude/math-vector-fortran.h
REM seed -2136664974 -1714979575 -932427457 -546296178 551886922 -2057632256 -249884456 1005533637 1962857744 513466361 -148056767 -752794293 -1940004539 2080514002 1204064008 -1943200748 -868368024 2110005731 2146825889 811244315 722156168 -581869216 -1617976450 1039556772 315773676 -641644123 364397093 -1550433103 1101563871 443939998 296088285 1880016201 538638321
REM
CELL 1.54180   50.00000   50.00000   50.00000   90.00000   90.00000   90.00000
LATT -1
SFAC C  
C      1  0.4408180000000  0.5354220000000  0.5182950000000 1.0
C      1  0.5087130000000  0.5357850000000  0.4543600000000 1.0
C      1  0.4211530000000  0.4909980000000  0.4939720000000 1.0
C      1  0.5174880000000  0.5266060000000  0.5613490000000 1.0
C      1  0.5253900000000  0.5020180000000  0.5035610000000 1.0
C      1  0.4723220000000  0.4993330000000  0.4918520000000 1.0
C      1  0.4493320000000  0.5413780000000  0.5496330000000 1.0
C      1  0.4446240000000  0.5383190000000  0.4699560000000 1.0
C      1  0.4753790000000  0.5956600000000  0.4856900000000 1.0
C      1  0.5655660000000  0.4620250000000  0.4843820000000 1.0
C      1  0.5253830000000  0.5485550000000  0.5129680000000 1.0
C      1  0.4902640000000  0.4355500000000  0.4480130000000 1.0
C      1  0.4860940000000  0.4420330000000  0.4970500000000 1.0
C      1  0.5644390000000  0.4987060000000  0.5388890000000 1.0
C      1  0.4691020000000  0.5441280000000  0.5015140000000 1.0
C      1  0.5077780000000  0.5460990000000  0.5831920000000 1.0
C      1  0.4938210000000  0.5676310000000  0.5725380000000 1.0
C      1  0.5614050000000  0.5438600000000  0.4767940000000 1.0
C      1  0.5559710000000  0.4794300000000  0.4647190000000 1.0
C      1  0.4714090000000  0.5233030000000  0.5409410000000 1.0
C      1  0.4243250000000  0.4750670000000  0.5597130000000 1.0
C      1  0.4873250000000  0.5311750000000  0.4282860000000 1.0
C      1  0.5009230000000  0.5367460000000  0.5334380000000 1.0
C      1  0.4311310000000  0.5045670000000  0.5195410000000 1.0
C      1  0.5174220000000  0.4464570000000  0.5213180000000 1.0
C      1  0.5204480000000  0.5299950000000  0.4246330000000 1.0
C      1  0.5687080000000  0.5274470000000  0.4991460000000 1.0
C      1  0.5564950000000  0.4756680000000  0.5543290000000 1.0
C      1  0.4634380000000  0.4984680000000  0.5244240000000 1.0
C      1  0.4917060000000  0.5234860000000  0.5035060000000 1.0
C      1  0.5177080000000  0.4283910000000  0.4925080000000 1.0
C      1  0.5757140000000  0.5010890000000  0.5137430000000 1.0
C      1  0.4814610000000  0.4824260000000  0.4329980000000 1.0
C      1  0.5142090000000  0.5794030000000  0.5067920000000 1.0
C      1  0.4872930000000  0.4164680000000  0.5411410000000 1.0
C      1  0.5328510000000  0.4339250000000  0.5477140000000 1.0
C      1  0.5132940000000  0.5633950000000  0.4640760000000 1.0
C      1  0.4842160000000  0.4451930000000  0.5285220000000 1.0
C      1  0.5464190000000  0.5225520000000  0.5477300000000 1.0
C      1  0.5114390000000  0.4089670000000  0.5442010000000 1.0
C      1  0.5700580000000  0.5016050000000  0.4546170000000 1.0
C      1  0.4590310000000  0.5762550000000  0.5063490000000 1.0
C      1  0.5002130000000  0.4818650000000  0.5142840000000 1.0
C      1  0.4394380000000  0.4200610000000  0.4969990000000 1.0
C      1  0.5088700000000  0.5142980000000  0.4764930000000 1.0
C      1  0.4507280000000  0.4610090000000  0.4703170000000 1.0
C      1  0.5179400000000  0.4344680000000  0.5741350000000 1.0
C      1  0.4502700000000  0.4669540000000  0.5620080000000 1.0
C      1  0.5175910000000  0.4001250000000  0.5012800000000 1.0
C      1  0.5499890000000  0.4384190000000  0.4885390000000 1.0
C      1  0.4889720000000  0.5815140000000  0.5204890000000 1.0
C      1  0.4738940000000  0.5476960000000  0.4105930000000 1.0
C      1  0.5424550000000  0.5233000000000  0.5163090000000 1.0
C      1  0.4388050000000  0.4853980000000  0.4743720000000 1.0
C      1  0.4332500000000  0.5575420000000  0.4936000000000 1.0
C      1  0.4765910000000  0.4625100000000  0.4538260000000 1.0
C      1  0.4897580000000  0.5776550000000  0.4664670000000 1.0
C      1  0.5299390000000  0.4871840000000  0.4354040000000 1.0
C      1  0.5251170000000  0.4857510000000  0.4673090000000 1.0
C      1  0.5430950000000  0.5119520000000  0.4273940000000 1.0
C      1  0.4875630000000  0.4722070000000  0.4842220000000 1.0
C      1  0.4560130000000  0.4397130000000  0.4880240000000 1.0
C      1  0.4715170000000  0.5076650000000  0.4393260000000 1.0
C      1  0.5068450000000  0.4796270000000  0.4207960000000 1.0
C      1  0.5584260000000  0.4493350000000  0.5528960000000 1.0
C      1  0.5252480000000  0.4685290000000  0.4966450000000 1.0
C      1  0.5832890000000  0.4764600000000  0.5014420000000 1.0
C      1  0.4559010000000  0.5104120000000  0.4656570000000 1.0
C      1  0.4670130000000  0.5593800000000  0.4711970000000 1.0
C      1  0.5016350000000  0.4846300000000  0.5460420000000 1.0
C      1  0.5287520000000  0.4948510000000  0.5565360000000 1.0
C      1  0.5537870000000  0.5289100000000  0.4537330000000 1.0
C      1  0.4154650000000  0.4963810000000  0.5449880000000 1.0
C      1  0.4911610000000  0.5667230000000  0.5445430000000 1.0
C      1  0.5358130000000  0.5637140000000  0.4854160000000 1.0
C      1  0.4720160000000  0.4708190000000  0.5402650000000 1.0
C      1  0.5105730000000  0.4273590000000  0.4600600000000 1.0
END
