TITL C-2848505-4874-164 -0.00440369914981097 125000 -586.519180135509 0 0 110 (C1) n - 1
REM
REM in /home/bkarasulu/work/CARBON/AIRSS/Generating-Clusters/AIREBO/with-SteepDescent/Only-C1/SD-CG-opt/Try1-1.4A-POS3A/HFTN-CG
REM
REM
REM
REM
REM
REM ./C.cell (11c1c37f851c82e70ff6c80c92926a4b)
REM
REM compiler GCC version 9.2.1 20190827 (Red Hat 9.2.1-1)
REM options -cpp -mtune=generic -march=x86-64 -g -O0 -fpre-include=/usr/include/finclude/math-vector-fortran.h
REM seed -2136050549 -1800063548 -365586178 -501877458 -44158287 443857283 -534186532 673362095 1729422294 -838741323 727585003 -1524940023 -451174781 -1629597995 -1112629564 -560772487 1966000209 -1486544616 -1794987871 1197476429 -1677995871 -19149888 -1895128789 -26606330 547745337 1028116496 -1700165075 1582981925 1327530572 647695633 1424160147 217842234 431918761
REM
CELL 1.54180   50.00000   50.00000   50.00000   90.00000   90.00000   90.00000
LATT -1
SFAC C  
C      1  0.4257690000000  0.4790770000000  0.4680410000000 1.0
C      1  0.4692020000000  0.5158430000000  0.5868390000000 1.0
C      1  0.5317070000000  0.5755110000000  0.5033850000000 1.0
C      1  0.4424380000000  0.4997020000000  0.5859950000000 1.0
C      1  0.5483570000000  0.5029330000000  0.5404870000000 1.0
C      1  0.5520560000000  0.4905090000000  0.4506750000000 1.0
C      1  0.5536520000000  0.4364320000000  0.5313410000000 1.0
C      1  0.5432970000000  0.4585690000000  0.4586450000000 1.0
C      1  0.5842990000000  0.5348380000000  0.5392540000000 1.0
C      1  0.5891960000000  0.4661660000000  0.5330620000000 1.0
C      1  0.5841340000000  0.4809340000000  0.4566270000000 1.0
C      1  0.5828600000000  0.5802050000000  0.4896390000000 1.0
C      1  0.5452450000000  0.5437090000000  0.5596030000000 1.0
C      1  0.5079880000000  0.5151610000000  0.4056870000000 1.0
C      1  0.4874360000000  0.5427060000000  0.4404150000000 1.0
C      1  0.4922230000000  0.4350560000000  0.5345580000000 1.0
C      1  0.4368500000000  0.4859530000000  0.4366390000000 1.0
C      1  0.4156890000000  0.4559860000000  0.5091670000000 1.0
C      1  0.5404380000000  0.4353760000000  0.4803710000000 1.0
C      1  0.4699390000000  0.5697370000000  0.4843420000000 1.0
C      1  0.4983620000000  0.5284700000000  0.5747250000000 1.0
C      1  0.4755330000000  0.6221910000000  0.5031070000000 1.0
C      1  0.5740850000000  0.4469870000000  0.5465630000000 1.0
C      1  0.4537920000000  0.5244700000000  0.4800210000000 1.0
C      1  0.5266060000000  0.5422350000000  0.5082040000000 1.0
C      1  0.4903050000000  0.5129280000000  0.4912300000000 1.0
C      1  0.4799600000000  0.4381130000000  0.4916440000000 1.0
C      1  0.4464880000000  0.4691390000000  0.5150480000000 1.0
C      1  0.4775870000000  0.4986460000000  0.5587200000000 1.0
C      1  0.5715000000000  0.4925510000000  0.5213900000000 1.0
C      1  0.5270330000000  0.4813670000000  0.5660890000000 1.0
C      1  0.4682050000000  0.4698280000000  0.4704800000000 1.0
C      1  0.5133030000000  0.5909820000000  0.4864460000000 1.0
C      1  0.5645640000000  0.5262840000000  0.5815030000000 1.0
C      1  0.4088630000000  0.4580150000000  0.4844610000000 1.0
C      1  0.5076540000000  0.4291190000000  0.4379510000000 1.0
C      1  0.4795020000000  0.4641730000000  0.5217540000000 1.0
C      1  0.4869850000000  0.5724830000000  0.5198070000000 1.0
C      1  0.5280350000000  0.5148710000000  0.5650220000000 1.0
C      1  0.4347660000000  0.5495090000000  0.5392870000000 1.0
C      1  0.4354410000000  0.4413150000000  0.4593080000000 1.0
C      1  0.5647000000000  0.4333280000000  0.5017520000000 1.0
C      1  0.5013820000000  0.5236000000000  0.5213930000000 1.0
C      1  0.4922400000000  0.5484840000000  0.5512150000000 1.0
C      1  0.4666410000000  0.4992230000000  0.4270200000000 1.0
C      1  0.5290440000000  0.5055470000000  0.4306020000000 1.0
C      1  0.5188910000000  0.4965900000000  0.4912670000000 1.0
C      1  0.5340820000000  0.5561860000000  0.4200880000000 1.0
C      1  0.5149320000000  0.4749660000000  0.4653070000000 1.0
C      1  0.4436710000000  0.4944880000000  0.4925030000000 1.0
C      1  0.5605840000000  0.4665360000000  0.5060460000000 1.0
C      1  0.4216010000000  0.5376350000000  0.5145870000000 1.0
C      1  0.4596350000000  0.4238580000000  0.5149690000000 1.0
C      1  0.5605940000000  0.5347660000000  0.4872440000000 1.0
C      1  0.4490600000000  0.4500790000000  0.4870010000000 1.0
C      1  0.5314460000000  0.5256950000000  0.4795130000000 1.0
C      1  0.5244890000000  0.4441520000000  0.5311350000000 1.0
C      1  0.4972710000000  0.4980430000000  0.4547950000000 1.0
C      1  0.5916220000000  0.4580730000000  0.4973500000000 1.0
C      1  0.4599540000000  0.4371880000000  0.5450730000000 1.0
C      1  0.5458110000000  0.5335550000000  0.4210840000000 1.0
C      1  0.5287020000000  0.4056420000000  0.4876860000000 1.0
C      1  0.4435440000000  0.4549580000000  0.4367320000000 1.0
C      1  0.5128460000000  0.4416820000000  0.4992820000000 1.0
C      1  0.5804340000000  0.5129120000000  0.5019100000000 1.0
C      1  0.4704570000000  0.4513100000000  0.4289870000000 1.0
C      1  0.4106030000000  0.5078250000000  0.4743960000000 1.0
C      1  0.5634130000000  0.5587230000000  0.5350480000000 1.0
C      1  0.5129030000000  0.5244330000000  0.4538290000000 1.0
C      1  0.5015170000000  0.4044740000000  0.4900960000000 1.0
C      1  0.5321200000000  0.4684970000000  0.5006670000000 1.0
C      1  0.4661150000000  0.4999910000000  0.4598970000000 1.0
C      1  0.5992110000000  0.4648290000000  0.4718830000000 1.0
C      1  0.4662400000000  0.5401130000000  0.5308370000000 1.0
C      1  0.5249550000000  0.4531560000000  0.4334270000000 1.0
C      1  0.4882950000000  0.4692300000000  0.5687780000000 1.0
C      1  0.4594700000000  0.4573260000000  0.5650160000000 1.0
C      1  0.5101610000000  0.5671590000000  0.4329340000000 1.0
C      1  0.5211600000000  0.4978110000000  0.5253290000000 1.0
C      1  0.4851010000000  0.4753310000000  0.4205220000000 1.0
C      1  0.4986880000000  0.4177420000000  0.5607060000000 1.0
C      1  0.4766120000000  0.4868380000000  0.4961510000000 1.0
C      1  0.4159610000000  0.5136720000000  0.5028060000000 1.0
C      1  0.4909520000000  0.4525550000000  0.4560890000000 1.0
C      1  0.4829390000000  0.5225730000000  0.4159290000000 1.0
C      1  0.4894490000000  0.4199340000000  0.4656300000000 1.0
C      1  0.5738460000000  0.5089560000000  0.4695000000000 1.0
C      1  0.4223950000000  0.5040500000000  0.6040030000000 1.0
C      1  0.5506450000000  0.5884890000000  0.5277150000000 1.0
C      1  0.4884270000000  0.4071140000000  0.5147690000000 1.0
C      1  0.4183880000000  0.5107480000000  0.4450900000000 1.0
C      1  0.4884830000000  0.5461310000000  0.4983560000000 1.0
C      1  0.4815180000000  0.5724850000000  0.4557220000000 1.0
C      1  0.4723630000000  0.5083700000000  0.5305070000000 1.0
C      1  0.4496830000000  0.5492500000000  0.5024480000000 1.0
C      1  0.4968600000000  0.4961660000000  0.5876760000000 1.0
C      1  0.5405200000000  0.4653650000000  0.5817520000000 1.0
C      1  0.4315570000000  0.5350540000000  0.4384310000000 1.0
C      1  0.4467880000000  0.5735660000000  0.5511960000000 1.0
C      1  0.5732430000000  0.5156370000000  0.5553530000000 1.0
C      1  0.5124810000000  0.4764160000000  0.4247250000000 1.0
C      1  0.5217350000000  0.5517850000000  0.5399910000000 1.0
C      1  0.4438540000000  0.4916810000000  0.5386570000000 1.0
C      1  0.4848710000000  0.5968130000000  0.4992590000000 1.0
C      1  0.4423300000000  0.4806780000000  0.5645040000000 1.0
C      1  0.5619570000000  0.5611810000000  0.5011480000000 1.0
C      1  0.4745520000000  0.5756550000000  0.5469230000000 1.0
C      1  0.5069060000000  0.4717340000000  0.5404270000000 1.0
C      1  0.5101260000000  0.5864760000000  0.4589030000000 1.0
C      1  0.4556260000000  0.5374110000000  0.4509020000000 1.0
END
