TITL C-2847947-6848-6 0.00280913838917255 125000 -587.863649079413 0 0 105 (C1) n - 1
REM
REM in /home/bkarasulu/work/CARBON/AIRSS/Generating-Clusters/AIREBO/with-SteepDescent/Only-C1/SD-CG-opt/Try1-1.4A-POS3A/HFTN-CG
REM
REM
REM
REM
REM
REM ./C.cell (11c1c37f851c82e70ff6c80c92926a4b)
REM
REM compiler GCC version 9.2.1 20190827 (Red Hat 9.2.1-1)
REM options -cpp -mtune=generic -march=x86-64 -g -O0 -fpre-include=/usr/include/finclude/math-vector-fortran.h
REM seed 147351010 703937404 846040452 767526527 -1910700529 -1877983757 -1534424876 -1860436573 -1933487184 -1183003724 -1255521867 -568247658 935900516 1485275352 408965018 -2004726697 -1862573274 -1890365152 -1360390029 -723912443 -1354194547 1533225765 1581606818 1502185785 -9465621 -115783647 -1617261404 -2016411581 -813698505 -1827695864 -1099771011 149704728 -308038090
REM
CELL 1.54180   50.00000   50.00000   50.00000   90.00000   90.00000   90.00000
LATT -1
SFAC C  
C      1  0.4526430000000  0.5229140000000  0.4786810000000 1.0
C      1  0.5666730000000  0.4501930000000  0.4871120000000 1.0
C      1  0.4557540000000  0.4693470000000  0.4344420000000 1.0
C      1  0.5535130000000  0.5277990000000  0.5567970000000 1.0
C      1  0.5634460000000  0.5508830000000  0.4834010000000 1.0
C      1  0.4453140000000  0.5042120000000  0.5992100000000 1.0
C      1  0.5464100000000  0.4403300000000  0.4668870000000 1.0
C      1  0.5639900000000  0.5196140000000  0.5254910000000 1.0
C      1  0.5203080000000  0.5048430000000  0.5897510000000 1.0
C      1  0.5151210000000  0.5148730000000  0.5016810000000 1.0
C      1  0.5226750000000  0.4242130000000  0.4851520000000 1.0
C      1  0.4694170000000  0.5699280000000  0.5669440000000 1.0
C      1  0.5304500000000  0.5724680000000  0.5464000000000 1.0
C      1  0.4666510000000  0.4772990000000  0.5791750000000 1.0
C      1  0.4837210000000  0.4614320000000  0.4868780000000 1.0
C      1  0.4672910000000  0.5829060000000  0.5896110000000 1.0
C      1  0.4207350000000  0.5206890000000  0.4848610000000 1.0
C      1  0.4650690000000  0.4541420000000  0.5303890000000 1.0
C      1  0.4912050000000  0.5091160000000  0.4283150000000 1.0
C      1  0.5804190000000  0.5426760000000  0.5068920000000 1.0
C      1  0.4177020000000  0.4519030000000  0.5246680000000 1.0
C      1  0.5418120000000  0.5115990000000  0.4239260000000 1.0
C      1  0.4529760000000  0.4695000000000  0.5025630000000 1.0
C      1  0.5897920000000  0.4915680000000  0.4876410000000 1.0
C      1  0.4839680000000  0.5932560000000  0.4794150000000 1.0
C      1  0.5750790000000  0.4970980000000  0.4642820000000 1.0
C      1  0.4640390000000  0.4244140000000  0.4570000000000 1.0
C      1  0.4702540000000  0.5543090000000  0.5443470000000 1.0
C      1  0.5046800000000  0.4969760000000  0.4532170000000 1.0
C      1  0.5075730000000  0.4813430000000  0.5462150000000 1.0
C      1  0.4606620000000  0.5014220000000  0.5352590000000 1.0
C      1  0.5338800000000  0.5389300000000  0.4518380000000 1.0
C      1  0.4697430000000  0.4900240000000  0.4135770000000 1.0
C      1  0.4339460000000  0.4542520000000  0.4805880000000 1.0
C      1  0.4606680000000  0.5226880000000  0.4347600000000 1.0
C      1  0.5800630000000  0.4685400000000  0.5299210000000 1.0
C      1  0.5764090000000  0.4567740000000  0.5550160000000 1.0
C      1  0.4498050000000  0.5548190000000  0.5242850000000 1.0
C      1  0.4443140000000  0.4278490000000  0.4776010000000 1.0
C      1  0.4770060000000  0.5203660000000  0.5179150000000 1.0
C      1  0.5488670000000  0.4868020000000  0.4452220000000 1.0
C      1  0.4343930000000  0.5050450000000  0.5450830000000 1.0
C      1  0.4813960000000  0.5356650000000  0.4888940000000 1.0
C      1  0.4844220000000  0.5685630000000  0.4663010000000 1.0
C      1  0.5263760000000  0.5539730000000  0.5189910000000 1.0
C      1  0.5528720000000  0.4794070000000  0.5177850000000 1.0
C      1  0.4178490000000  0.5107110000000  0.5159090000000 1.0
C      1  0.5398570000000  0.4551920000000  0.5032950000000 1.0
C      1  0.4344170000000  0.5501280000000  0.4729930000000 1.0
C      1  0.5046430000000  0.5212830000000  0.4724830000000 1.0
C      1  0.4934450000000  0.4667430000000  0.4553940000000 1.0
C      1  0.4972660000000  0.4862220000000  0.5058030000000 1.0
C      1  0.5312920000000  0.5441350000000  0.4913120000000 1.0
C      1  0.5267640000000  0.5281690000000  0.5371540000000 1.0
C      1  0.4494840000000  0.4170780000000  0.5038040000000 1.0
C      1  0.5573190000000  0.5370230000000  0.4310200000000 1.0
C      1  0.5769230000000  0.5679900000000  0.4612310000000 1.0
C      1  0.5179910000000  0.4670150000000  0.4868920000000 1.0
C      1  0.5511930000000  0.4476420000000  0.5618470000000 1.0
C      1  0.5320270000000  0.4922020000000  0.4728750000000 1.0
C      1  0.4987300000000  0.5420110000000  0.4069130000000 1.0
C      1  0.5029170000000  0.5102310000000  0.5635630000000 1.0
C      1  0.4737970000000  0.4783970000000  0.5482880000000 1.0
C      1  0.4936760000000  0.5336100000000  0.5407420000000 1.0
C      1  0.4774220000000  0.5481130000000  0.4223430000000 1.0
C      1  0.4191490000000  0.4979390000000  0.4625140000000 1.0
C      1  0.5185870000000  0.4550410000000  0.5647390000000 1.0
C      1  0.5097790000000  0.5536350000000  0.4672330000000 1.0
C      1  0.5012670000000  0.4995150000000  0.6102750000000 1.0
C      1  0.5105620000000  0.5409100000000  0.5761530000000 1.0
C      1  0.4671050000000  0.4863800000000  0.4615950000000 1.0
C      1  0.5767300000000  0.5567280000000  0.4358350000000 1.0
C      1  0.4144920000000  0.4719540000000  0.4701530000000 1.0
C      1  0.5468250000000  0.5097230000000  0.5835360000000 1.0
C      1  0.4885470000000  0.4542190000000  0.5764810000000 1.0
C      1  0.4680260000000  0.4983810000000  0.4934010000000 1.0
C      1  0.4611190000000  0.4399780000000  0.4324930000000 1.0
C      1  0.4362230000000  0.4967020000000  0.5721920000000 1.0
C      1  0.5860560000000  0.4662140000000  0.4997880000000 1.0
C      1  0.4254480000000  0.5404860000000  0.5289490000000 1.0
C      1  0.4991880000000  0.4398940000000  0.4442070000000 1.0
C      1  0.5570850000000  0.4442700000000  0.4188440000000 1.0
C      1  0.5531630000000  0.5047210000000  0.4967900000000 1.0
C      1  0.4615200000000  0.5517000000000  0.4524810000000 1.0
C      1  0.5912550000000  0.5127180000000  0.5059060000000 1.0
C      1  0.4952160000000  0.4186160000000  0.4658860000000 1.0
C      1  0.5152880000000  0.5844690000000  0.5208330000000 1.0
C      1  0.5169770000000  0.5181000000000  0.4125370000000 1.0
C      1  0.5287910000000  0.4974630000000  0.5274980000000 1.0
C      1  0.4237000000000  0.4787540000000  0.5171800000000 1.0
C      1  0.5338260000000  0.5535400000000  0.5670050000000 1.0
C      1  0.4958720000000  0.4287010000000  0.5055940000000 1.0
C      1  0.4573580000000  0.5575490000000  0.4970320000000 1.0
C      1  0.4739610000000  0.4961080000000  0.6044700000000 1.0
C      1  0.5563980000000  0.5232690000000  0.4685690000000 1.0
C      1  0.5031680000000  0.5970030000000  0.4998800000000 1.0
C      1  0.4766300000000  0.4095190000000  0.5077940000000 1.0
C      1  0.4973340000000  0.4573670000000  0.5238220000000 1.0
C      1  0.5333240000000  0.4283750000000  0.5172470000000 1.0
C      1  0.4409920000000  0.4352480000000  0.5242750000000 1.0
C      1  0.5312160000000  0.4305240000000  0.5446460000000 1.0
C      1  0.4867870000000  0.4343040000000  0.4166740000000 1.0
C      1  0.4691540000000  0.6141210000000  0.4708110000000 1.0
C      1  0.5482250000000  0.4553000000000  0.4423910000000 1.0
C      1  0.4431410000000  0.4997010000000  0.4440470000000 1.0
END
