TITL C-2847946-5639-543 0.000482095948749605 125000 -148.272554431654 0 0 26 (C1) n - 1
REM
REM in /home/bkarasulu/work/CARBON/AIRSS/Generating-Clusters/AIREBO/with-SteepDescent/Only-C1/SD-CG-opt/Try1-1.4A-POS3A/HFTN-CG
REM
REM
REM
REM
REM
REM ./C.cell (11c1c37f851c82e70ff6c80c92926a4b)
REM
REM compiler GCC version 9.2.1 20190827 (Red Hat 9.2.1-1)
REM options -cpp -mtune=generic -march=x86-64 -g -O0 -fpre-include=/usr/include/finclude/math-vector-fortran.h
REM seed 1592710167 -1877450510 620684344 1409366479 -1598032281 -1504695785 1788200065 -389321141 -230188218 152249055 376548906 -707077933 -61290270 2048756576 2103969071 -1704555449 220537761 1877355739 -804879424 1727190282 94707915 -33340757 175674165 245354888 762535054 2063575040 1655344549 -2110673871 124198980 -102917730 -1173690443 -687818123 400417617
REM
CELL 1.54180   50.00000   50.00000   50.00000   90.00000   90.00000   90.00000
LATT -1
SFAC C  
C      1  0.4858820000000  0.5352090000000  0.4684670000000 1.0
C      1  0.4681540000000  0.4965470000000  0.5074050000000 1.0
C      1  0.5326330000000  0.4933000000000  0.5252310000000 1.0
C      1  0.4705730000000  0.4822300000000  0.4837850000000 1.0
C      1  0.4414950000000  0.5304040000000  0.5278870000000 1.0
C      1  0.5471580000000  0.5395720000000  0.4466960000000 1.0
C      1  0.4813010000000  0.4422630000000  0.5428190000000 1.0
C      1  0.5497350000000  0.4999380000000  0.4875640000000 1.0
C      1  0.4667510000000  0.5011560000000  0.5569370000000 1.0
C      1  0.4944540000000  0.5533900000000  0.5118380000000 1.0
C      1  0.4579950000000  0.5232650000000  0.5059040000000 1.0
C      1  0.5429950000000  0.4492930000000  0.4802650000000 1.0
C      1  0.4847930000000  0.4923200000000  0.5328330000000 1.0
C      1  0.5430000000000  0.4717270000000  0.5009430000000 1.0
C      1  0.5019370000000  0.4610000000000  0.4535520000000 1.0
C      1  0.4925530000000  0.5087430000000  0.4519240000000 1.0
C      1  0.5446700000000  0.5178990000000  0.4695820000000 1.0
C      1  0.4763860000000  0.5414010000000  0.4935360000000 1.0
C      1  0.4487710000000  0.5217760000000  0.5532770000000 1.0
C      1  0.5230220000000  0.4638630000000  0.5269590000000 1.0
C      1  0.5164850000000  0.5307120000000  0.4574280000000 1.0
C      1  0.5261980000000  0.4499360000000  0.4588490000000 1.0
C      1  0.4965620000000  0.4634730000000  0.5350540000000 1.0
C      1  0.5113090000000  0.5098530000000  0.5310090000000 1.0
C      1  0.5084730000000  0.5374480000000  0.5293720000000 1.0
C      1  0.4867160000000  0.4832830000000  0.4608820000000 1.0
END
