TITL C-2848500-1637-191 -0.00253874078736315 125000 -677.418522431902 0 0 125 (C1) n - 1
REM
REM in /home/bkarasulu/work/CARBON/AIRSS/Generating-Clusters/AIREBO/with-SteepDescent/Only-C1/SD-CG-opt/Try1-1.4A-POS3A/HFTN-CG
REM
REM
REM
REM
REM
REM ./C.cell (11c1c37f851c82e70ff6c80c92926a4b)
REM
REM compiler GCC version 9.2.1 20190827 (Red Hat 9.2.1-1)
REM options -cpp -mtune=generic -march=x86-64 -g -O0 -fpre-include=/usr/include/finclude/math-vector-fortran.h
REM seed 84849288 -610778905 -1625359599 1252916460 -565131905 -1446859846 -175265117 -1214326059 -648022014 671617153 -1382776052 -154148559 -195605172 -1503526877 1622200258 129347767 364582504 -1958359848 1522708075 -73296447 1801580032 -1572031585 -1521715463 -1192020389 877320440 -185819560 313690069 -1950031345 -1415984154 2080501532 112622531 1675186617 -1018533674
REM
CELL 1.54180   50.00000   50.00000   50.00000   90.00000   90.00000   90.00000
LATT -1
SFAC C  
C      1  0.5512530000000  0.4688820000000  0.5739370000000 1.0
C      1  0.5332800000000  0.5030590000000  0.5637150000000 1.0
C      1  0.4674710000000  0.5932220000000  0.5369230000000 1.0
C      1  0.5317830000000  0.4785590000000  0.5404600000000 1.0
C      1  0.5311600000000  0.4691080000000  0.4406280000000 1.0
C      1  0.4439780000000  0.5710760000000  0.5284690000000 1.0
C      1  0.5572160000000  0.5539250000000  0.4549740000000 1.0
C      1  0.5597630000000  0.5068770000000  0.5792260000000 1.0
C      1  0.4258490000000  0.5058140000000  0.4965220000000 1.0
C      1  0.5643570000000  0.4070150000000  0.4613120000000 1.0
C      1  0.5337860000000  0.4418180000000  0.4261290000000 1.0
C      1  0.4770430000000  0.5991580000000  0.4765850000000 1.0
C      1  0.5024970000000  0.5206750000000  0.4915920000000 1.0
C      1  0.4939380000000  0.5561200000000  0.4372710000000 1.0
C      1  0.5307880000000  0.5411910000000  0.4721690000000 1.0
C      1  0.5442460000000  0.5596300000000  0.5122860000000 1.0
C      1  0.4223770000000  0.5217240000000  0.5499370000000 1.0
C      1  0.5578270000000  0.5373950000000  0.4272900000000 1.0
C      1  0.4053600000000  0.5135750000000  0.4486470000000 1.0
C      1  0.5446790000000  0.5755110000000  0.5382720000000 1.0
C      1  0.5289450000000  0.5226180000000  0.5401630000000 1.0
C      1  0.4298410000000  0.4753130000000  0.4123540000000 1.0
C      1  0.4511770000000  0.5109850000000  0.5886680000000 1.0
C      1  0.4922960000000  0.5564140000000  0.5256680000000 1.0
C      1  0.4805860000000  0.4535100000000  0.5011480000000 1.0
C      1  0.4738950000000  0.5076520000000  0.4959080000000 1.0
C      1  0.4857970000000  0.4297840000000  0.4305760000000 1.0
C      1  0.3987050000000  0.5183810000000  0.4877040000000 1.0
C      1  0.5642710000000  0.5753110000000  0.4945170000000 1.0
C      1  0.5076350000000  0.5007740000000  0.5820120000000 1.0
C      1  0.4469650000000  0.4919760000000  0.4247080000000 1.0
C      1  0.5085320000000  0.4789860000000  0.5172000000000 1.0
C      1  0.5798480000000  0.5218080000000  0.4479930000000 1.0
C      1  0.4308240000000  0.5417140000000  0.5250710000000 1.0
C      1  0.4927570000000  0.5342750000000  0.4619800000000 1.0
C      1  0.4727790000000  0.4170390000000  0.4592900000000 1.0
C      1  0.5557240000000  0.4640640000000  0.4969690000000 1.0
C      1  0.5218760000000  0.4708750000000  0.5839570000000 1.0
C      1  0.4209900000000  0.4589840000000  0.5728510000000 1.0
C      1  0.4859110000000  0.5499100000000  0.5584630000000 1.0
C      1  0.4967350000000  0.4188160000000  0.5350180000000 1.0
C      1  0.4460500000000  0.4262100000000  0.4761380000000 1.0
C      1  0.4642650000000  0.5379450000000  0.5201490000000 1.0
C      1  0.5191030000000  0.5849520000000  0.5466350000000 1.0
C      1  0.4411080000000  0.5564570000000  0.5793360000000 1.0
C      1  0.5180830000000  0.3964840000000  0.5452260000000 1.0
C      1  0.5784300000000  0.5375190000000  0.5411240000000 1.0
C      1  0.5903990000000  0.5070660000000  0.5329520000000 1.0
C      1  0.4602620000000  0.5680740000000  0.5581910000000 1.0
C      1  0.4759600000000  0.4910870000000  0.5829480000000 1.0
C      1  0.5038030000000  0.4523440000000  0.5722300000000 1.0
C      1  0.5163980000000  0.4627140000000  0.4883720000000 1.0
C      1  0.4637970000000  0.5836360000000  0.5038490000000 1.0
C      1  0.5695000000000  0.4881770000000  0.5525510000000 1.0
C      1  0.4230930000000  0.4860490000000  0.5142790000000 1.0
C      1  0.4974200000000  0.6042300000000  0.4971770000000 1.0
C      1  0.4197110000000  0.4701130000000  0.4773600000000 1.0
C      1  0.4835250000000  0.4101900000000  0.5052070000000 1.0
C      1  0.4969390000000  0.4575930000000  0.4143800000000 1.0
C      1  0.4784630000000  0.4891200000000  0.4335540000000 1.0
C      1  0.4567760000000  0.5656850000000  0.4688620000000 1.0
C      1  0.4253450000000  0.4901410000000  0.5626670000000 1.0
C      1  0.4790000000000  0.5162410000000  0.5363180000000 1.0
C      1  0.5621240000000  0.5037750000000  0.4249380000000 1.0
C      1  0.5135560000000  0.5518410000000  0.4995120000000 1.0
C      1  0.4489020000000  0.5242130000000  0.4940120000000 1.0
C      1  0.5423740000000  0.4495130000000  0.5151100000000 1.0
C      1  0.4728600000000  0.4637120000000  0.5688590000000 1.0
C      1  0.5463410000000  0.4485480000000  0.5471280000000 1.0
C      1  0.5220040000000  0.5718620000000  0.4603980000000 1.0
C      1  0.4762810000000  0.5287760000000  0.4295670000000 1.0
C      1  0.5771360000000  0.4821870000000  0.4809910000000 1.0
C      1  0.5294950000000  0.5022780000000  0.4811270000000 1.0
C      1  0.5275190000000  0.5519110000000  0.4338060000000 1.0
C      1  0.4084080000000  0.4946030000000  0.5364020000000 1.0
C      1  0.5607540000000  0.4204740000000  0.5526610000000 1.0
C      1  0.4895110000000  0.5079440000000  0.4074310000000 1.0
C      1  0.5160430000000  0.4319100000000  0.4739390000000 1.0
C      1  0.4834670000000  0.5615760000000  0.4870220000000 1.0
C      1  0.4757360000000  0.4870190000000  0.5217460000000 1.0
C      1  0.5620440000000  0.5569840000000  0.5563640000000 1.0
C      1  0.5451660000000  0.3982500000000  0.5482300000000 1.0
C      1  0.5898940000000  0.5287430000000  0.4742600000000 1.0
C      1  0.5167900000000  0.4237730000000  0.4218880000000 1.0
C      1  0.5159690000000  0.5145180000000  0.4545890000000 1.0
C      1  0.4481930000000  0.4687670000000  0.5185460000000 1.0
C      1  0.5129830000000  0.5630670000000  0.5639500000000 1.0
C      1  0.6095680000000  0.4814220000000  0.4911720000000 1.0
C      1  0.5532570000000  0.5213630000000  0.4882390000000 1.0
C      1  0.4975800000000  0.5230270000000  0.3851790000000 1.0
C      1  0.5726130000000  0.5716110000000  0.4712870000000 1.0
C      1  0.6111850000000  0.4780540000000  0.4613720000000 1.0
C      1  0.4833330000000  0.5193810000000  0.5664590000000 1.0
C      1  0.4488340000000  0.5200080000000  0.4324990000000 1.0
C      1  0.4938160000000  0.4114410000000  0.4789380000000 1.0
C      1  0.4504010000000  0.4583300000000  0.4862380000000 1.0
C      1  0.5070180000000  0.5117560000000  0.5233220000000 1.0
C      1  0.4285570000000  0.5297040000000  0.4479640000000 1.0
C      1  0.4951550000000  0.4497500000000  0.4547620000000 1.0
C      1  0.5162100000000  0.4375980000000  0.5517380000000 1.0
C      1  0.5421070000000  0.4187060000000  0.4657590000000 1.0
C      1  0.5540790000000  0.5281010000000  0.5203940000000 1.0
C      1  0.4681650000000  0.4324640000000  0.5562830000000 1.0
C      1  0.4019670000000  0.4908530000000  0.4684550000000 1.0
C      1  0.5825100000000  0.4888740000000  0.4479210000000 1.0
C      1  0.4144030000000  0.5438320000000  0.4977740000000 1.0
C      1  0.4463290000000  0.4656380000000  0.5516400000000 1.0
C      1  0.6135630000000  0.4904860000000  0.5161610000000 1.0
C      1  0.5396030000000  0.4738460000000  0.4700960000000 1.0
C      1  0.5092680000000  0.4816030000000  0.4096060000000 1.0
C      1  0.4971670000000  0.5900540000000  0.5248340000000 1.0
C      1  0.5541740000000  0.4943670000000  0.5246680000000 1.0
C      1  0.4823990000000  0.4819150000000  0.4827290000000 1.0
C      1  0.5095280000000  0.4396150000000  0.5123600000000 1.0
C      1  0.5830020000000  0.5100800000000  0.4995500000000 1.0
C      1  0.4559430000000  0.4109290000000  0.5032130000000 1.0
C      1  0.4211660000000  0.4196120000000  0.4655140000000 1.0
C      1  0.4367920000000  0.5448360000000  0.4728180000000 1.0
C      1  0.4786440000000  0.5804290000000  0.4517270000000 1.0
C      1  0.5366850000000  0.4907800000000  0.4195330000000 1.0
C      1  0.5036710000000  0.4827860000000  0.4552630000000 1.0
C      1  0.4091930000000  0.4420810000000  0.5875400000000 1.0
C      1  0.4666330000000  0.4680600000000  0.4574860000000 1.0
C      1  0.4356220000000  0.5297590000000  0.5770620000000 1.0
C      1  0.5341440000000  0.5450560000000  0.5619070000000 1.0
END
