TITL C-2847953-8112-311 -0.00193517111608308 125000 -707.199072672751 0 0 133 (C1) n - 1
REM
REM in /home/bkarasulu/work/CARBON/AIRSS/Generating-Clusters/AIREBO/with-SteepDescent/Only-C1/SD-CG-opt/Try1-1.4A-POS3A/HFTN-CG
REM
REM
REM
REM
REM
REM ./C.cell (11c1c37f851c82e70ff6c80c92926a4b)
REM
REM compiler GCC version 9.2.1 20190827 (Red Hat 9.2.1-1)
REM options -cpp -mtune=generic -march=x86-64 -g -O0 -fpre-include=/usr/include/finclude/math-vector-fortran.h
REM seed -1333004715 -2123738713 -2121675811 -2056012973 -1720508410 -1553843629 -295279926 -138035682 -2074179636 -218130136 -2038444032 55830993 2051353507 -1992178978 -1384329762 624080811 -2066575058 1331551085 -632923429 -1001852561 -2000140754 535055564 1483478800 -1797656746 -2099617140 -1480136081 555847134 1909159651 252425445 -370958403 -415693844 927110261 920951428
REM
CELL 1.54180   50.00000   50.00000   50.00000   90.00000   90.00000   90.00000
LATT -1
SFAC C  
C      1  0.5300900000000  0.5741430000000  0.5571720000000 1.0
C      1  0.5378370000000  0.5261610000000  0.5785650000000 1.0
C      1  0.5019390000000  0.4820120000000  0.6065150000000 1.0
C      1  0.4832410000000  0.4398700000000  0.5393510000000 1.0
C      1  0.4335900000000  0.5516300000000  0.5463320000000 1.0
C      1  0.4790580000000  0.5421530000000  0.4736290000000 1.0
C      1  0.5442800000000  0.4552590000000  0.5508580000000 1.0
C      1  0.5741560000000  0.5190030000000  0.4437650000000 1.0
C      1  0.5459180000000  0.5694500000000  0.5274400000000 1.0
C      1  0.4978060000000  0.5087570000000  0.4256390000000 1.0
C      1  0.5476690000000  0.5565450000000  0.4512280000000 1.0
C      1  0.3919670000000  0.5342170000000  0.5180690000000 1.0
C      1  0.5777840000000  0.5687240000000  0.5034400000000 1.0
C      1  0.5228420000000  0.4993940000000  0.5656330000000 1.0
C      1  0.4615240000000  0.4746520000000  0.5047370000000 1.0
C      1  0.4468120000000  0.6024810000000  0.5103810000000 1.0
C      1  0.4664300000000  0.5117050000000  0.4384050000000 1.0
C      1  0.4558830000000  0.4285730000000  0.5288090000000 1.0
C      1  0.4645760000000  0.5584950000000  0.4998160000000 1.0
C      1  0.5225430000000  0.4238210000000  0.5660990000000 1.0
C      1  0.4556420000000  0.4681160000000  0.4116760000000 1.0
C      1  0.5382180000000  0.5402610000000  0.4241930000000 1.0
C      1  0.4506120000000  0.5772580000000  0.5567320000000 1.0
C      1  0.4113040000000  0.4917440000000  0.5022530000000 1.0
C      1  0.4160310000000  0.5510640000000  0.5095620000000 1.0
C      1  0.5747650000000  0.5523930000000  0.5332040000000 1.0
C      1  0.4959630000000  0.5108520000000  0.5482210000000 1.0
C      1  0.5930860000000  0.4960820000000  0.4496290000000 1.0
C      1  0.4761130000000  0.5809040000000  0.5462830000000 1.0
C      1  0.5839070000000  0.5387510000000  0.4823090000000 1.0
C      1  0.5538390000000  0.5305620000000  0.6014240000000 1.0
C      1  0.4756900000000  0.5857480000000  0.5168660000000 1.0
C      1  0.4913890000000  0.5096450000000  0.6060860000000 1.0
C      1  0.4322150000000  0.4721160000000  0.4915940000000 1.0
C      1  0.4985830000000  0.4135720000000  0.5498780000000 1.0
C      1  0.5742990000000  0.5669280000000  0.4696550000000 1.0
C      1  0.5307080000000  0.5222690000000  0.5224920000000 1.0
C      1  0.4816500000000  0.5360280000000  0.5661440000000 1.0
C      1  0.5236480000000  0.4161600000000  0.4517370000000 1.0
C      1  0.5028030000000  0.5476140000000  0.4960970000000 1.0
C      1  0.5059060000000  0.4030660000000  0.4919290000000 1.0
C      1  0.4833710000000  0.4665880000000  0.5889020000000 1.0
C      1  0.4462400000000  0.5350380000000  0.4323540000000 1.0
C      1  0.5561360000000  0.5103510000000  0.5033020000000 1.0
C      1  0.5234010000000  0.4743730000000  0.5320140000000 1.0
C      1  0.4512780000000  0.4993110000000  0.5354150000000 1.0
C      1  0.5300670000000  0.4510160000000  0.5757800000000 1.0
C      1  0.4582420000000  0.5607450000000  0.4431800000000 1.0
C      1  0.5469880000000  0.4871860000000  0.4188270000000 1.0
C      1  0.5420530000000  0.4370520000000  0.4322210000000 1.0
C      1  0.4128500000000  0.4554460000000  0.5223550000000 1.0
C      1  0.4207650000000  0.5032090000000  0.5492130000000 1.0
C      1  0.4655600000000  0.4400840000000  0.4597370000000 1.0
C      1  0.4911520000000  0.5229920000000  0.5167920000000 1.0
C      1  0.4317980000000  0.4900580000000  0.4471470000000 1.0
C      1  0.4390020000000  0.5705820000000  0.5186870000000 1.0
C      1  0.4516730000000  0.4708150000000  0.4660930000000 1.0
C      1  0.5150330000000  0.4416600000000  0.5272660000000 1.0
C      1  0.4958770000000  0.4764070000000  0.4355910000000 1.0
C      1  0.5719340000000  0.4802990000000  0.5011420000000 1.0
C      1  0.5667870000000  0.4797710000000  0.4437700000000 1.0
C      1  0.4894080000000  0.4542950000000  0.4883780000000 1.0
C      1  0.5577650000000  0.5289660000000  0.5511390000000 1.0
C      1  0.4706430000000  0.5807750000000  0.4679750000000 1.0
C      1  0.5150420000000  0.5590220000000  0.5225770000000 1.0
C      1  0.5558200000000  0.5168380000000  0.4209560000000 1.0
C      1  0.5048330000000  0.5271570000000  0.5875320000000 1.0
C      1  0.4802640000000  0.4243800000000  0.4860980000000 1.0
C      1  0.4905320000000  0.5554210000000  0.4444890000000 1.0
C      1  0.4345090000000  0.4465820000000  0.5371910000000 1.0
C      1  0.4094810000000  0.5314230000000  0.5435510000000 1.0
C      1  0.5246340000000  0.4707610000000  0.4196330000000 1.0
C      1  0.4030630000000  0.5166190000000  0.4946000000000 1.0
C      1  0.4636110000000  0.4957170000000  0.4096470000000 1.0
C      1  0.5632160000000  0.4509860000000  0.4549540000000 1.0
C      1  0.4581870000000  0.4148450000000  0.5058030000000 1.0
C      1  0.4938190000000  0.4729020000000  0.5152490000000 1.0
C      1  0.5351130000000  0.4576120000000  0.5049090000000 1.0
C      1  0.5096090000000  0.5395520000000  0.4223320000000 1.0
C      1  0.5437530000000  0.4949460000000  0.4577690000000 1.0
C      1  0.4978700000000  0.5643860000000  0.5581060000000 1.0
C      1  0.5160750000000  0.6034570000000  0.5059740000000 1.0
C      1  0.5665960000000  0.4457120000000  0.5398850000000 1.0
C      1  0.4380120000000  0.5083520000000  0.5782140000000 1.0
C      1  0.5358130000000  0.4131720000000  0.4832730000000 1.0
C      1  0.5452050000000  0.4988730000000  0.5410380000000 1.0
C      1  0.5162520000000  0.5381030000000  0.5468150000000 1.0
C      1  0.4550960000000  0.4821350000000  0.5849520000000 1.0
C      1  0.5146640000000  0.4875960000000  0.4690780000000 1.0
C      1  0.5976490000000  0.5153990000000  0.4950570000000 1.0
C      1  0.6008090000000  0.4386580000000  0.4922790000000 1.0
C      1  0.4785590000000  0.4840830000000  0.5602880000000 1.0
C      1  0.4145960000000  0.4339730000000  0.4668420000000 1.0
C      1  0.5260220000000  0.5404780000000  0.4719700000000 1.0
C      1  0.5181300000000  0.5701820000000  0.4463810000000 1.0
C      1  0.5475360000000  0.5435620000000  0.5054160000000 1.0
C      1  0.5324570000000  0.4872920000000  0.4953100000000 1.0
C      1  0.4621210000000  0.5091290000000  0.6028380000000 1.0
C      1  0.5734880000000  0.4473600000000  0.5090190000000 1.0
C      1  0.4628760000000  0.5086250000000  0.5045440000000 1.0
C      1  0.4343010000000  0.4642090000000  0.4307570000000 1.0
C      1  0.4800030000000  0.4553820000000  0.4170150000000 1.0
C      1  0.4714480000000  0.5107870000000  0.4716640000000 1.0
C      1  0.4437530000000  0.5605920000000  0.4731190000000 1.0
C      1  0.5167670000000  0.5151200000000  0.4531490000000 1.0
C      1  0.5554770000000  0.5233010000000  0.4718570000000 1.0
C      1  0.4285240000000  0.5174020000000  0.4494980000000 1.0
C      1  0.4244400000000  0.5326020000000  0.4754360000000 1.0
C      1  0.5465030000000  0.4280130000000  0.5068180000000 1.0
C      1  0.4137990000000  0.4466070000000  0.4920870000000 1.0
C      1  0.5570860000000  0.4179070000000  0.4571730000000 1.0
C      1  0.4869230000000  0.5046780000000  0.3933220000000 1.0
C      1  0.5390050000000  0.5994790000000  0.5159540000000 1.0
C      1  0.4915990000000  0.4236750000000  0.4478430000000 1.0
C      1  0.5234140000000  0.5810080000000  0.4729050000000 1.0
C      1  0.4963720000000  0.5805360000000  0.4903870000000 1.0
C      1  0.5056500000000  0.4986870000000  0.5058650000000 1.0
C      1  0.4616750000000  0.4670190000000  0.5378710000000 1.0
C      1  0.4054150000000  0.4834310000000  0.5297440000000 1.0
C      1  0.5219880000000  0.4760710000000  0.5856260000000 1.0
C      1  0.5091710000000  0.4407600000000  0.4242430000000 1.0
C      1  0.5474280000000  0.5725790000000  0.4876890000000 1.0
C      1  0.5860220000000  0.4637920000000  0.4749520000000 1.0
C      1  0.4916470000000  0.3950800000000  0.4621310000000 1.0
C      1  0.5084080000000  0.3987230000000  0.5230050000000 1.0
C      1  0.6015990000000  0.4938540000000  0.4781600000000 1.0
C      1  0.4836390000000  0.4793640000000  0.4671060000000 1.0
C      1  0.4523620000000  0.5269010000000  0.5553270000000 1.0
C      1  0.4349630000000  0.4399670000000  0.4473630000000 1.0
C      1  0.4389480000000  0.5297050000000  0.5060580000000 1.0
C      1  0.5809260000000  0.5220420000000  0.5234380000000 1.0
C      1  0.5353450000000  0.4155550000000  0.5351410000000 1.0
C      1  0.5697480000000  0.4846840000000  0.5315990000000 1.0
END
