TITL C-2848500-1637-560 -0.000895288266392792 125000 -441.06440729711 0 0 82 (C1) n - 1
REM
REM in /home/bkarasulu/work/CARBON/AIRSS/Generating-Clusters/AIREBO/with-SteepDescent/Only-C1/SD-CG-opt/Try1-1.4A-POS3A/HFTN-CG
REM
REM
REM
REM
REM
REM ./C.cell (11c1c37f851c82e70ff6c80c92926a4b)
REM
REM compiler GCC version 9.2.1 20190827 (Red Hat 9.2.1-1)
REM options -cpp -mtune=generic -march=x86-64 -g -O0 -fpre-include=/usr/include/finclude/math-vector-fortran.h
REM seed 1781873897 -544607428 1943612150 644414071 1596129726 922544904 -2044597698 -229440765 4057847 70744645 -1892489251 1115099311 -1368155352 -1134919623 1818102525 -1694719072 -97822335 -392294647 770273198 675817032 -1083150186 1322455449 380571922 -545507915 -1906118253 -1990582276 -1510796965 -1295880281 -1257807687 -259858436 -96340338 -1806710249 1635483583
REM
CELL 1.54180   50.00000   50.00000   50.00000   90.00000   90.00000   90.00000
LATT -1
SFAC C  
C      1  0.4956600000000  0.4410190000000  0.5655360000000 1.0
C      1  0.4590880000000  0.5372840000000  0.4941010000000 1.0
C      1  0.4608270000000  0.5321350000000  0.4512930000000 1.0
C      1  0.4556510000000  0.5582220000000  0.4606060000000 1.0
C      1  0.5345430000000  0.5924500000000  0.5142250000000 1.0
C      1  0.5474950000000  0.4586050000000  0.5191540000000 1.0
C      1  0.4789960000000  0.5151560000000  0.4926250000000 1.0
C      1  0.5223380000000  0.5075730000000  0.4139170000000 1.0
C      1  0.4607980000000  0.4368950000000  0.4699700000000 1.0
C      1  0.4934120000000  0.4289550000000  0.4754790000000 1.0
C      1  0.4768330000000  0.5649760000000  0.4853470000000 1.0
C      1  0.4878820000000  0.4354040000000  0.5078600000000 1.0
C      1  0.5133500000000  0.5282470000000  0.5073860000000 1.0
C      1  0.5422640000000  0.4669500000000  0.4807530000000 1.0
C      1  0.4574120000000  0.4789370000000  0.4402840000000 1.0
C      1  0.4880330000000  0.5782490000000  0.5362790000000 1.0
C      1  0.5258290000000  0.4651870000000  0.4539830000000 1.0
C      1  0.5010020000000  0.4375090000000  0.4236520000000 1.0
C      1  0.5415360000000  0.4762360000000  0.4295960000000 1.0
C      1  0.4427820000000  0.4670420000000  0.5436390000000 1.0
C      1  0.4683310000000  0.5190600000000  0.5386240000000 1.0
C      1  0.5390270000000  0.5214350000000  0.5372490000000 1.0
C      1  0.5409340000000  0.4558770000000  0.5474760000000 1.0
C      1  0.4500060000000  0.4739220000000  0.4998290000000 1.0
C      1  0.5565300000000  0.4992490000000  0.4325780000000 1.0
C      1  0.4893920000000  0.5398470000000  0.5467050000000 1.0
C      1  0.4967290000000  0.4677050000000  0.5822770000000 1.0
C      1  0.5427340000000  0.5440320000000  0.5130780000000 1.0
C      1  0.4977460000000  0.4627470000000  0.4105240000000 1.0
C      1  0.4265690000000  0.4950230000000  0.4755840000000 1.0
C      1  0.5035340000000  0.5269200000000  0.4751910000000 1.0
C      1  0.4978650000000  0.5044990000000  0.4322790000000 1.0
C      1  0.4796790000000  0.4806410000000  0.4239100000000 1.0
C      1  0.5401820000000  0.5290850000000  0.4332950000000 1.0
C      1  0.4299720000000  0.5221950000000  0.4967630000000 1.0
C      1  0.4910580000000  0.5093440000000  0.5210480000000 1.0
C      1  0.5072700000000  0.5665850000000  0.4743270000000 1.0
C      1  0.5468560000000  0.5065250000000  0.4773610000000 1.0
C      1  0.5054250000000  0.4907120000000  0.5616740000000 1.0
C      1  0.4670830000000  0.4777460000000  0.5786420000000 1.0
C      1  0.4457300000000  0.5484810000000  0.5240770000000 1.0
C      1  0.5345740000000  0.5704970000000  0.5304480000000 1.0
C      1  0.4981280000000  0.4797420000000  0.5302570000000 1.0
C      1  0.5526510000000  0.4354000000000  0.5030140000000 1.0
C      1  0.5327580000000  0.4124930000000  0.5084610000000 1.0
C      1  0.5207180000000  0.4359190000000  0.5494830000000 1.0
C      1  0.5254430000000  0.4181890000000  0.4793290000000 1.0
C      1  0.5328090000000  0.5044530000000  0.5715260000000 1.0
C      1  0.5626290000000  0.4888680000000  0.4947780000000 1.0
C      1  0.4765420000000  0.4305130000000  0.5383610000000 1.0
C      1  0.4883440000000  0.5180200000000  0.5727430000000 1.0
C      1  0.5179070000000  0.4982920000000  0.4818130000000 1.0
C      1  0.4365410000000  0.5161990000000  0.5295820000000 1.0
C      1  0.4602620000000  0.5047440000000  0.5757180000000 1.0
C      1  0.5724130000000  0.5278260000000  0.5167080000000 1.0
C      1  0.5676900000000  0.4999290000000  0.5196120000000 1.0
C      1  0.4940470000000  0.5407740000000  0.5945160000000 1.0
C      1  0.4705250000000  0.5671220000000  0.5179670000000 1.0
C      1  0.4909150000000  0.5315980000000  0.4442530000000 1.0
C      1  0.5182580000000  0.5519920000000  0.4456050000000 1.0
C      1  0.5024130000000  0.5634740000000  0.5861240000000 1.0
C      1  0.4808160000000  0.4664390000000  0.5041790000000 1.0
C      1  0.4370790000000  0.4831840000000  0.5228060000000 1.0
C      1  0.5385300000000  0.5542430000000  0.4809120000000 1.0
C      1  0.5304140000000  0.5864780000000  0.4880540000000 1.0
C      1  0.4947790000000  0.5565210000000  0.4214330000000 1.0
C      1  0.5232050000000  0.4770440000000  0.4056150000000 1.0
C      1  0.5102070000000  0.4391020000000  0.4494020000000 1.0
C      1  0.4443660000000  0.4666640000000  0.4691850000000 1.0
C      1  0.5027440000000  0.4857150000000  0.4568550000000 1.0
C      1  0.5484360000000  0.4368410000000  0.4712800000000 1.0
C      1  0.4545280000000  0.5043920000000  0.4620980000000 1.0
C      1  0.5476510000000  0.4891380000000  0.5449830000000 1.0
C      1  0.5308770000000  0.5356000000000  0.5624800000000 1.0
C      1  0.4027350000000  0.5158630000000  0.4803070000000 1.0
C      1  0.4796970000000  0.4873740000000  0.4773740000000 1.0
C      1  0.5122770000000  0.5629540000000  0.5545970000000 1.0
C      1  0.4753770000000  0.4627740000000  0.5490470000000 1.0
C      1  0.5481170000000  0.5314540000000  0.4642040000000 1.0
C      1  0.5235230000000  0.4769030000000  0.5073930000000 1.0
C      1  0.4374790000000  0.5144230000000  0.5635330000000 1.0
C      1  0.5132140000000  0.4221860000000  0.5257890000000 1.0
END
