TITL C-2848495-5024-107 -0.00300299711543335 125000 -875.047482485119 0 0 160 (C1) n - 1
REM
REM in /home/bkarasulu/work/CARBON/AIRSS/Generating-Clusters/AIREBO/with-SteepDescent/Only-C1/SD-CG-opt/Try1-1.4A-POS3A/HFTN-CG
REM
REM
REM
REM
REM
REM ./C.cell (11c1c37f851c82e70ff6c80c92926a4b)
REM
REM compiler GCC version 9.2.1 20190827 (Red Hat 9.2.1-1)
REM options -cpp -mtune=generic -march=x86-64 -g -O0 -fpre-include=/usr/include/finclude/math-vector-fortran.h
REM seed -118715151 -1576592194 209680608 1412393218 141215854 1602474089 -499651090 1596385505 -1678003372 1423027207 229378581 390801587 -564325982 96410920 -1957920306 935468871 -1669279445 -1668920138 -314730526 1832709158 1657810926 -1433778711 538966484 439372061 546435853 695225028 -2124119006 -1871637983 741622184 396725571 -1832836747 860898997 270553419
REM
CELL 1.54180   50.00000   50.00000   50.00000   90.00000   90.00000   90.00000
LATT -1
SFAC C  
C      1  0.4048580000000  0.5384710000000  0.5105480000000 1.0
C      1  0.5345280000000  0.5041020000000  0.5921700000000 1.0
C      1  0.5097670000000  0.4788330000000  0.3862130000000 1.0
C      1  0.5801000000000  0.5083540000000  0.4024320000000 1.0
C      1  0.4594680000000  0.5108370000000  0.4524340000000 1.0
C      1  0.5015620000000  0.4395230000000  0.5089550000000 1.0
C      1  0.5335890000000  0.4923580000000  0.3839880000000 1.0
C      1  0.4308700000000  0.5403350000000  0.4982060000000 1.0
C      1  0.4718160000000  0.5919090000000  0.4528970000000 1.0
C      1  0.4285580000000  0.4044570000000  0.4861670000000 1.0
C      1  0.5705450000000  0.4771290000000  0.5719010000000 1.0
C      1  0.6130400000000  0.4900710000000  0.4662160000000 1.0
C      1  0.4983960000000  0.4070480000000  0.5348740000000 1.0
C      1  0.4855500000000  0.4293600000000  0.5571120000000 1.0
C      1  0.3939450000000  0.4454610000000  0.4535110000000 1.0
C      1  0.5544490000000  0.5215640000000  0.4677580000000 1.0
C      1  0.5367480000000  0.5999880000000  0.4872060000000 1.0
C      1  0.5060950000000  0.4151400000000  0.4413090000000 1.0
C      1  0.5174860000000  0.5387600000000  0.4443400000000 1.0
C      1  0.4927790000000  0.5294250000000  0.4203110000000 1.0
C      1  0.4677660000000  0.4456200000000  0.5346760000000 1.0
C      1  0.4138360000000  0.4610650000000  0.5519160000000 1.0
C      1  0.4159850000000  0.5056990000000  0.4188150000000 1.0
C      1  0.4539480000000  0.4413440000000  0.4710260000000 1.0
C      1  0.5609640000000  0.4891220000000  0.4755840000000 1.0
C      1  0.5794670000000  0.4753550000000  0.5005670000000 1.0
C      1  0.4305330000000  0.4409210000000  0.5632150000000 1.0
C      1  0.4932480000000  0.5315460000000  0.5275710000000 1.0
C      1  0.5672480000000  0.5248420000000  0.5574000000000 1.0
C      1  0.4039450000000  0.4627450000000  0.5248490000000 1.0
C      1  0.5321590000000  0.5051820000000  0.5133440000000 1.0
C      1  0.4963680000000  0.5234620000000  0.5603180000000 1.0
C      1  0.5396530000000  0.5609350000000  0.4355340000000 1.0
C      1  0.4561600000000  0.4300470000000  0.5153230000000 1.0
C      1  0.4830220000000  0.5612640000000  0.5234070000000 1.0
C      1  0.5919870000000  0.5102890000000  0.4282800000000 1.0
C      1  0.4688500000000  0.5749560000000  0.4800690000000 1.0
C      1  0.5290970000000  0.4103770000000  0.5497920000000 1.0
C      1  0.5831210000000  0.4457210000000  0.4858340000000 1.0
C      1  0.5920420000000  0.4630330000000  0.5298140000000 1.0
C      1  0.5183160000000  0.4850960000000  0.5803150000000 1.0
C      1  0.5096590000000  0.4451720000000  0.5390750000000 1.0
C      1  0.4664020000000  0.5406450000000  0.5940590000000 1.0
C      1  0.5013580000000  0.4544200000000  0.5988380000000 1.0
C      1  0.4051400000000  0.4471550000000  0.5011880000000 1.0
C      1  0.4860290000000  0.4149610000000  0.4213370000000 1.0
C      1  0.4806230000000  0.3988380000000  0.5107620000000 1.0
C      1  0.4869450000000  0.4795000000000  0.5808310000000 1.0
C      1  0.4235350000000  0.5190190000000  0.5540250000000 1.0
C      1  0.4776800000000  0.4251920000000  0.4894410000000 1.0
C      1  0.5163290000000  0.6172700000000  0.5169040000000 1.0
C      1  0.4749580000000  0.4516070000000  0.4463370000000 1.0
C      1  0.4589670000000  0.5286490000000  0.4166410000000 1.0
C      1  0.5580380000000  0.4215380000000  0.5248220000000 1.0
C      1  0.5414890000000  0.4947590000000  0.4482900000000 1.0
C      1  0.5898670000000  0.5175350000000  0.5098890000000 1.0
C      1  0.4638030000000  0.4866470000000  0.4839220000000 1.0
C      1  0.4742770000000  0.5004520000000  0.5117720000000 1.0
C      1  0.5935860000000  0.5107160000000  0.5411810000000 1.0
C      1  0.4971770000000  0.5722190000000  0.4969290000000 1.0
C      1  0.5532820000000  0.5545230000000  0.5059420000000 1.0
C      1  0.5163400000000  0.4946070000000  0.5415290000000 1.0
C      1  0.4147020000000  0.4876700000000  0.5638720000000 1.0
C      1  0.5485440000000  0.5996470000000  0.5323550000000 1.0
C      1  0.4525020000000  0.4755960000000  0.4152300000000 1.0
C      1  0.4768970000000  0.4820460000000  0.4537450000000 1.0
C      1  0.5800570000000  0.5293450000000  0.4467800000000 1.0
C      1  0.4325090000000  0.4405240000000  0.4465830000000 1.0
C      1  0.5385850000000  0.4035900000000  0.4613600000000 1.0
C      1  0.4982470000000  0.5181080000000  0.4973990000000 1.0
C      1  0.4161900000000  0.5443190000000  0.4336020000000 1.0
C      1  0.5374930000000  0.5497330000000  0.4764300000000 1.0
C      1  0.5560990000000  0.4935790000000  0.4003700000000 1.0
C      1  0.5123180000000  0.4884640000000  0.4931060000000 1.0
C      1  0.4769420000000  0.4571750000000  0.6192530000000 1.0
C      1  0.4830200000000  0.4938580000000  0.5502400000000 1.0
C      1  0.4183640000000  0.5709190000000  0.5340660000000 1.0
C      1  0.4998410000000  0.4975860000000  0.4214720000000 1.0
C      1  0.4895760000000  0.5673890000000  0.4444850000000 1.0
C      1  0.5519020000000  0.4505490000000  0.5740650000000 1.0
C      1  0.5336410000000  0.4725910000000  0.5557100000000 1.0
C      1  0.4509730000000  0.5579570000000  0.5152130000000 1.0
C      1  0.5265040000000  0.5267840000000  0.5457190000000 1.0
C      1  0.5762470000000  0.5478590000000  0.5807630000000 1.0
C      1  0.4811710000000  0.4778930000000  0.4046830000000 1.0
C      1  0.4849970000000  0.5654250000000  0.5571340000000 1.0
C      1  0.4391210000000  0.4539390000000  0.4245200000000 1.0
C      1  0.5647000000000  0.5586300000000  0.4445270000000 1.0
C      1  0.5044260000000  0.4498680000000  0.3891480000000 1.0
C      1  0.5430470000000  0.4374220000000  0.4603980000000 1.0
C      1  0.5399170000000  0.4729060000000  0.4911340000000 1.0
C      1  0.5853820000000  0.5481770000000  0.4958340000000 1.0
C      1  0.5301220000000  0.5714430000000  0.5536980000000 1.0
C      1  0.4835430000000  0.4459410000000  0.4147810000000 1.0
C      1  0.4429470000000  0.5892480000000  0.5193580000000 1.0
C      1  0.4530620000000  0.5994410000000  0.4927300000000 1.0
C      1  0.5367030000000  0.4208750000000  0.4321370000000 1.0
C      1  0.5716880000000  0.4452590000000  0.4612080000000 1.0
C      1  0.4581290000000  0.3976970000000  0.4850930000000 1.0
C      1  0.5436770000000  0.5520090000000  0.5781740000000 1.0
C      1  0.4786250000000  0.6130810000000  0.4768550000000 1.0
C      1  0.5514140000000  0.5878060000000  0.5068740000000 1.0
C      1  0.4412050000000  0.4660310000000  0.4842940000000 1.0
C      1  0.4140480000000  0.5122330000000  0.4728360000000 1.0
C      1  0.4786210000000  0.5357420000000  0.4505790000000 1.0
C      1  0.5803510000000  0.4643190000000  0.4376550000000 1.0
C      1  0.5416330000000  0.4470120000000  0.5360770000000 1.0
C      1  0.5026080000000  0.5174710000000  0.4662910000000 1.0
C      1  0.4349340000000  0.4940680000000  0.5192700000000 1.0
C      1  0.4592820000000  0.5551670000000  0.5720550000000 1.0
C      1  0.5529450000000  0.4783070000000  0.4257090000000 1.0
C      1  0.3837280000000  0.5535040000000  0.5031300000000 1.0
C      1  0.5042890000000  0.6034180000000  0.4907090000000 1.0
C      1  0.5563390000000  0.4445480000000  0.4234730000000 1.0
C      1  0.4794500000000  0.4704480000000  0.5263220000000 1.0
C      1  0.5325670000000  0.4276650000000  0.5720020000000 1.0
C      1  0.5224120000000  0.5314310000000  0.5927490000000 1.0
C      1  0.4570890000000  0.4391080000000  0.5729970000000 1.0
C      1  0.5870720000000  0.5538500000000  0.4682640000000 1.0
C      1  0.5571120000000  0.5209820000000  0.5018380000000 1.0
C      1  0.5099350000000  0.4878490000000  0.4524500000000 1.0
C      1  0.4434580000000  0.5021360000000  0.4244280000000 1.0
C      1  0.4850840000000  0.5970030000000  0.5516510000000 1.0
C      1  0.4898210000000  0.5281560000000  0.5905040000000 1.0
C      1  0.5151360000000  0.5745420000000  0.4269100000000 1.0
C      1  0.4158820000000  0.4295240000000  0.4741540000000 1.0
C      1  0.4057190000000  0.5307190000000  0.4552010000000 1.0
C      1  0.5068990000000  0.4328210000000  0.5827260000000 1.0
C      1  0.5899250000000  0.4818080000000  0.5501820000000 1.0
C      1  0.5821730000000  0.4382050000000  0.5147660000000 1.0
C      1  0.5104610000000  0.5591400000000  0.5767670000000 1.0
C      1  0.5682300000000  0.3945160000000  0.5350650000000 1.0
C      1  0.4977770000000  0.4348690000000  0.4637780000000 1.0
C      1  0.5602820000000  0.5021950000000  0.5815770000000 1.0
C      1  0.4361540000000  0.5840330000000  0.5583440000000 1.0
C      1  0.4512390000000  0.5041460000000  0.5439380000000 1.0
C      1  0.5502800000000  0.5483080000000  0.5390340000000 1.0
C      1  0.6037510000000  0.4953180000000  0.4909980000000 1.0
C      1  0.5690870000000  0.5942210000000  0.5506980000000 1.0
C      1  0.4021400000000  0.5170400000000  0.5295340000000 1.0
C      1  0.5554270000000  0.5003630000000  0.5369630000000 1.0
C      1  0.5059410000000  0.5567540000000  0.4707950000000 1.0
C      1  0.5160620000000  0.5968100000000  0.5420060000000 1.0
C      1  0.4450710000000  0.5151130000000  0.4805200000000 1.0
C      1  0.4350120000000  0.4115880000000  0.5145340000000 1.0
C      1  0.4317100000000  0.5495330000000  0.5559980000000 1.0
C      1  0.6010260000000  0.4865270000000  0.4406440000000 1.0
C      1  0.3952080000000  0.4918870000000  0.5189880000000 1.0
C      1  0.4604130000000  0.5283740000000  0.5233750000000 1.0
C      1  0.4575520000000  0.6020410000000  0.5461250000000 1.0
C      1  0.4904470000000  0.4680750000000  0.4950090000000 1.0
C      1  0.5518760000000  0.4713670000000  0.5201720000000 1.0
C      1  0.5254480000000  0.4164340000000  0.5165310000000 1.0
C      1  0.3948990000000  0.4632760000000  0.4766040000000 1.0
C      1  0.5198410000000  0.4586740000000  0.4676680000000 1.0
C      1  0.5731680000000  0.5670710000000  0.5557750000000 1.0
C      1  0.4157030000000  0.4847470000000  0.4928050000000 1.0
C      1  0.4400900000000  0.5487290000000  0.4199380000000 1.0
C      1  0.4628440000000  0.4595620000000  0.5910270000000 1.0
C      1  0.5019690000000  0.5417060000000  0.3955460000000 1.0
END
