TITL C-2847957-7266-147 0.010140634966913 125000 -130.218985043682 0 0 24 (C1) n - 1
REM
REM in /home/bkarasulu/work/CARBON/AIRSS/Generating-Clusters/AIREBO/with-SteepDescent/Only-C1/SD-CG-opt/Try1-1.4A-POS3A/HFTN-CG
REM
REM
REM
REM
REM
REM ./C.cell (11c1c37f851c82e70ff6c80c92926a4b)
REM
REM compiler GCC version 9.2.1 20190827 (Red Hat 9.2.1-1)
REM options -cpp -mtune=generic -march=x86-64 -g -O0 -fpre-include=/usr/include/finclude/math-vector-fortran.h
REM seed 561101547 -874233058 -461946500 -294550361 -909948142 -1324402790 -712508879 -1631777610 -1342916103 885083370 -1311449222 723679836 613245793 1891485516 415763656 680026153 774094538 -725172428 755534307 1306149159 900938920 -1488157543 1435026236 1436255213 913811576 1968851415 1701792927 1964164502 -580708872 -106336962 922892564 -1092832227 -941297215
REM
CELL 1.54180   50.00000   50.00000   50.00000   90.00000   90.00000   90.00000
LATT -1
SFAC C  
C      1  0.4851130000000  0.5587900000000  0.4736330000000 1.0
C      1  0.4504140000000  0.4844540000000  0.3986550000000 1.0
C      1  0.4806360000000  0.4781320000000  0.5717780000000 1.0
C      1  0.5213210000000  0.5089170000000  0.5049010000000 1.0
C      1  0.5383280000000  0.4299700000000  0.5354470000000 1.0
C      1  0.4586330000000  0.5023790000000  0.4159200000000 1.0
C      1  0.5140530000000  0.5358370000000  0.5068050000000 1.0
C      1  0.4495480000000  0.5345890000000  0.4522860000000 1.0
C      1  0.4672150000000  0.5192790000000  0.4359740000000 1.0
C      1  0.4915590000000  0.4411390000000  0.5448500000000 1.0
C      1  0.5245670000000  0.4987500000000  0.4796390000000 1.0
C      1  0.5072070000000  0.4868550000000  0.5737550000000 1.0
C      1  0.4971090000000  0.5555350000000  0.4987810000000 1.0
C      1  0.5252760000000  0.4936250000000  0.5275090000000 1.0
C      1  0.5006120000000  0.5497130000000  0.4514190000000 1.0
C      1  0.5157900000000  0.5062970000000  0.5910520000000 1.0
C      1  0.5189740000000  0.4470010000000  0.5447360000000 1.0
C      1  0.4949000000000  0.5233000000000  0.4421890000000 1.0
C      1  0.4735430000000  0.4535800000000  0.5615410000000 1.0
C      1  0.5359270000000  0.4816240000000  0.4547820000000 1.0
C      1  0.5120260000000  0.5028760000000  0.4498540000000 1.0
C      1  0.5267300000000  0.4757700000000  0.5526350000000 1.0
C      1  0.4573420000000  0.5559750000000  0.4682890000000 1.0
C      1  0.5531750000000  0.4756150000000  0.5635710000000 1.0
END
