TITL C-2847958-8115-114 0.000745094657191104 125000 -359.391240465539 0 0 67 (C1) n - 1
REM
REM in /home/bkarasulu/work/CARBON/AIRSS/Generating-Clusters/AIREBO/with-SteepDescent/Only-C1/SD-CG-opt/Try1-1.4A-POS3A/HFTN-CG
REM
REM
REM
REM
REM
REM ./C.cell (11c1c37f851c82e70ff6c80c92926a4b)
REM
REM compiler GCC version 9.2.1 20190827 (Red Hat 9.2.1-1)
REM options -cpp -mtune=generic -march=x86-64 -g -O0 -fpre-include=/usr/include/finclude/math-vector-fortran.h
REM seed -1717163617 1831648132 1664163578 -1105221920 -404151210 -1882869420 -1933452350 -904480450 -1450432634 1228981841 -1629106424 -1317346707 759380808 -864983438 973503310 -784551877 60118359 -207885004 -760210204 -1665110860 768523583 562218673 451038470 247209283 -1535366152 -1734878115 254040420 -212112211 1976621164 -1946388813 2001891708 1563609534 -1181197626
REM
CELL 1.54180   50.00000   50.00000   50.00000   90.00000   90.00000   90.00000
LATT -1
SFAC C  
C      1  0.5010000000000  0.5050960000000  0.5528520000000 1.0
C      1  0.4635910000000  0.4683060000000  0.4312150000000 1.0
C      1  0.5174020000000  0.4787800000000  0.5387990000000 1.0
C      1  0.5432660000000  0.5079770000000  0.5645950000000 1.0
C      1  0.4481900000000  0.5446070000000  0.5288650000000 1.0
C      1  0.4707840000000  0.5395820000000  0.4430610000000 1.0
C      1  0.4878230000000  0.5214010000000  0.4926140000000 1.0
C      1  0.5316920000000  0.5174050000000  0.4715170000000 1.0
C      1  0.4296320000000  0.4855420000000  0.5143540000000 1.0
C      1  0.5528890000000  0.5515980000000  0.5354050000000 1.0
C      1  0.4848880000000  0.4756220000000  0.5914070000000 1.0
C      1  0.4688700000000  0.5470600000000  0.5461590000000 1.0
C      1  0.5134030000000  0.4471760000000  0.5445240000000 1.0
C      1  0.5426180000000  0.4550360000000  0.4755220000000 1.0
C      1  0.4939510000000  0.4640960000000  0.4462140000000 1.0
C      1  0.4747060000000  0.4987940000000  0.5088630000000 1.0
C      1  0.5175630000000  0.5238710000000  0.4977680000000 1.0
C      1  0.5341040000000  0.5512980000000  0.4925120000000 1.0
C      1  0.4748860000000  0.4746560000000  0.4914530000000 1.0
C      1  0.4520070000000  0.5034510000000  0.5665170000000 1.0
C      1  0.5012910000000  0.5787740000000  0.4742750000000 1.0
C      1  0.4387370000000  0.5014110000000  0.5438680000000 1.0
C      1  0.4508770000000  0.4922250000000  0.4309670000000 1.0
C      1  0.4416060000000  0.5646160000000  0.5112530000000 1.0
C      1  0.4766280000000  0.5478090000000  0.5010570000000 1.0
C      1  0.4529660000000  0.5578410000000  0.4817730000000 1.0
C      1  0.4518660000000  0.5076540000000  0.4575560000000 1.0
C      1  0.4887200000000  0.4634770000000  0.5618400000000 1.0
C      1  0.4956100000000  0.5598280000000  0.5193100000000 1.0
C      1  0.5017780000000  0.4201350000000  0.4713710000000 1.0
C      1  0.5239430000000  0.4361970000000  0.4894240000000 1.0
C      1  0.5126020000000  0.5273270000000  0.4469870000000 1.0
C      1  0.5139910000000  0.5704350000000  0.4982270000000 1.0
C      1  0.5055980000000  0.4698730000000  0.4776720000000 1.0
C      1  0.5001160000000  0.5382260000000  0.5451900000000 1.0
C      1  0.5276680000000  0.4309550000000  0.5217340000000 1.0
C      1  0.5160070000000  0.4851190000000  0.5062420000000 1.0
C      1  0.4834520000000  0.5175200000000  0.4616100000000 1.0
C      1  0.4733060000000  0.5676570000000  0.4592400000000 1.0
C      1  0.5307400000000  0.5311260000000  0.5469960000000 1.0
C      1  0.5675050000000  0.5398810000000  0.5152310000000 1.0
C      1  0.4783900000000  0.4994570000000  0.5757530000000 1.0
C      1  0.5593400000000  0.4779950000000  0.4925600000000 1.0
C      1  0.4573210000000  0.4510460000000  0.4549220000000 1.0
C      1  0.5599600000000  0.5308690000000  0.4840390000000 1.0
C      1  0.5795940000000  0.4866590000000  0.5258390000000 1.0
C      1  0.5658020000000  0.4669060000000  0.4536630000000 1.0
C      1  0.5674570000000  0.5003400000000  0.4755220000000 1.0
C      1  0.4324920000000  0.4943210000000  0.4825880000000 1.0
C      1  0.5312230000000  0.4853780000000  0.4652270000000 1.0
C      1  0.4832240000000  0.4348040000000  0.4589020000000 1.0
C      1  0.5646300000000  0.5099700000000  0.5176410000000 1.0
C      1  0.5320570000000  0.5015980000000  0.4353470000000 1.0
C      1  0.4455470000000  0.5155920000000  0.5137200000000 1.0
C      1  0.4695690000000  0.4427510000000  0.5202610000000 1.0
C      1  0.5479070000000  0.4744120000000  0.5243910000000 1.0
C      1  0.4508340000000  0.4688400000000  0.4757800000000 1.0
C      1  0.5639990000000  0.4954120000000  0.4455060000000 1.0
C      1  0.4399240000000  0.5274960000000  0.4819350000000 1.0
C      1  0.5528220000000  0.4865960000000  0.5554820000000 1.0
C      1  0.4538770000000  0.4672220000000  0.5245620000000 1.0
C      1  0.5051820000000  0.5583370000000  0.4493020000000 1.0
C      1  0.5154780000000  0.4753310000000  0.4264630000000 1.0
C      1  0.4821510000000  0.4357360000000  0.5452590000000 1.0
C      1  0.5323400000000  0.5110070000000  0.5211670000000 1.0
C      1  0.4772400000000  0.4854890000000  0.5384600000000 1.0
C      1  0.4933680000000  0.4469970000000  0.4996710000000 1.0
END
