TITL C-2847947-6848-252 0.000107231818591432 125000 -759.461139128604 0 0 137 (C1) n - 1
REM
REM in /home/bkarasulu/work/CARBON/AIRSS/Generating-Clusters/AIREBO/with-SteepDescent/Only-C1/SD-CG-opt/Try1-1.4A-POS3A/HFTN-CG
REM
REM
REM
REM
REM
REM ./C.cell (11c1c37f851c82e70ff6c80c92926a4b)
REM
REM compiler GCC version 9.2.1 20190827 (Red Hat 9.2.1-1)
REM options -cpp -mtune=generic -march=x86-64 -g -O0 -fpre-include=/usr/include/finclude/math-vector-fortran.h
REM seed 2004547508 -374878184 -244010661 -2141087917 146898802 -1608948120 -329022138 1157857046 1165806046 -2133096891 1546797413 -945054867 1409893788 -614024257 1768192393 -82725634 590902046 1934202358 814840572 -1824700609 993997144 -1381148801 1617728360 175907345 -2131103942 161462838 -1022700430 -2064915423 -1003203386 1963253445 1933843279 -1163032018 1731749595
REM
CELL 1.54180   50.00000   50.00000   50.00000   90.00000   90.00000   90.00000
LATT -1
SFAC C  
C      1  0.5701580000000  0.4246920000000  0.4893740000000 1.0
C      1  0.4256340000000  0.5334060000000  0.5531570000000 1.0
C      1  0.5459090000000  0.4361500000000  0.5539440000000 1.0
C      1  0.5841130000000  0.4486360000000  0.5053700000000 1.0
C      1  0.5080160000000  0.4841080000000  0.6087150000000 1.0
C      1  0.4512300000000  0.4882680000000  0.5797580000000 1.0
C      1  0.5877290000000  0.5379480000000  0.5518000000000 1.0
C      1  0.5646380000000  0.5749860000000  0.4950390000000 1.0
C      1  0.5334820000000  0.5443150000000  0.4416480000000 1.0
C      1  0.4267990000000  0.5525490000000  0.4963850000000 1.0
C      1  0.4701950000000  0.4625720000000  0.4133820000000 1.0
C      1  0.4925290000000  0.4738010000000  0.5797820000000 1.0
C      1  0.4622420000000  0.5095690000000  0.5323450000000 1.0
C      1  0.4115340000000  0.5103880000000  0.5393420000000 1.0
C      1  0.5160910000000  0.4419220000000  0.4322710000000 1.0
C      1  0.5392440000000  0.5017170000000  0.5159130000000 1.0
C      1  0.5577300000000  0.5420500000000  0.4597920000000 1.0
C      1  0.5883410000000  0.5206310000000  0.5083500000000 1.0
C      1  0.4918900000000  0.6098960000000  0.5026390000000 1.0
C      1  0.4459970000000  0.5833510000000  0.5126070000000 1.0
C      1  0.5479060000000  0.4154500000000  0.5030700000000 1.0
C      1  0.5597980000000  0.4916750000000  0.4408850000000 1.0
C      1  0.4889160000000  0.5621160000000  0.4784630000000 1.0
C      1  0.5031350000000  0.4980380000000  0.4355630000000 1.0
C      1  0.5295550000000  0.5342450000000  0.5553790000000 1.0
C      1  0.4298620000000  0.4420750000000  0.4290230000000 1.0
C      1  0.4664160000000  0.4503630000000  0.4862980000000 1.0
C      1  0.5307330000000  0.4675770000000  0.5897930000000 1.0
C      1  0.4745950000000  0.4455980000000  0.5212570000000 1.0
C      1  0.4636730000000  0.4950270000000  0.4066990000000 1.0
C      1  0.5764970000000  0.5201090000000  0.4460220000000 1.0
C      1  0.5222060000000  0.4764560000000  0.5418250000000 1.0
C      1  0.5338780000000  0.5302190000000  0.4160660000000 1.0
C      1  0.6015610000000  0.4833980000000  0.5141350000000 1.0
C      1  0.5028610000000  0.4182410000000  0.5272620000000 1.0
C      1  0.4048340000000  0.5211260000000  0.5131780000000 1.0
C      1  0.5120370000000  0.5305180000000  0.4863300000000 1.0
C      1  0.4501520000000  0.4461730000000  0.5527290000000 1.0
C      1  0.5796460000000  0.4799570000000  0.5309020000000 1.0
C      1  0.5737760000000  0.5606630000000  0.5448080000000 1.0
C      1  0.5444410000000  0.5255260000000  0.5846800000000 1.0
C      1  0.5834970000000  0.4452300000000  0.4657880000000 1.0
C      1  0.5270220000000  0.4403690000000  0.5780060000000 1.0
C      1  0.5202580000000  0.4355750000000  0.5037370000000 1.0
C      1  0.5352910000000  0.4529250000000  0.5282410000000 1.0
C      1  0.4820020000000  0.4337860000000  0.5492900000000 1.0
C      1  0.5729380000000  0.4832230000000  0.5602620000000 1.0
C      1  0.4822830000000  0.4270930000000  0.4580910000000 1.0
C      1  0.5220710000000  0.5594860000000  0.5010720000000 1.0
C      1  0.4790450000000  0.5812290000000  0.5047950000000 1.0
C      1  0.6030280000000  0.5284670000000  0.5298400000000 1.0
C      1  0.5393800000000  0.4480850000000  0.4785480000000 1.0
C      1  0.5925160000000  0.4983050000000  0.4849450000000 1.0
C      1  0.5114670000000  0.4765400000000  0.4756740000000 1.0
C      1  0.4861460000000  0.5766710000000  0.4478550000000 1.0
C      1  0.5148820000000  0.5891390000000  0.4611060000000 1.0
C      1  0.4731370000000  0.5205110000000  0.5861130000000 1.0
C      1  0.4109370000000  0.4766990000000  0.4929570000000 1.0
C      1  0.5038980000000  0.4084210000000  0.4728380000000 1.0
C      1  0.4298780000000  0.5620150000000  0.5348610000000 1.0
C      1  0.4795750000000  0.4543050000000  0.4426770000000 1.0
C      1  0.5277580000000  0.5743160000000  0.5415070000000 1.0
C      1  0.4669730000000  0.4786590000000  0.5188960000000 1.0
C      1  0.4200360000000  0.4553760000000  0.5079150000000 1.0
C      1  0.4992530000000  0.5240560000000  0.5669720000000 1.0
C      1  0.4293150000000  0.4347950000000  0.4919120000000 1.0
C      1  0.5913390000000  0.4419700000000  0.5348690000000 1.0
C      1  0.5358270000000  0.4978360000000  0.4248460000000 1.0
C      1  0.4555050000000  0.3963440000000  0.5070900000000 1.0
C      1  0.5649510000000  0.4602360000000  0.4503660000000 1.0
C      1  0.5311850000000  0.4642210000000  0.4508160000000 1.0
C      1  0.6027660000000  0.4664600000000  0.4842290000000 1.0
C      1  0.4974500000000  0.4469080000000  0.4812110000000 1.0
C      1  0.4461570000000  0.5365350000000  0.5192980000000 1.0
C      1  0.5412780000000  0.4833850000000  0.5669930000000 1.0
C      1  0.4631590000000  0.5796330000000  0.5393810000000 1.0
C      1  0.5227980000000  0.4261710000000  0.4583030000000 1.0
C      1  0.4556080000000  0.5653500000000  0.4568060000000 1.0
C      1  0.5064880000000  0.5432960000000  0.4562340000000 1.0
C      1  0.4484430000000  0.5709590000000  0.4813680000000 1.0
C      1  0.5127460000000  0.4985970000000  0.4980340000000 1.0
C      1  0.4855080000000  0.5321450000000  0.5222120000000 1.0
C      1  0.4756650000000  0.4921560000000  0.6020280000000 1.0
C      1  0.4659610000000  0.5481220000000  0.5444250000000 1.0
C      1  0.4505270000000  0.5147770000000  0.5613350000000 1.0
C      1  0.5279270000000  0.5068260000000  0.5963860000000 1.0
C      1  0.5051120000000  0.4804880000000  0.4065090000000 1.0
C      1  0.5537950000000  0.4753330000000  0.5173350000000 1.0
C      1  0.5148520000000  0.5395300000000  0.5251740000000 1.0
C      1  0.5049280000000  0.5570940000000  0.5605520000000 1.0
C      1  0.4987850000000  0.4454860000000  0.5716790000000 1.0
C      1  0.5041630000000  0.5370130000000  0.4021650000000 1.0
C      1  0.5456060000000  0.5084670000000  0.5457440000000 1.0
C      1  0.4532880000000  0.4245940000000  0.4457510000000 1.0
C      1  0.4889950000000  0.5598100000000  0.4226960000000 1.0
C      1  0.5360430000000  0.4133830000000  0.5328710000000 1.0
C      1  0.4642040000000  0.4822870000000  0.4862520000000 1.0
C      1  0.4346370000000  0.4698330000000  0.5669280000000 1.0
C      1  0.4550790000000  0.4236480000000  0.5040190000000 1.0
C      1  0.4173310000000  0.5156100000000  0.4857930000000 1.0
C      1  0.5414220000000  0.5878090000000  0.4532340000000 1.0
C      1  0.4470580000000  0.5310570000000  0.4796860000000 1.0
C      1  0.5158280000000  0.5886160000000  0.4912280000000 1.0
C      1  0.5589540000000  0.5709800000000  0.4686080000000 1.0
C      1  0.4950660000000  0.5732040000000  0.5337860000000 1.0
C      1  0.5347820000000  0.6040280000000  0.5346750000000 1.0
C      1  0.4010620000000  0.5145910000000  0.4572160000000 1.0
C      1  0.4383140000000  0.4655270000000  0.4151270000000 1.0
C      1  0.5029790000000  0.3999490000000  0.4985680000000 1.0
C      1  0.3996220000000  0.4861060000000  0.4655750000000 1.0
C      1  0.4128530000000  0.4849530000000  0.5537570000000 1.0
C      1  0.4016530000000  0.5512500000000  0.5174440000000 1.0
C      1  0.4275800000000  0.4701970000000  0.4572070000000 1.0
C      1  0.4189060000000  0.5185520000000  0.4350010000000 1.0
C      1  0.4992480000000  0.4939610000000  0.5572880000000 1.0
C      1  0.4433280000000  0.5375450000000  0.4463010000000 1.0
C      1  0.4281730000000  0.4933950000000  0.4249420000000 1.0
C      1  0.5306010000000  0.6106450000000  0.5104580000000 1.0
C      1  0.5193220000000  0.5070850000000  0.3965080000000 1.0
C      1  0.4388080000000  0.4619950000000  0.5281360000000 1.0
C      1  0.4540350000000  0.4875030000000  0.4445970000000 1.0
C      1  0.5584970000000  0.5276810000000  0.5103860000000 1.0
C      1  0.4371750000000  0.4919300000000  0.4803790000000 1.0
C      1  0.5021840000000  0.4514860000000  0.4101580000000 1.0
C      1  0.4899770000000  0.5269470000000  0.4314050000000 1.0
C      1  0.5448750000000  0.5226160000000  0.4822780000000 1.0
C      1  0.5600690000000  0.4667450000000  0.4895280000000 1.0
C      1  0.5623750000000  0.4950850000000  0.4736330000000 1.0
C      1  0.4682350000000  0.5482060000000  0.5736690000000 1.0
C      1  0.4776550000000  0.5343890000000  0.4909240000000 1.0
C      1  0.5746760000000  0.4495000000000  0.5562510000000 1.0
C      1  0.4980720000000  0.4878820000000  0.5239510000000 1.0
C      1  0.5719100000000  0.5163340000000  0.5671460000000 1.0
C      1  0.4302400000000  0.4398160000000  0.4630700000000 1.0
C      1  0.5497300000000  0.5586070000000  0.5208410000000 1.0
C      1  0.4837730000000  0.4817420000000  0.4584410000000 1.0
C      1  0.4602890000000  0.5168020000000  0.4290190000000 1.0
END
