TITL C-2847953-8112-366 0.000882880080790322 125000 -534.995343075326 0 0 100 (C1) n - 1
REM
REM in /home/bkarasulu/work/CARBON/AIRSS/Generating-Clusters/AIREBO/with-SteepDescent/Only-C1/SD-CG-opt/Try1-1.4A-POS3A/HFTN-CG
REM
REM
REM
REM
REM
REM ./C.cell (11c1c37f851c82e70ff6c80c92926a4b)
REM
REM compiler GCC version 9.2.1 20190827 (Red Hat 9.2.1-1)
REM options -cpp -mtune=generic -march=x86-64 -g -O0 -fpre-include=/usr/include/finclude/math-vector-fortran.h
REM seed -1448781603 -387962484 -1242961253 -950138360 1185852926 -2044815006 -247093968 141261306 -890068053 192424761 -1171251701 973591037 417978052 -1276286661 -209490723 1345513626 -728815325 -1128080106 1285722765 2118940183 -98728404 600431017 -198274082 429016116 -1193713090 -1990436922 1419867739 -106278801 1793605514 -377655122 -1104619197 858929414 -2113449820
REM
CELL 1.54180   50.00000   50.00000   50.00000   90.00000   90.00000   90.00000
LATT -1
SFAC C  
C      1  0.5004860000000  0.4269320000000  0.5770300000000 1.0
C      1  0.5580310000000  0.5576810000000  0.4647550000000 1.0
C      1  0.5058160000000  0.5248330000000  0.4225670000000 1.0
C      1  0.4932790000000  0.5409850000000  0.4894130000000 1.0
C      1  0.4790040000000  0.5859060000000  0.4664150000000 1.0
C      1  0.5015670000000  0.4162520000000  0.4269470000000 1.0
C      1  0.4479930000000  0.5654440000000  0.5297940000000 1.0
C      1  0.4470260000000  0.4834790000000  0.5551200000000 1.0
C      1  0.4261390000000  0.5283650000000  0.4637550000000 1.0
C      1  0.4774410000000  0.5090000000000  0.4326540000000 1.0
C      1  0.5137500000000  0.5205030000000  0.5060250000000 1.0
C      1  0.4988050000000  0.4136060000000  0.5001810000000 1.0
C      1  0.4732420000000  0.4960910000000  0.5535450000000 1.0
C      1  0.5214570000000  0.5064540000000  0.5830250000000 1.0
C      1  0.4227320000000  0.4871380000000  0.5376080000000 1.0
C      1  0.4915800000000  0.4502970000000  0.5669980000000 1.0
C      1  0.4850660000000  0.5364200000000  0.5286220000000 1.0
C      1  0.5294490000000  0.5177830000000  0.5336540000000 1.0
C      1  0.4463470000000  0.4502550000000  0.4622910000000 1.0
C      1  0.5845810000000  0.5063260000000  0.4619950000000 1.0
C      1  0.5940500000000  0.4816660000000  0.4917800000000 1.0
C      1  0.5451630000000  0.4753030000000  0.5114850000000 1.0
C      1  0.5970670000000  0.4746990000000  0.4628790000000 1.0
C      1  0.4315180000000  0.4959620000000  0.4725690000000 1.0
C      1  0.4852960000000  0.3903590000000  0.4348840000000 1.0
C      1  0.5633270000000  0.4520770000000  0.5493260000000 1.0
C      1  0.4575160000000  0.4833070000000  0.4261740000000 1.0
C      1  0.4380760000000  0.4537560000000  0.5583570000000 1.0
C      1  0.5416950000000  0.4395480000000  0.4788770000000 1.0
C      1  0.5367600000000  0.5164330000000  0.4308630000000 1.0
C      1  0.5029740000000  0.4889890000000  0.4392120000000 1.0
C      1  0.5111490000000  0.5366360000000  0.4540040000000 1.0
C      1  0.4440690000000  0.5330620000000  0.5773020000000 1.0
C      1  0.5094410000000  0.5536490000000  0.5549160000000 1.0
C      1  0.4590070000000  0.5150590000000  0.4942980000000 1.0
C      1  0.5342970000000  0.4537120000000  0.4551480000000 1.0
C      1  0.5535970000000  0.5407950000000  0.4432160000000 1.0
C      1  0.4581420000000  0.5132550000000  0.4603380000000 1.0
C      1  0.5515830000000  0.5059380000000  0.4710350000000 1.0
C      1  0.4722300000000  0.5354430000000  0.5815270000000 1.0
C      1  0.4882920000000  0.4544850000000  0.5389120000000 1.0
C      1  0.4401650000000  0.4685430000000  0.4819310000000 1.0
C      1  0.5638030000000  0.4357760000000  0.4965050000000 1.0
C      1  0.4738280000000  0.6044670000000  0.4478020000000 1.0
C      1  0.5085840000000  0.4732430000000  0.5274150000000 1.0
C      1  0.4220030000000  0.5498890000000  0.4852630000000 1.0
C      1  0.4710100000000  0.4101830000000  0.5003580000000 1.0
C      1  0.5344040000000  0.4882200000000  0.5379180000000 1.0
C      1  0.5480920000000  0.4963900000000  0.5794930000000 1.0
C      1  0.4516060000000  0.5449940000000  0.4894590000000 1.0
C      1  0.5166340000000  0.4654070000000  0.4974990000000 1.0
C      1  0.5612480000000  0.4505230000000  0.5208560000000 1.0
C      1  0.4768420000000  0.4915310000000  0.4999180000000 1.0
C      1  0.5731010000000  0.5216430000000  0.5162380000000 1.0
C      1  0.4575900000000  0.4224000000000  0.4737940000000 1.0
C      1  0.4874580000000  0.5054700000000  0.5823180000000 1.0
C      1  0.5447660000000  0.5648610000000  0.5179560000000 1.0
C      1  0.4592250000000  0.4688560000000  0.5025430000000 1.0
C      1  0.5674410000000  0.5162190000000  0.5705920000000 1.0
C      1  0.5367470000000  0.5788790000000  0.4655620000000 1.0
C      1  0.4723840000000  0.5603210000000  0.5080180000000 1.0
C      1  0.4907360000000  0.5138890000000  0.4700330000000 1.0
C      1  0.6035020000000  0.5264970000000  0.4638980000000 1.0
C      1  0.5600110000000  0.5438390000000  0.4957570000000 1.0
C      1  0.4179390000000  0.4638970000000  0.5229870000000 1.0
C      1  0.4983720000000  0.4822400000000  0.4781040000000 1.0
C      1  0.4844600000000  0.4722600000000  0.5834750000000 1.0
C      1  0.5082090000000  0.4403770000000  0.4458660000000 1.0
C      1  0.4880410000000  0.5601970000000  0.4622020000000 1.0
C      1  0.5495420000000  0.4743160000000  0.5607760000000 1.0
C      1  0.5319300000000  0.5320960000000  0.4805530000000 1.0
C      1  0.5230670000000  0.5665890000000  0.4431700000000 1.0
C      1  0.5163960000000  0.4334840000000  0.4938260000000 1.0
C      1  0.5350520000000  0.4871070000000  0.4480100000000 1.0
C      1  0.5582960000000  0.4903410000000  0.4234020000000 1.0
C      1  0.4625990000000  0.5744600000000  0.5537880000000 1.0
C      1  0.5658180000000  0.5283650000000  0.5460730000000 1.0
C      1  0.6003150000000  0.5040760000000  0.5099300000000 1.0
C      1  0.5637300000000  0.4942670000000  0.4977930000000 1.0
C      1  0.4346740000000  0.5299820000000  0.5524990000000 1.0
C      1  0.4549530000000  0.4081700000000  0.5228130000000 1.0
C      1  0.5410950000000  0.5481970000000  0.5437400000000 1.0
C      1  0.4327450000000  0.4282060000000  0.4963260000000 1.0
C      1  0.4824720000000  0.5586430000000  0.5676320000000 1.0
C      1  0.4220920000000  0.5172390000000  0.5233810000000 1.0
C      1  0.4654180000000  0.4522910000000  0.5234270000000 1.0
C      1  0.5148960000000  0.5240060000000  0.5606040000000 1.0
C      1  0.4928120000000  0.5033550000000  0.5266280000000 1.0
C      1  0.4547900000000  0.5263720000000  0.5253010000000 1.0
C      1  0.4099730000000  0.5087910000000  0.4943040000000 1.0
C      1  0.4240140000000  0.5507380000000  0.5177770000000 1.0
C      1  0.5100730000000  0.5582580000000  0.5212280000000 1.0
C      1  0.4785100000000  0.4190870000000  0.4516120000000 1.0
C      1  0.5029940000000  0.5403900000000  0.3969180000000 1.0
C      1  0.4752520000000  0.5893380000000  0.4944260000000 1.0
C      1  0.5257620000000  0.5637430000000  0.4913990000000 1.0
C      1  0.4621770000000  0.4619130000000  0.4428380000000 1.0
C      1  0.5833070000000  0.4867120000000  0.4357030000000 1.0
C      1  0.4902920000000  0.4637250000000  0.4520170000000 1.0
C      1  0.4377130000000  0.4368520000000  0.5288470000000 1.0
END
