TITL C-2847948-6138-504 -0.00125886338465277 125000 -488.702081378776 0 0 91 (C1) n - 1
REM
REM in /home/bkarasulu/work/CARBON/AIRSS/Generating-Clusters/AIREBO/with-SteepDescent/Only-C1/SD-CG-opt/Try1-1.4A-POS3A/HFTN-CG
REM
REM
REM
REM
REM
REM ./C.cell (11c1c37f851c82e70ff6c80c92926a4b)
REM
REM compiler GCC version 9.2.1 20190827 (Red Hat 9.2.1-1)
REM options -cpp -mtune=generic -march=x86-64 -g -O0 -fpre-include=/usr/include/finclude/math-vector-fortran.h
REM seed -204237984 -1635605403 1096835887 -379125348 790433623 -2018601148 -1125260088 -1050910506 2020445331 -1983122727 -1312015709 -890642627 1150541939 566801972 -1429541698 -1607901726 1626176432 -602772639 34984298 997732775 -304843975 -45084474 -1360331818 -1017166399 -273677134 1061289706 1261999168 -879813859 -564412882 -1480476593 -1923520210 -901408166 504786833
REM
CELL 1.54180   50.00000   50.00000   50.00000   90.00000   90.00000   90.00000
LATT -1
SFAC C  
C      1  0.4839590000000  0.4904790000000  0.4955480000000 1.0
C      1  0.4249540000000  0.5260260000000  0.4654810000000 1.0
C      1  0.5165400000000  0.4943600000000  0.5045060000000 1.0
C      1  0.4762320000000  0.5858840000000  0.4799710000000 1.0
C      1  0.4429850000000  0.5199770000000  0.5510710000000 1.0
C      1  0.5047510000000  0.5673180000000  0.5152910000000 1.0
C      1  0.5540000000000  0.4582090000000  0.4877740000000 1.0
C      1  0.4736270000000  0.5064110000000  0.5584730000000 1.0
C      1  0.5510550000000  0.5036090000000  0.5792010000000 1.0
C      1  0.5879500000000  0.4938030000000  0.4688840000000 1.0
C      1  0.5275970000000  0.4243830000000  0.5270130000000 1.0
C      1  0.4659880000000  0.5412670000000  0.5405250000000 1.0
C      1  0.4894670000000  0.4697750000000  0.5595460000000 1.0
C      1  0.4823920000000  0.4276650000000  0.4826390000000 1.0
C      1  0.5725520000000  0.5315180000000  0.5436700000000 1.0
C      1  0.5151800000000  0.5174520000000  0.4591740000000 1.0
C      1  0.4566560000000  0.5303580000000  0.4337750000000 1.0
C      1  0.5041010000000  0.5305680000000  0.5718910000000 1.0
C      1  0.5398780000000  0.4992530000000  0.4617290000000 1.0
C      1  0.5168530000000  0.5168020000000  0.5300510000000 1.0
C      1  0.5446690000000  0.5684040000000  0.5157280000000 1.0
C      1  0.4574670000000  0.4719750000000  0.4848830000000 1.0
C      1  0.5437840000000  0.5478410000000  0.4409170000000 1.0
C      1  0.4554410000000  0.5634370000000  0.5232770000000 1.0
C      1  0.5251090000000  0.4584550000000  0.5197910000000 1.0
C      1  0.4496630000000  0.5116530000000  0.5811780000000 1.0
C      1  0.4262910000000  0.4623160000000  0.4945830000000 1.0
C      1  0.5767570000000  0.4691390000000  0.5060260000000 1.0
C      1  0.5576290000000  0.4506130000000  0.5259090000000 1.0
C      1  0.5278610000000  0.5400990000000  0.5609930000000 1.0
C      1  0.5319890000000  0.4356770000000  0.4474970000000 1.0
C      1  0.4596960000000  0.4732470000000  0.5756250000000 1.0
C      1  0.4351070000000  0.4946220000000  0.4728860000000 1.0
C      1  0.4637420000000  0.4591480000000  0.4562850000000 1.0
C      1  0.4466430000000  0.4708100000000  0.4362320000000 1.0
C      1  0.5108850000000  0.4735420000000  0.4162380000000 1.0
C      1  0.4428860000000  0.4523180000000  0.5460200000000 1.0
C      1  0.5101070000000  0.4828210000000  0.5358410000000 1.0
C      1  0.4358870000000  0.5541190000000  0.5071360000000 1.0
C      1  0.5317760000000  0.5254860000000  0.4199350000000 1.0
C      1  0.5418340000000  0.4660200000000  0.4403470000000 1.0
C      1  0.4844040000000  0.5234090000000  0.5223120000000 1.0
C      1  0.5550590000000  0.4592830000000  0.5550440000000 1.0
C      1  0.5509520000000  0.4273870000000  0.5018020000000 1.0
C      1  0.5476060000000  0.5025550000000  0.5328740000000 1.0
C      1  0.5319790000000  0.4405730000000  0.5548840000000 1.0
C      1  0.4607320000000  0.4987310000000  0.4242790000000 1.0
C      1  0.5105250000000  0.4468340000000  0.5705310000000 1.0
C      1  0.4980330000000  0.4597400000000  0.4993340000000 1.0
C      1  0.5333180000000  0.4268660000000  0.4732950000000 1.0
C      1  0.4345480000000  0.4793100000000  0.5606110000000 1.0
C      1  0.5843890000000  0.4942290000000  0.4975630000000 1.0
C      1  0.4157060000000  0.4694330000000  0.5224820000000 1.0
C      1  0.4939010000000  0.5659530000000  0.4588330000000 1.0
C      1  0.5295640000000  0.5437890000000  0.4715430000000 1.0
C      1  0.4799890000000  0.5361660000000  0.4574500000000 1.0
C      1  0.4718080000000  0.4486700000000  0.5394500000000 1.0
C      1  0.4898740000000  0.4938490000000  0.4132300000000 1.0
C      1  0.4726730000000  0.4937850000000  0.5274540000000 1.0
C      1  0.4995610000000  0.4977820000000  0.5760010000000 1.0
C      1  0.4773140000000  0.5235650000000  0.4890510000000 1.0
C      1  0.4940110000000  0.4939360000000  0.4636600000000 1.0
C      1  0.5672720000000  0.4855770000000  0.4529920000000 1.0
C      1  0.4746100000000  0.5783430000000  0.5106620000000 1.0
C      1  0.4816610000000  0.5455090000000  0.5675460000000 1.0
C      1  0.4205970000000  0.4764120000000  0.4481070000000 1.0
C      1  0.4912980000000  0.4452090000000  0.4557620000000 1.0
C      1  0.4647560000000  0.4994180000000  0.4569400000000 1.0
C      1  0.4945390000000  0.5185690000000  0.4321870000000 1.0
C      1  0.5267850000000  0.4983350000000  0.5931820000000 1.0
C      1  0.5552150000000  0.5356670000000  0.4911500000000 1.0
C      1  0.5103640000000  0.5485570000000  0.4346970000000 1.0
C      1  0.5532900000000  0.5295670000000  0.5659240000000 1.0
C      1  0.5138100000000  0.4691120000000  0.4594980000000 1.0
C      1  0.5545410000000  0.4870610000000  0.5562540000000 1.0
C      1  0.5325430000000  0.4787140000000  0.4840370000000 1.0
C      1  0.4770770000000  0.4397690000000  0.5140270000000 1.0
C      1  0.5449560000000  0.5773500000000  0.4926400000000 1.0
C      1  0.4436660000000  0.5284180000000  0.4922520000000 1.0
C      1  0.5252610000000  0.5770880000000  0.4661520000000 1.0
C      1  0.5033030000000  0.5452810000000  0.4921640000000 1.0
C      1  0.4323110000000  0.5012900000000  0.5062080000000 1.0
C      1  0.5090650000000  0.4471980000000  0.4268260000000 1.0
C      1  0.4488090000000  0.4771370000000  0.5235470000000 1.0
C      1  0.4207200000000  0.5008260000000  0.5381770000000 1.0
C      1  0.5245280000000  0.5498370000000  0.5325240000000 1.0
C      1  0.4315830000000  0.5368970000000  0.4418700000000 1.0
C      1  0.5114960000000  0.4285780000000  0.4973600000000 1.0
C      1  0.5695030000000  0.5168540000000  0.5130920000000 1.0
C      1  0.5319990000000  0.4966950000000  0.4294470000000 1.0
C      1  0.5065550000000  0.5880370000000  0.4895540000000 1.0
END
