TITL C-2847948-6138-734 -0.00346100122664729 125000 -1015.46844524575 0 0 190 (C1) n - 1
REM
REM in /home/bkarasulu/work/CARBON/AIRSS/Generating-Clusters/AIREBO/with-SteepDescent/Only-C1/SD-CG-opt/Try1-1.4A-POS3A/HFTN-CG
REM
REM
REM
REM
REM
REM ./C.cell (11c1c37f851c82e70ff6c80c92926a4b)
REM
REM compiler GCC version 9.2.1 20190827 (Red Hat 9.2.1-1)
REM options -cpp -mtune=generic -march=x86-64 -g -O0 -fpre-include=/usr/include/finclude/math-vector-fortran.h
REM seed -1619984331 -1698775907 -1040989677 1619793013 1679002648 311755064 2020895855 715297505 139929960 -586806650 -2111048862 1324147415 2080359003 459037017 -1007495312 1571008623 460723448 -300597040 -1049243490 679611654 -602517906 -1152630630 378988779 635499148 -1732484920 500004272 1935333583 1468946059 -482139174 1241678885 2010169568 2047097860 307271897
REM
CELL 1.54180   50.00000   50.00000   50.00000   90.00000   90.00000   90.00000
LATT -1
SFAC C  
C      1  0.4109650000000  0.4638160000000  0.4485190000000 1.0
C      1  0.4889820000000  0.5682300000000  0.5750170000000 1.0
C      1  0.3950120000000  0.4759870000000  0.4677650000000 1.0
C      1  0.4856210000000  0.5208270000000  0.5903880000000 1.0
C      1  0.5011960000000  0.5427770000000  0.4262000000000 1.0
C      1  0.4829890000000  0.4391550000000  0.5343490000000 1.0
C      1  0.4485620000000  0.5017400000000  0.5999840000000 1.0
C      1  0.5444400000000  0.5069570000000  0.4292420000000 1.0
C      1  0.5651460000000  0.5842030000000  0.4417850000000 1.0
C      1  0.5517010000000  0.4145520000000  0.5390860000000 1.0
C      1  0.5442770000000  0.5111130000000  0.5887560000000 1.0
C      1  0.4041250000000  0.5133470000000  0.4854570000000 1.0
C      1  0.5692160000000  0.5462410000000  0.4750310000000 1.0
C      1  0.4938250000000  0.5008800000000  0.5303810000000 1.0
C      1  0.4840480000000  0.4714970000000  0.5447870000000 1.0
C      1  0.5178990000000  0.4501380000000  0.5184090000000 1.0
C      1  0.4737690000000  0.4811490000000  0.4548430000000 1.0
C      1  0.4737030000000  0.4888690000000  0.4879560000000 1.0
C      1  0.5455500000000  0.5161470000000  0.4596340000000 1.0
C      1  0.5502190000000  0.4262100000000  0.4118170000000 1.0
C      1  0.5885790000000  0.4864170000000  0.5702500000000 1.0
C      1  0.4107040000000  0.4427120000000  0.5212720000000 1.0
C      1  0.5936740000000  0.5058410000000  0.4813680000000 1.0
C      1  0.4349550000000  0.5352680000000  0.4725560000000 1.0
C      1  0.4079720000000  0.5594230000000  0.4882400000000 1.0
C      1  0.5013880000000  0.5403180000000  0.5721750000000 1.0
C      1  0.5331730000000  0.5408400000000  0.5789960000000 1.0
C      1  0.5526450000000  0.4857970000000  0.4039210000000 1.0
C      1  0.4814210000000  0.4480080000000  0.4557030000000 1.0
C      1  0.4898790000000  0.6154310000000  0.4936480000000 1.0
C      1  0.4225200000000  0.5547040000000  0.5949110000000 1.0
C      1  0.5780220000000  0.4727880000000  0.4589060000000 1.0
C      1  0.3860340000000  0.5068420000000  0.4583140000000 1.0
C      1  0.5292090000000  0.5284400000000  0.5311920000000 1.0
C      1  0.4905950000000  0.4586500000000  0.5075500000000 1.0
C      1  0.4706980000000  0.4912280000000  0.6126680000000 1.0
C      1  0.5803850000000  0.4818540000000  0.4107250000000 1.0
C      1  0.5273950000000  0.4717930000000  0.3977310000000 1.0
C      1  0.5397190000000  0.4729280000000  0.5124180000000 1.0
C      1  0.5399180000000  0.4094850000000  0.4892870000000 1.0
C      1  0.4864850000000  0.5136300000000  0.6236120000000 1.0
C      1  0.4254530000000  0.4770460000000  0.5580120000000 1.0
C      1  0.4743770000000  0.3971860000000  0.5378660000000 1.0
C      1  0.4535800000000  0.4134980000000  0.5426600000000 1.0
C      1  0.4434680000000  0.5780790000000  0.5239610000000 1.0
C      1  0.5200730000000  0.3781710000000  0.5259120000000 1.0
C      1  0.4621580000000  0.5016670000000  0.5240350000000 1.0
C      1  0.5199620000000  0.4155280000000  0.4639110000000 1.0
C      1  0.5734160000000  0.4559970000000  0.5007940000000 1.0
C      1  0.4950660000000  0.4243470000000  0.4136280000000 1.0
C      1  0.4708100000000  0.5898370000000  0.4819560000000 1.0
C      1  0.5960030000000  0.5258490000000  0.5295900000000 1.0
C      1  0.4622520000000  0.5715670000000  0.5684840000000 1.0
C      1  0.5678640000000  0.5067990000000  0.5280950000000 1.0
C      1  0.4828130000000  0.4289300000000  0.5653330000000 1.0
C      1  0.3979200000000  0.5385360000000  0.4637360000000 1.0
C      1  0.5424500000000  0.5688520000000  0.5789330000000 1.0
C      1  0.4986580000000  0.5990570000000  0.4647470000000 1.0
C      1  0.4512660000000  0.5458670000000  0.5194630000000 1.0
C      1  0.5126830000000  0.5011080000000  0.5963530000000 1.0
C      1  0.4591910000000  0.5713670000000  0.4185390000000 1.0
C      1  0.5099320000000  0.4187520000000  0.5704330000000 1.0
C      1  0.5434520000000  0.4399350000000  0.5015180000000 1.0
C      1  0.5117700000000  0.5104890000000  0.4247020000000 1.0
C      1  0.5262510000000  0.5888050000000  0.4712280000000 1.0
C      1  0.5972810000000  0.4669570000000  0.5474680000000 1.0
C      1  0.4883600000000  0.4116090000000  0.4406790000000 1.0
C      1  0.5207930000000  0.4885790000000  0.5438380000000 1.0
C      1  0.4977680000000  0.5311220000000  0.5422450000000 1.0
C      1  0.5022490000000  0.5268040000000  0.3896630000000 1.0
C      1  0.4422930000000  0.5996800000000  0.4976530000000 1.0
C      1  0.4555470000000  0.5202880000000  0.5742320000000 1.0
C      1  0.5632530000000  0.4466610000000  0.5421590000000 1.0
C      1  0.5131760000000  0.4426500000000  0.4445480000000 1.0
C      1  0.4832370000000  0.3999920000000  0.4663570000000 1.0
C      1  0.4439110000000  0.4068930000000  0.4457640000000 1.0
C      1  0.5518650000000  0.4729520000000  0.4806490000000 1.0
C      1  0.5498570000000  0.5306020000000  0.5543210000000 1.0
C      1  0.5012870000000  0.4455920000000  0.4824070000000 1.0
C      1  0.5697280000000  0.4278910000000  0.4271680000000 1.0
C      1  0.4855210000000  0.5953410000000  0.4366030000000 1.0
C      1  0.4431180000000  0.4869720000000  0.4066860000000 1.0
C      1  0.4474040000000  0.4201930000000  0.4910010000000 1.0
C      1  0.5880230000000  0.4871440000000  0.4374100000000 1.0
C      1  0.4615570000000  0.4313310000000  0.4336960000000 1.0
C      1  0.5737130000000  0.5750280000000  0.4905370000000 1.0
C      1  0.4524540000000  0.4372500000000  0.5195080000000 1.0
C      1  0.4233170000000  0.5434740000000  0.4416770000000 1.0
C      1  0.5211000000000  0.4569110000000  0.5478180000000 1.0
C      1  0.5288190000000  0.4410710000000  0.5694430000000 1.0
C      1  0.4488530000000  0.5187450000000  0.4988240000000 1.0
C      1  0.5597580000000  0.5056710000000  0.4855670000000 1.0
C      1  0.4433960000000  0.5964520000000  0.4629560000000 1.0
C      1  0.5838420000000  0.4313300000000  0.5198280000000 1.0
C      1  0.5935400000000  0.5436020000000  0.4562380000000 1.0
C      1  0.5073580000000  0.5903330000000  0.5669720000000 1.0
C      1  0.5548640000000  0.5361420000000  0.4181280000000 1.0
C      1  0.5571840000000  0.5554850000000  0.4445800000000 1.0
C      1  0.4976360000000  0.6099600000000  0.5213770000000 1.0
C      1  0.4951740000000  0.5519450000000  0.4969230000000 1.0
C      1  0.4032670000000  0.5484560000000  0.5208090000000 1.0
C      1  0.3829150000000  0.4902610000000  0.5127120000000 1.0
C      1  0.4211840000000  0.4970100000000  0.5843120000000 1.0
C      1  0.4152110000000  0.5846580000000  0.5088660000000 1.0
C      1  0.4640220000000  0.4493690000000  0.5818670000000 1.0
C      1  0.4901780000000  0.5708450000000  0.4204910000000 1.0
C      1  0.4366130000000  0.4661440000000  0.5870350000000 1.0
C      1  0.4413120000000  0.4773020000000  0.4454260000000 1.0
C      1  0.4336460000000  0.4636460000000  0.4822140000000 1.0
C      1  0.4985070000000  0.5809150000000  0.5363440000000 1.0
C      1  0.4990860000000  0.4118900000000  0.5219300000000 1.0
C      1  0.5825720000000  0.4469500000000  0.5695590000000 1.0
C      1  0.4552090000000  0.4000960000000  0.4705550000000 1.0
C      1  0.4959210000000  0.5243860000000  0.4822650000000 1.0
C      1  0.5005610000000  0.4852550000000  0.5688240000000 1.0
C      1  0.4866420000000  0.4707680000000  0.5953490000000 1.0
C      1  0.5209560000000  0.4681700000000  0.5981150000000 1.0
C      1  0.5710450000000  0.4093170000000  0.4763830000000 1.0
C      1  0.5737630000000  0.4332000000000  0.4583120000000 1.0
C      1  0.5042500000000  0.4944520000000  0.3974350000000 1.0
C      1  0.4716900000000  0.5569960000000  0.4736680000000 1.0
C      1  0.4461900000000  0.5026740000000  0.5496090000000 1.0
C      1  0.5535530000000  0.4794940000000  0.5427810000000 1.0
C      1  0.4739190000000  0.5233290000000  0.4028720000000 1.0
C      1  0.5361150000000  0.5845440000000  0.5494350000000 1.0
C      1  0.4749420000000  0.5381610000000  0.4473450000000 1.0
C      1  0.6023090000000  0.5570290000000  0.4944220000000 1.0
C      1  0.5223920000000  0.5601060000000  0.5304700000000 1.0
C      1  0.6057950000000  0.4760620000000  0.4897800000000 1.0
C      1  0.4517470000000  0.5385790000000  0.4236750000000 1.0
C      1  0.4390070000000  0.5664990000000  0.4761100000000 1.0
C      1  0.4429390000000  0.4345410000000  0.5595140000000 1.0
C      1  0.5001930000000  0.4135350000000  0.4915020000000 1.0
C      1  0.5596170000000  0.4000860000000  0.5153860000000 1.0
C      1  0.5509740000000  0.5623950000000  0.5121940000000 1.0
C      1  0.4750870000000  0.4834940000000  0.3994770000000 1.0
C      1  0.5734780000000  0.4953360000000  0.5961890000000 1.0
C      1  0.5759000000000  0.5457030000000  0.5427580000000 1.0
C      1  0.6048590000000  0.5303630000000  0.5021110000000 1.0
C      1  0.4279740000000  0.4818290000000  0.5184340000000 1.0
C      1  0.4571790000000  0.5894080000000  0.5478030000000 1.0
C      1  0.5320550000000  0.5567700000000  0.4652120000000 1.0
C      1  0.5998080000000  0.4673430000000  0.5190110000000 1.0
C      1  0.5448210000000  0.4509770000000  0.4556590000000 1.0
C      1  0.3882570000000  0.5765650000000  0.5223700000000 1.0
C      1  0.4538530000000  0.4470420000000  0.4756460000000 1.0
C      1  0.5549380000000  0.4496210000000  0.5810820000000 1.0
C      1  0.5159150000000  0.5271790000000  0.4604900000000 1.0
C      1  0.4547000000000  0.5976980000000  0.4355070000000 1.0
C      1  0.4686080000000  0.5172480000000  0.4711820000000 1.0
C      1  0.5859790000000  0.5346950000000  0.4262910000000 1.0
C      1  0.5222590000000  0.4040290000000  0.5455590000000 1.0
C      1  0.5997480000000  0.5124810000000  0.4485040000000 1.0
C      1  0.5673030000000  0.5747480000000  0.5393420000000 1.0
C      1  0.5652570000000  0.5324140000000  0.5058420000000 1.0
C      1  0.5236180000000  0.4422130000000  0.4121740000000 1.0
C      1  0.4046310000000  0.4680340000000  0.4994020000000 1.0
C      1  0.5420700000000  0.6010450000000  0.4998400000000 1.0
C      1  0.5038860000000  0.4978210000000  0.4985100000000 1.0
C      1  0.4732390000000  0.5019450000000  0.4279800000000 1.0
C      1  0.4592300000000  0.4699540000000  0.5122450000000 1.0
C      1  0.5038030000000  0.4718050000000  0.4302480000000 1.0
C      1  0.5874460000000  0.4069660000000  0.5027900000000 1.0
C      1  0.5348110000000  0.4755390000000  0.4379870000000 1.0
C      1  0.5984890000000  0.4535410000000  0.4697850000000 1.0
C      1  0.5180140000000  0.4748970000000  0.4779170000000 1.0
C      1  0.4731620000000  0.6110150000000  0.5429970000000 1.0
C      1  0.4309410000000  0.4957910000000  0.4812280000000 1.0
C      1  0.5750820000000  0.5098400000000  0.5594660000000 1.0
C      1  0.4522930000000  0.4583000000000  0.4203510000000 1.0
C      1  0.5593330000000  0.5957710000000  0.4710680000000 1.0
C      1  0.4164700000000  0.5072050000000  0.5337150000000 1.0
C      1  0.4343230000000  0.5093950000000  0.4226880000000 1.0
C      1  0.5236190000000  0.3820840000000  0.5011040000000 1.0
C      1  0.4192460000000  0.5027700000000  0.4500740000000 1.0
C      1  0.5045540000000  0.4956690000000  0.4544690000000 1.0
C      1  0.5315110000000  0.5120720000000  0.5034150000000 1.0
C      1  0.4266670000000  0.5446510000000  0.5429160000000 1.0
C      1  0.4421710000000  0.5488690000000  0.5721820000000 1.0
C      1  0.5287550000000  0.6053190000000  0.5235330000000 1.0
C      1  0.4849170000000  0.4544930000000  0.4111640000000 1.0
C      1  0.3949670000000  0.5189550000000  0.5141320000000 1.0
C      1  0.5434640000000  0.4799030000000  0.5752880000000 1.0
C      1  0.4185750000000  0.4199380000000  0.5077330000000 1.0
C      1  0.4835540000000  0.5526980000000  0.5246620000000 1.0
C      1  0.4224290000000  0.4495120000000  0.5461960000000 1.0
C      1  0.4144300000000  0.5211960000000  0.5643790000000 1.0
C      1  0.5282400000000  0.5444460000000  0.4943670000000 1.0
C      1  0.5268070000000  0.5408780000000  0.4039150000000 1.0
C      1  0.5143180000000  0.5072610000000  0.6303790000000 1.0
END
