TITL C-2848504-8560-394 0.000242884691326707 125000 -756.852904544824 0 0 139 (C1) n - 1
REM
REM in /home/bkarasulu/work/CARBON/AIRSS/Generating-Clusters/AIREBO/with-SteepDescent/Only-C1/SD-CG-opt/Try1-1.4A-POS3A/HFTN-CG
REM
REM
REM
REM
REM
REM ./C.cell (11c1c37f851c82e70ff6c80c92926a4b)
REM
REM compiler GCC version 9.2.1 20190827 (Red Hat 9.2.1-1)
REM options -cpp -mtune=generic -march=x86-64 -g -O0 -fpre-include=/usr/include/finclude/math-vector-fortran.h
REM seed -2102968364 483598876 712361506 -152198059 933484040 1475906860 -1798719571 -1243143428 2066045540 1231034101 591088460 1039567327 -2119006435 934919568 -1416167024 1299494510 1322407405 834152882 569216921 -475804611 -2031098210 1297555539 271844143 -892302893 -716534907 2005969883 -1511485797 -862561249 -757464499 1485011190 -504843716 1243031455 699212107
REM
CELL 1.54180   50.00000   50.00000   50.00000   90.00000   90.00000   90.00000
LATT -1
SFAC C  
C      1  0.5519690000000  0.4451780000000  0.5410340000000 1.0
C      1  0.4292220000000  0.5347050000000  0.5631110000000 1.0
C      1  0.5342020000000  0.4567180000000  0.4897030000000 1.0
C      1  0.5854590000000  0.4489340000000  0.4736190000000 1.0
C      1  0.5693030000000  0.4780330000000  0.4666640000000 1.0
C      1  0.5021250000000  0.4661430000000  0.5370230000000 1.0
C      1  0.4501080000000  0.4821060000000  0.4688090000000 1.0
C      1  0.5158740000000  0.5372740000000  0.5396150000000 1.0
C      1  0.4440930000000  0.4236760000000  0.5117050000000 1.0
C      1  0.5135490000000  0.4719530000000  0.4089220000000 1.0
C      1  0.4487440000000  0.4069750000000  0.4254750000000 1.0
C      1  0.5281610000000  0.5612390000000  0.5791900000000 1.0
C      1  0.5297520000000  0.5149920000000  0.4856580000000 1.0
C      1  0.5595070000000  0.4459630000000  0.5696490000000 1.0
C      1  0.4834570000000  0.4010810000000  0.4874470000000 1.0
C      1  0.5393930000000  0.5563870000000  0.5241730000000 1.0
C      1  0.5579080000000  0.4604050000000  0.4267020000000 1.0
C      1  0.5681700000000  0.4899860000000  0.4364740000000 1.0
C      1  0.5107380000000  0.5041890000000  0.5455900000000 1.0
C      1  0.5978820000000  0.5221070000000  0.4596410000000 1.0
C      1  0.4947400000000  0.4823820000000  0.4326950000000 1.0
C      1  0.5386480000000  0.4393780000000  0.5862380000000 1.0
C      1  0.5060180000000  0.5379620000000  0.4938340000000 1.0
C      1  0.5623680000000  0.5061280000000  0.4819560000000 1.0
C      1  0.5200660000000  0.5827760000000  0.4389420000000 1.0
C      1  0.5410420000000  0.4330660000000  0.6127400000000 1.0
C      1  0.4357610000000  0.6016690000000  0.5294260000000 1.0
C      1  0.5512500000000  0.4950420000000  0.5197610000000 1.0
C      1  0.5466220000000  0.4143210000000  0.4895550000000 1.0
C      1  0.4645970000000  0.4982450000000  0.5235140000000 1.0
C      1  0.4272080000000  0.4821460000000  0.4914180000000 1.0
C      1  0.5461470000000  0.5414900000000  0.4992750000000 1.0
C      1  0.4961930000000  0.4204130000000  0.4172360000000 1.0
C      1  0.5418930000000  0.4858280000000  0.4148090000000 1.0
C      1  0.4101600000000  0.4926100000000  0.5587320000000 1.0
C      1  0.4946890000000  0.4252170000000  0.4577460000000 1.0
C      1  0.4884430000000  0.5114740000000  0.5057090000000 1.0
C      1  0.5079920000000  0.4592630000000  0.3778400000000 1.0
C      1  0.5094350000000  0.4732680000000  0.4977820000000 1.0
C      1  0.5038340000000  0.4403660000000  0.4024560000000 1.0
C      1  0.3937200000000  0.4848160000000  0.5790040000000 1.0
C      1  0.4796410000000  0.4615810000000  0.4862780000000 1.0
C      1  0.5138390000000  0.4788090000000  0.5656910000000 1.0
C      1  0.6142990000000  0.4576240000000  0.4804330000000 1.0
C      1  0.5704850000000  0.5392290000000  0.5993340000000 1.0
C      1  0.4931680000000  0.4568100000000  0.4554450000000 1.0
C      1  0.4815540000000  0.5161860000000  0.5714350000000 1.0
C      1  0.4338630000000  0.4933850000000  0.5205700000000 1.0
C      1  0.4051890000000  0.5145260000000  0.5383100000000 1.0
C      1  0.3962990000000  0.4837490000000  0.4793470000000 1.0
C      1  0.4873010000000  0.4449320000000  0.5149430000000 1.0
C      1  0.4838260000000  0.5798290000000  0.5103410000000 1.0
C      1  0.5586090000000  0.5360080000000  0.4680540000000 1.0
C      1  0.5379180000000  0.5775050000000  0.4645010000000 1.0
C      1  0.5773790000000  0.5589310000000  0.4833660000000 1.0
C      1  0.4151970000000  0.5317740000000  0.4852060000000 1.0
C      1  0.4804750000000  0.5657280000000  0.5698270000000 1.0
C      1  0.5324070000000  0.5846010000000  0.5640880000000 1.0
C      1  0.5117950000000  0.5260000000000  0.5955850000000 1.0
C      1  0.4195110000000  0.4455380000000  0.5054070000000 1.0
C      1  0.5185700000000  0.4356850000000  0.5079600000000 1.0
C      1  0.3871660000000  0.4828390000000  0.4489070000000 1.0
C      1  0.5227060000000  0.4664900000000  0.4607470000000 1.0
C      1  0.5807480000000  0.5079840000000  0.5088250000000 1.0
C      1  0.4916460000000  0.5130000000000  0.4634950000000 1.0
C      1  0.4357420000000  0.5624320000000  0.4537370000000 1.0
C      1  0.4337080000000  0.5434390000000  0.4317290000000 1.0
C      1  0.4194280000000  0.5617920000000  0.4770860000000 1.0
C      1  0.3952020000000  0.4628290000000  0.5047630000000 1.0
C      1  0.4368930000000  0.4786440000000  0.5510670000000 1.0
C      1  0.5558170000000  0.5366920000000  0.4370170000000 1.0
C      1  0.4423580000000  0.5125230000000  0.5712370000000 1.0
C      1  0.4740120000000  0.4083910000000  0.4370070000000 1.0
C      1  0.5086900000000  0.5947860000000  0.5220530000000 1.0
C      1  0.5284260000000  0.5834870000000  0.5361950000000 1.0
C      1  0.5052620000000  0.5998650000000  0.4610190000000 1.0
C      1  0.5506200000000  0.6104580000000  0.4831350000000 1.0
C      1  0.4411400000000  0.4522700000000  0.5302720000000 1.0
C      1  0.5182420000000  0.4993710000000  0.5127760000000 1.0
C      1  0.4815370000000  0.5548170000000  0.4300300000000 1.0
C      1  0.5738070000000  0.4326340000000  0.4991900000000 1.0
C      1  0.5629460000000  0.5828920000000  0.4798460000000 1.0
C      1  0.5951320000000  0.4814610000000  0.5199970000000 1.0
C      1  0.4564230000000  0.5391350000000  0.5184940000000 1.0
C      1  0.5134760000000  0.5595810000000  0.4231100000000 1.0
C      1  0.3990850000000  0.4965820000000  0.4314130000000 1.0
C      1  0.5596660000000  0.4700190000000  0.4983140000000 1.0
C      1  0.5296080000000  0.5355530000000  0.4263040000000 1.0
C      1  0.4234510000000  0.5149970000000  0.4401090000000 1.0
C      1  0.4690040000000  0.4690490000000  0.5295910000000 1.0
C      1  0.4749850000000  0.4949530000000  0.4830010000000 1.0
C      1  0.4199100000000  0.5636380000000  0.5085910000000 1.0
C      1  0.5930870000000  0.5311540000000  0.4871160000000 1.0
C      1  0.4917410000000  0.5052830000000  0.6019890000000 1.0
C      1  0.5786050000000  0.5175000000000  0.4388250000000 1.0
C      1  0.4462190000000  0.4541330000000  0.4861820000000 1.0
C      1  0.4844390000000  0.4167130000000  0.5337760000000 1.0
C      1  0.5192610000000  0.5057830000000  0.4290190000000 1.0
C      1  0.4256250000000  0.5394250000000  0.5315130000000 1.0
C      1  0.4166270000000  0.5523560000000  0.5799660000000 1.0
C      1  0.5130350000000  0.4134480000000  0.4839900000000 1.0
C      1  0.5642640000000  0.5658420000000  0.5377120000000 1.0
C      1  0.5007590000000  0.5444430000000  0.5692330000000 1.0
C      1  0.4665880000000  0.5635430000000  0.4593260000000 1.0
C      1  0.4646680000000  0.5158300000000  0.4058120000000 1.0
C      1  0.5829530000000  0.4613510000000  0.5722270000000 1.0
C      1  0.5123650000000  0.4395210000000  0.5727110000000 1.0
C      1  0.4850400000000  0.5808090000000  0.4781970000000 1.0
C      1  0.5242770000000  0.6159650000000  0.4752250000000 1.0
C      1  0.4858970000000  0.4609130000000  0.5731600000000 1.0
C      1  0.4754420000000  0.3907050000000  0.4638490000000 1.0
C      1  0.4582370000000  0.5926350000000  0.5213700000000 1.0
C      1  0.5460360000000  0.5210220000000  0.5411060000000 1.0
C      1  0.4578980000000  0.5416770000000  0.4159680000000 1.0
C      1  0.5010700000000  0.4787470000000  0.5978220000000 1.0
C      1  0.5308330000000  0.5163650000000  0.5701740000000 1.0
C      1  0.4516950000000  0.5044750000000  0.4487550000000 1.0
C      1  0.4067380000000  0.5124740000000  0.4672990000000 1.0
C      1  0.5753190000000  0.4539260000000  0.5223800000000 1.0
C      1  0.4003520000000  0.4876290000000  0.5204680000000 1.0
C      1  0.5430110000000  0.4180340000000  0.5236980000000 1.0
C      1  0.5586590000000  0.4315230000000  0.4636900000000 1.0
C      1  0.5968230000000  0.4717520000000  0.5511000000000 1.0
C      1  0.4990320000000  0.5411140000000  0.4547970000000 1.0
C      1  0.4450500000000  0.5343170000000  0.4904230000000 1.0
C      1  0.4891120000000  0.5480360000000  0.5215610000000 1.0
C      1  0.5153670000000  0.4286100000000  0.5410710000000 1.0
C      1  0.5473070000000  0.5407200000000  0.5855430000000 1.0
C      1  0.5435960000000  0.4475420000000  0.4467970000000 1.0
C      1  0.4645180000000  0.4869680000000  0.5675830000000 1.0
C      1  0.4760620000000  0.5236440000000  0.5415250000000 1.0
C      1  0.5110590000000  0.5625940000000  0.4742260000000 1.0
C      1  0.6182610000000  0.4718240000000  0.5010150000000 1.0
C      1  0.4624380000000  0.5303790000000  0.4656820000000 1.0
C      1  0.4816030000000  0.4288860000000  0.5625170000000 1.0
C      1  0.5341750000000  0.4687380000000  0.5329220000000 1.0
C      1  0.4688730000000  0.4970670000000  0.4254040000000 1.0
C      1  0.5192160000000  0.4972600000000  0.4604280000000 1.0
C      1  0.4681750000000  0.4103910000000  0.5087980000000 1.0
END
