TITL C-2847956-8218-446 -0.000151879216262889 125000 -169.364095544997 0 0 32 (C1) n - 1
REM
REM in /home/bkarasulu/work/CARBON/AIRSS/Generating-Clusters/AIREBO/with-SteepDescent/Only-C1/SD-CG-opt/Try1-1.4A-POS3A/HFTN-CG
REM
REM
REM
REM
REM
REM ./C.cell (11c1c37f851c82e70ff6c80c92926a4b)
REM
REM compiler GCC version 9.2.1 20190827 (Red Hat 9.2.1-1)
REM options -cpp -mtune=generic -march=x86-64 -g -O0 -fpre-include=/usr/include/finclude/math-vector-fortran.h
REM seed 1053453576 -306744251 -1678534450 -1442345498 -937044170 932696886 -1905943927 -1074103191 736261144 -490958855 1070751379 2113937536 1256481989 1424294375 1348001230 -1468488553 234759091 -1043265308 -924934833 -646848189 1041838418 541202390 -5414056 1872215204 -1561404380 -1128451033 -1846621848 183152840 1505845040 -975965004 5342261 778597837 -1040126272
REM
CELL 1.54180   50.00000   50.00000   50.00000   90.00000   90.00000   90.00000
LATT -1
SFAC C  
C      1  0.4987870000000  0.5351260000000  0.4691420000000 1.0
C      1  0.5023990000000  0.4831440000000  0.4647430000000 1.0
C      1  0.4797140000000  0.4265790000000  0.5209250000000 1.0
C      1  0.4583910000000  0.5219620000000  0.5199810000000 1.0
C      1  0.5328720000000  0.4791350000000  0.5137780000000 1.0
C      1  0.4835930000000  0.5244080000000  0.4433350000000 1.0
C      1  0.4876160000000  0.4817240000000  0.5352520000000 1.0
C      1  0.4822080000000  0.5535440000000  0.4891070000000 1.0
C      1  0.5348300000000  0.4863060000000  0.4540180000000 1.0
C      1  0.4621380000000  0.4068250000000  0.5266310000000 1.0
C      1  0.5104560000000  0.5254370000000  0.5310020000000 1.0
C      1  0.4583570000000  0.4938230000000  0.5594650000000 1.0
C      1  0.5399760000000  0.5396790000000  0.5245270000000 1.0
C      1  0.5629870000000  0.5312100000000  0.5124990000000 1.0
C      1  0.4982440000000  0.4227900000000  0.5015840000000 1.0
C      1  0.4929370000000  0.4574200000000  0.4696840000000 1.0
C      1  0.4946410000000  0.5683800000000  0.5076610000000 1.0
C      1  0.4955620000000  0.5055340000000  0.4862500000000 1.0
C      1  0.5555970000000  0.4917640000000  0.4702180000000 1.0
C      1  0.4470680000000  0.5204120000000  0.4725070000000 1.0
C      1  0.5076590000000  0.4972650000000  0.5138720000000 1.0
C      1  0.5241220000000  0.5455760000000  0.4629980000000 1.0
C      1  0.5679410000000  0.5108800000000  0.4941580000000 1.0
C      1  0.4426850000000  0.5104510000000  0.5415260000000 1.0
C      1  0.5185950000000  0.4885510000000  0.4287810000000 1.0
C      1  0.4675540000000  0.5242560000000  0.4914090000000 1.0
C      1  0.4693620000000  0.4661510000000  0.5595980000000 1.0
C      1  0.4916140000000  0.4992450000000  0.4368050000000 1.0
C      1  0.4788110000000  0.4496790000000  0.5343680000000 1.0
C      1  0.4823680000000  0.5137400000000  0.5396550000000 1.0
C      1  0.5139180000000  0.5574640000000  0.5242180000000 1.0
C      1  0.5569970000000  0.4815390000000  0.5003030000000 1.0
END
