TITL C-2847949-8115-195 -0.000619039903005381 125000 -765.936747076101 0 0 143 (C1) n - 1
REM
REM in /home/bkarasulu/work/CARBON/AIRSS/Generating-Clusters/AIREBO/with-SteepDescent/Only-C1/SD-CG-opt/Try1-1.4A-POS3A/HFTN-CG
REM
REM
REM
REM
REM
REM ./C.cell (11c1c37f851c82e70ff6c80c92926a4b)
REM
REM compiler GCC version 9.2.1 20190827 (Red Hat 9.2.1-1)
REM options -cpp -mtune=generic -march=x86-64 -g -O0 -fpre-include=/usr/include/finclude/math-vector-fortran.h
REM seed 190594290 -1119299583 -1455107751 47380723 1115104891 -858093279 -1035240282 704939630 1094294803 1576589119 692865868 -463569394 1820383358 922806623 1599468615 80475755 128694852 -199429716 1304273479 802002809 377557583 1059692860 768377468 -716443710 388078404 -46338151 -328268631 99553093 -1287986816 -1016195100 775163340 1561396966 -937341817
REM
CELL 1.54180   50.00000   50.00000   50.00000   90.00000   90.00000   90.00000
LATT -1
SFAC C  
C      1  0.3901060000000  0.5070440000000  0.5198880000000 1.0
C      1  0.4240060000000  0.4283280000000  0.5318770000000 1.0
C      1  0.5022660000000  0.5156710000000  0.6046220000000 1.0
C      1  0.5863360000000  0.4816980000000  0.5170750000000 1.0
C      1  0.4248440000000  0.4775340000000  0.5543040000000 1.0
C      1  0.5287570000000  0.5591410000000  0.5877160000000 1.0
C      1  0.5378720000000  0.5822080000000  0.5298640000000 1.0
C      1  0.4369560000000  0.4573520000000  0.5077000000000 1.0
C      1  0.4515550000000  0.4879600000000  0.5995010000000 1.0
C      1  0.4299380000000  0.5309420000000  0.5451040000000 1.0
C      1  0.5491680000000  0.4526530000000  0.4903820000000 1.0
C      1  0.4297140000000  0.5252390000000  0.4416370000000 1.0
C      1  0.4461650000000  0.5543640000000  0.4355090000000 1.0
C      1  0.4585000000000  0.4847770000000  0.4332440000000 1.0
C      1  0.5123770000000  0.5702410000000  0.4422750000000 1.0
C      1  0.5493060000000  0.4021830000000  0.5091220000000 1.0
C      1  0.4040510000000  0.4369150000000  0.4627580000000 1.0
C      1  0.5924540000000  0.5404000000000  0.4725550000000 1.0
C      1  0.5400610000000  0.5987750000000  0.4795420000000 1.0
C      1  0.4295240000000  0.4969890000000  0.5792990000000 1.0
C      1  0.4799920000000  0.4418160000000  0.4196760000000 1.0
C      1  0.5089810000000  0.4465670000000  0.4254990000000 1.0
C      1  0.5682780000000  0.5583490000000  0.4624960000000 1.0
C      1  0.4251950000000  0.4575400000000  0.4803510000000 1.0
C      1  0.4546560000000  0.5400890000000  0.5845540000000 1.0
C      1  0.5823860000000  0.5449470000000  0.5359540000000 1.0
C      1  0.4793890000000  0.4617160000000  0.4472450000000 1.0
C      1  0.4795350000000  0.5109570000000  0.4387070000000 1.0
C      1  0.4923620000000  0.5951000000000  0.4889020000000 1.0
C      1  0.4645760000000  0.4413680000000  0.5514380000000 1.0
C      1  0.5314870000000  0.4737430000000  0.4422040000000 1.0
C      1  0.4842570000000  0.3962380000000  0.5186750000000 1.0
C      1  0.5198150000000  0.5847940000000  0.5021950000000 1.0
C      1  0.5286860000000  0.5032070000000  0.4784070000000 1.0
C      1  0.4339270000000  0.4465730000000  0.5499200000000 1.0
C      1  0.5625680000000  0.5367950000000  0.4390390000000 1.0
C      1  0.4413460000000  0.4236460000000  0.5086650000000 1.0
C      1  0.4744510000000  0.5450110000000  0.4188650000000 1.0
C      1  0.5131680000000  0.5950050000000  0.4641330000000 1.0
C      1  0.4788070000000  0.5140800000000  0.4054220000000 1.0
C      1  0.4551350000000  0.5727010000000  0.5297620000000 1.0
C      1  0.4972590000000  0.4631080000000  0.6094060000000 1.0
C      1  0.4813970000000  0.4064980000000  0.4652660000000 1.0
C      1  0.4406940000000  0.4782540000000  0.4606380000000 1.0
C      1  0.4675450000000  0.4132550000000  0.4957930000000 1.0
C      1  0.4644720000000  0.4698590000000  0.5792200000000 1.0
C      1  0.5595180000000  0.4419750000000  0.5459030000000 1.0
C      1  0.5780940000000  0.4515030000000  0.5287330000000 1.0
C      1  0.5720660000000  0.4441810000000  0.4514780000000 1.0
C      1  0.5546020000000  0.5100130000000  0.4177420000000 1.0
C      1  0.6054880000000  0.5239790000000  0.4453420000000 1.0
C      1  0.4753920000000  0.5476710000000  0.4913270000000 1.0
C      1  0.4483440000000  0.5288390000000  0.4962870000000 1.0
C      1  0.5169660000000  0.4761090000000  0.4115500000000 1.0
C      1  0.4473960000000  0.5169370000000  0.4680590000000 1.0
C      1  0.4781840000000  0.5596800000000  0.5731870000000 1.0
C      1  0.4638660000000  0.4324170000000  0.4548140000000 1.0
C      1  0.4651950000000  0.4714860000000  0.4832320000000 1.0
C      1  0.4086270000000  0.5465620000000  0.4820440000000 1.0
C      1  0.5940810000000  0.5414380000000  0.5065350000000 1.0
C      1  0.4760280000000  0.5774770000000  0.5455520000000 1.0
C      1  0.5064290000000  0.4109210000000  0.5402570000000 1.0
C      1  0.4876570000000  0.5927250000000  0.4417710000000 1.0
C      1  0.4418480000000  0.4846530000000  0.5257340000000 1.0
C      1  0.4034860000000  0.5070640000000  0.4466330000000 1.0
C      1  0.4194930000000  0.5524060000000  0.4579720000000 1.0
C      1  0.4600260000000  0.4606880000000  0.4095380000000 1.0
C      1  0.5014250000000  0.5362560000000  0.3993150000000 1.0
C      1  0.5271990000000  0.4188500000000  0.4481790000000 1.0
C      1  0.4841300000000  0.4872720000000  0.6092650000000 1.0
C      1  0.4679410000000  0.5778330000000  0.4844630000000 1.0
C      1  0.5249790000000  0.5068920000000  0.5277870000000 1.0
C      1  0.4296130000000  0.5120580000000  0.5179950000000 1.0
C      1  0.4781990000000  0.4421210000000  0.4826370000000 1.0
C      1  0.4041760000000  0.5260800000000  0.5006990000000 1.0
C      1  0.5135330000000  0.5111330000000  0.4396030000000 1.0
C      1  0.5457090000000  0.5100850000000  0.4505600000000 1.0
C      1  0.5433320000000  0.5337030000000  0.4815910000000 1.0
C      1  0.4667540000000  0.5726410000000  0.4532360000000 1.0
C      1  0.5186030000000  0.5520450000000  0.5068030000000 1.0
C      1  0.5630080000000  0.4738940000000  0.4445240000000 1.0
C      1  0.5758340000000  0.4931540000000  0.4879710000000 1.0
C      1  0.5807000000000  0.5002190000000  0.5601000000000 1.0
C      1  0.5428340000000  0.5330750000000  0.5213510000000 1.0
C      1  0.4928780000000  0.4265640000000  0.5601100000000 1.0
C      1  0.5511300000000  0.4625230000000  0.5663870000000 1.0
C      1  0.5653660000000  0.5085510000000  0.5140560000000 1.0
C      1  0.5046800000000  0.4010620000000  0.4518110000000 1.0
C      1  0.4953230000000  0.5340170000000  0.5765220000000 1.0
C      1  0.4692650000000  0.5238940000000  0.6049650000000 1.0
C      1  0.5517570000000  0.4798330000000  0.4759340000000 1.0
C      1  0.5116170000000  0.4976590000000  0.5031400000000 1.0
C      1  0.4866590000000  0.5157500000000  0.4945780000000 1.0
C      1  0.5054100000000  0.5430360000000  0.5349840000000 1.0
C      1  0.5552880000000  0.4227570000000  0.4412670000000 1.0
C      1  0.5485890000000  0.5166830000000  0.5768420000000 1.0
C      1  0.5886820000000  0.5084690000000  0.4686010000000 1.0
C      1  0.5098520000000  0.4473120000000  0.4915840000000 1.0
C      1  0.4816070000000  0.4843380000000  0.5572680000000 1.0
C      1  0.4352940000000  0.4340010000000  0.4599190000000 1.0
C      1  0.4401220000000  0.5072800000000  0.4170120000000 1.0
C      1  0.5658700000000  0.5847010000000  0.4789750000000 1.0
C      1  0.5313930000000  0.4699460000000  0.5411000000000 1.0
C      1  0.5312960000000  0.4513690000000  0.5191780000000 1.0
C      1  0.4897300000000  0.4718480000000  0.5067810000000 1.0
C      1  0.4661930000000  0.4530760000000  0.5226100000000 1.0
C      1  0.5057410000000  0.4172050000000  0.5068490000000 1.0
C      1  0.5940140000000  0.4519510000000  0.5016030000000 1.0
C      1  0.4734250000000  0.4917510000000  0.5290390000000 1.0
C      1  0.4763950000000  0.5077730000000  0.5758490000000 1.0
C      1  0.4346370000000  0.5246960000000  0.5713100000000 1.0
C      1  0.5341990000000  0.4234870000000  0.4911610000000 1.0
C      1  0.5186790000000  0.5016260000000  0.5783620000000 1.0
C      1  0.5014520000000  0.5824350000000  0.5634390000000 1.0
C      1  0.5587680000000  0.5785320000000  0.5085170000000 1.0
C      1  0.5025070000000  0.4834280000000  0.4559620000000 1.0
C      1  0.5344600000000  0.5550760000000  0.4606420000000 1.0
C      1  0.5067240000000  0.5147230000000  0.5509520000000 1.0
C      1  0.5778800000000  0.4448960000000  0.4798750000000 1.0
C      1  0.5309460000000  0.5333370000000  0.5992170000000 1.0
C      1  0.5064170000000  0.4498930000000  0.5809880000000 1.0
C      1  0.5637010000000  0.5488030000000  0.5010270000000 1.0
C      1  0.4813250000000  0.5421100000000  0.4522270000000 1.0
C      1  0.4739200000000  0.4404220000000  0.5841920000000 1.0
C      1  0.5056200000000  0.5455020000000  0.4759130000000 1.0
C      1  0.4749920000000  0.4991510000000  0.4702690000000 1.0
C      1  0.5178240000000  0.4471410000000  0.4584460000000 1.0
C      1  0.4519840000000  0.5436350000000  0.5268040000000 1.0
C      1  0.4900290000000  0.4889290000000  0.3952250000000 1.0
C      1  0.4093020000000  0.4836920000000  0.4547720000000 1.0
C      1  0.5439300000000  0.5484390000000  0.4188670000000 1.0
C      1  0.3992830000000  0.4863630000000  0.5353330000000 1.0
C      1  0.5222930000000  0.5093560000000  0.4067870000000 1.0
C      1  0.5362110000000  0.4222610000000  0.5320940000000 1.0
C      1  0.5538290000000  0.4938800000000  0.5402210000000 1.0
C      1  0.5612650000000  0.4851750000000  0.5784780000000 1.0
C      1  0.5816470000000  0.5009860000000  0.4362790000000 1.0
C      1  0.5107220000000  0.4747190000000  0.5632260000000 1.0
C      1  0.4782700000000  0.5251780000000  0.5249330000000 1.0
C      1  0.5158550000000  0.5428560000000  0.4275280000000 1.0
C      1  0.5531690000000  0.5404130000000  0.5529000000000 1.0
C      1  0.5266650000000  0.5617160000000  0.5538670000000 1.0
C      1  0.4488400000000  0.5861260000000  0.5070490000000 1.0
END
