TITL C-2847950-6905-56 -0.000954382166076322 125000 -899.225714319067 0 0 168 (C1) n - 1
REM
REM in /home/bkarasulu/work/CARBON/AIRSS/Generating-Clusters/AIREBO/with-SteepDescent/Only-C1/SD-CG-opt/Try1-1.4A-POS3A/HFTN-CG
REM
REM
REM
REM
REM
REM ./C.cell (11c1c37f851c82e70ff6c80c92926a4b)
REM
REM compiler GCC version 9.2.1 20190827 (Red Hat 9.2.1-1)
REM options -cpp -mtune=generic -march=x86-64 -g -O0 -fpre-include=/usr/include/finclude/math-vector-fortran.h
REM seed -1472353799 1349746346 -596283314 -897332095 846793364 751083047 -914983471 -2069955299 -749300444 -1895865078 -2145484373 1320800941 426601227 1018782720 1765224275 -249055453 483005256 1810500096 -518920224 -1433341889 1233591900 -465459636 884020442 1173534527 2017990501 -922205968 -1677442628 236435290 1765405611 1289516947 475019012 1065691569 1130492762
REM
CELL 1.54180   50.00000   50.00000   50.00000   90.00000   90.00000   90.00000
LATT -1
SFAC C  
C      1  0.4692480000000  0.5159430000000  0.4822900000000 1.0
C      1  0.5431010000000  0.5745200000000  0.5050470000000 1.0
C      1  0.4643370000000  0.5563150000000  0.4592290000000 1.0
C      1  0.4155650000000  0.4238130000000  0.4808400000000 1.0
C      1  0.4433480000000  0.4823320000000  0.4146360000000 1.0
C      1  0.4512430000000  0.4541420000000  0.4617530000000 1.0
C      1  0.4707170000000  0.4396340000000  0.4830720000000 1.0
C      1  0.5897280000000  0.4678810000000  0.4317060000000 1.0
C      1  0.5228060000000  0.4913070000000  0.5984110000000 1.0
C      1  0.5401110000000  0.4641200000000  0.4657800000000 1.0
C      1  0.5009560000000  0.5748550000000  0.5591160000000 1.0
C      1  0.5758160000000  0.4670400000000  0.5038920000000 1.0
C      1  0.4980620000000  0.5934240000000  0.4517660000000 1.0
C      1  0.5942870000000  0.4547660000000  0.4838360000000 1.0
C      1  0.4292730000000  0.4920480000000  0.4672110000000 1.0
C      1  0.4035950000000  0.5273910000000  0.5583240000000 1.0
C      1  0.5480120000000  0.5129550000000  0.4698810000000 1.0
C      1  0.4881840000000  0.4639290000000  0.5664920000000 1.0
C      1  0.4647750000000  0.5934880000000  0.4839450000000 1.0
C      1  0.5195820000000  0.5133590000000  0.5082560000000 1.0
C      1  0.4606480000000  0.4078860000000  0.4878290000000 1.0
C      1  0.5164430000000  0.5018760000000  0.3994720000000 1.0
C      1  0.4821940000000  0.4813680000000  0.5277000000000 1.0
C      1  0.5311260000000  0.4101240000000  0.5092160000000 1.0
C      1  0.5880100000000  0.5436260000000  0.5335250000000 1.0
C      1  0.5450860000000  0.5857250000000  0.4667040000000 1.0
C      1  0.4969140000000  0.5494550000000  0.4538560000000 1.0
C      1  0.5916280000000  0.5178880000000  0.5112420000000 1.0
C      1  0.4928530000000  0.4665770000000  0.4505610000000 1.0
C      1  0.5234210000000  0.5124570000000  0.5488020000000 1.0
C      1  0.4938690000000  0.4758560000000  0.4820530000000 1.0
C      1  0.4870550000000  0.5271990000000  0.4331340000000 1.0
C      1  0.5333710000000  0.4231110000000  0.5406550000000 1.0
C      1  0.4761470000000  0.5782660000000  0.4360920000000 1.0
C      1  0.5740980000000  0.5906360000000  0.4549320000000 1.0
C      1  0.5175320000000  0.4435660000000  0.4178200000000 1.0
C      1  0.4587940000000  0.5129410000000  0.4349200000000 1.0
C      1  0.4273880000000  0.5670930000000  0.4943200000000 1.0
C      1  0.4774140000000  0.4781880000000  0.6184500000000 1.0
C      1  0.5218060000000  0.4952880000000  0.4824680000000 1.0
C      1  0.4275010000000  0.4996370000000  0.4345140000000 1.0
C      1  0.4175460000000  0.4373400000000  0.5633980000000 1.0
C      1  0.4422070000000  0.5232110000000  0.4629940000000 1.0
C      1  0.5646190000000  0.5026910000000  0.4421300000000 1.0
C      1  0.5259360000000  0.5107650000000  0.4372020000000 1.0
C      1  0.6104420000000  0.4715280000000  0.4696000000000 1.0
C      1  0.5568200000000  0.4551380000000  0.5441910000000 1.0
C      1  0.5413730000000  0.4614550000000  0.4166260000000 1.0
C      1  0.5345430000000  0.6026230000000  0.4928500000000 1.0
C      1  0.5163000000000  0.5918170000000  0.5398980000000 1.0
C      1  0.4030810000000  0.4880130000000  0.4853060000000 1.0
C      1  0.5805580000000  0.4276930000000  0.4799080000000 1.0
C      1  0.4188370000000  0.4523700000000  0.4530450000000 1.0
C      1  0.4689950000000  0.5558220000000  0.5739290000000 1.0
C      1  0.5944310000000  0.4868430000000  0.5481700000000 1.0
C      1  0.4348770000000  0.5519650000000  0.4463780000000 1.0
C      1  0.4514170000000  0.4033360000000  0.5172640000000 1.0
C      1  0.5479860000000  0.5526700000000  0.4721410000000 1.0
C      1  0.4485150000000  0.4853920000000  0.5068450000000 1.0
C      1  0.4032380000000  0.5404710000000  0.5819660000000 1.0
C      1  0.5273980000000  0.5401340000000  0.4496470000000 1.0
C      1  0.5527240000000  0.4435700000000  0.5124400000000 1.0
C      1  0.4884480000000  0.3927090000000  0.4849370000000 1.0
C      1  0.5055720000000  0.5927020000000  0.5076420000000 1.0
C      1  0.5343980000000  0.4631440000000  0.5896790000000 1.0
C      1  0.5082560000000  0.4852350000000  0.5491910000000 1.0
C      1  0.5143710000000  0.5594140000000  0.5069370000000 1.0
C      1  0.4501530000000  0.5263850000000  0.5348770000000 1.0
C      1  0.4760990000000  0.4955800000000  0.5698380000000 1.0
C      1  0.5380460000000  0.4337180000000  0.5720970000000 1.0
C      1  0.4668360000000  0.5007990000000  0.4045310000000 1.0
C      1  0.4674000000000  0.5340430000000  0.3989970000000 1.0
C      1  0.4445240000000  0.5938610000000  0.5081140000000 1.0
C      1  0.4429720000000  0.5651380000000  0.5715980000000 1.0
C      1  0.5754360000000  0.4904540000000  0.5680090000000 1.0
C      1  0.5265510000000  0.5638880000000  0.4286200000000 1.0
C      1  0.5886940000000  0.5730810000000  0.4397110000000 1.0
C      1  0.4891100000000  0.4085500000000  0.4599190000000 1.0
C      1  0.4808710000000  0.5129020000000  0.5404080000000 1.0
C      1  0.5047630000000  0.3982350000000  0.5073950000000 1.0
C      1  0.4906480000000  0.4880740000000  0.5980730000000 1.0
C      1  0.4532360000000  0.5558230000000  0.4209910000000 1.0
C      1  0.4293670000000  0.5097480000000  0.5541210000000 1.0
C      1  0.4898350000000  0.5216160000000  0.5087750000000 1.0
C      1  0.4750180000000  0.5882330000000  0.5220930000000 1.0
C      1  0.5076260000000  0.5544320000000  0.5808680000000 1.0
C      1  0.4613690000000  0.4835770000000  0.4754550000000 1.0
C      1  0.4945960000000  0.3971640000000  0.5654750000000 1.0
C      1  0.4019410000000  0.4638620000000  0.5060760000000 1.0
C      1  0.5465880000000  0.5026390000000  0.5259280000000 1.0
C      1  0.3994650000000  0.4661920000000  0.4610280000000 1.0
C      1  0.6169640000000  0.5336090000000  0.4933180000000 1.0
C      1  0.5738790000000  0.5343920000000  0.4646350000000 1.0
C      1  0.5943000000000  0.5150020000000  0.4777790000000 1.0
C      1  0.4473480000000  0.4289490000000  0.4392530000000 1.0
C      1  0.5599670000000  0.5421910000000  0.5837020000000 1.0
C      1  0.5671650000000  0.5576950000000  0.5564390000000 1.0
C      1  0.5643760000000  0.4264640000000  0.4522420000000 1.0
C      1  0.4877340000000  0.4034860000000  0.5350650000000 1.0
C      1  0.3990310000000  0.5165010000000  0.4964630000000 1.0
C      1  0.4971400000000  0.4960570000000  0.4423260000000 1.0
C      1  0.4502360000000  0.5299330000000  0.5976980000000 1.0
C      1  0.5682130000000  0.4504300000000  0.4320460000000 1.0
C      1  0.4094430000000  0.5298350000000  0.5259750000000 1.0
C      1  0.4341600000000  0.5102330000000  0.5132340000000 1.0
C      1  0.5472120000000  0.4198700000000  0.4808530000000 1.0
C      1  0.4285560000000  0.5495460000000  0.5914540000000 1.0
C      1  0.5580900000000  0.5314220000000  0.5283100000000 1.0
C      1  0.5481220000000  0.5060730000000  0.4125830000000 1.0
C      1  0.4607700000000  0.5608340000000  0.4925430000000 1.0
C      1  0.4630880000000  0.4254680000000  0.5365360000000 1.0
C      1  0.4977910000000  0.5133330000000  0.4690210000000 1.0
C      1  0.4645570000000  0.4424890000000  0.5618200000000 1.0
C      1  0.5019830000000  0.4319250000000  0.5309850000000 1.0
C      1  0.5303900000000  0.4759990000000  0.5171420000000 1.0
C      1  0.4166080000000  0.5596560000000  0.5243400000000 1.0
C      1  0.4201570000000  0.5354500000000  0.4858070000000 1.0
C      1  0.6054940000000  0.5236200000000  0.4324800000000 1.0
C      1  0.5614680000000  0.5182740000000  0.5595810000000 1.0
C      1  0.4619360000000  0.5571240000000  0.5263340000000 1.0
C      1  0.5283830000000  0.5362350000000  0.5726000000000 1.0
C      1  0.4370360000000  0.4596790000000  0.5592310000000 1.0
C      1  0.5240170000000  0.5870540000000  0.4445330000000 1.0
C      1  0.5903330000000  0.5452730000000  0.4414990000000 1.0
C      1  0.5392940000000  0.4101140000000  0.4430470000000 1.0
C      1  0.4196380000000  0.4419160000000  0.5024490000000 1.0
C      1  0.5435400000000  0.5121750000000  0.5880970000000 1.0
C      1  0.4549330000000  0.4661530000000  0.5310470000000 1.0
C      1  0.4477910000000  0.5060020000000  0.5799110000000 1.0
C      1  0.5266600000000  0.4451540000000  0.4905900000000 1.0
C      1  0.5594210000000  0.4678900000000  0.5700590000000 1.0
C      1  0.5095090000000  0.5213170000000  0.6074840000000 1.0
C      1  0.4826230000000  0.5404810000000  0.5992620000000 1.0
C      1  0.5006140000000  0.5279740000000  0.4038360000000 1.0
C      1  0.4501240000000  0.4424640000000  0.5099910000000 1.0
C      1  0.5982460000000  0.5565000000000  0.5044960000000 1.0
C      1  0.5038180000000  0.4627100000000  0.5087100000000 1.0
C      1  0.5134550000000  0.5577270000000  0.4048430000000 1.0
C      1  0.4863660000000  0.5464390000000  0.5474380000000 1.0
C      1  0.5652650000000  0.5505520000000  0.5014500000000 1.0
C      1  0.5370780000000  0.5673860000000  0.5437980000000 1.0
C      1  0.4919360000000  0.5481590000000  0.4876260000000 1.0
C      1  0.4416760000000  0.4757790000000  0.5875330000000 1.0
C      1  0.5492150000000  0.4780280000000  0.4928210000000 1.0
C      1  0.4911550000000  0.4172500000000  0.5841650000000 1.0
C      1  0.4380060000000  0.4156960000000  0.4674360000000 1.0
C      1  0.4191410000000  0.5720100000000  0.4618100000000 1.0
C      1  0.3975730000000  0.4725330000000  0.5323430000000 1.0
C      1  0.5171460000000  0.5428740000000  0.5349330000000 1.0
C      1  0.4637640000000  0.4243880000000  0.5890430000000 1.0
C      1  0.5787510000000  0.4921970000000  0.5218400000000 1.0
C      1  0.4826730000000  0.5635350000000  0.4062960000000 1.0
C      1  0.4785650000000  0.4222950000000  0.4343310000000 1.0
C      1  0.5233960000000  0.4556430000000  0.5426150000000 1.0
C      1  0.4359990000000  0.5681570000000  0.5446140000000 1.0
C      1  0.5657600000000  0.5786680000000  0.5300550000000 1.0
C      1  0.5186410000000  0.4274990000000  0.4415310000000 1.0
C      1  0.5081510000000  0.4429070000000  0.5820700000000 1.0
C      1  0.4909350000000  0.6001610000000  0.4778610000000 1.0
C      1  0.5407780000000  0.4801080000000  0.4418300000000 1.0
C      1  0.5014780000000  0.4390270000000  0.4685420000000 1.0
C      1  0.5737220000000  0.4168930000000  0.5101560000000 1.0
C      1  0.5419540000000  0.4808370000000  0.3915600000000 1.0
C      1  0.4867050000000  0.4535850000000  0.4215850000000 1.0
C      1  0.4172710000000  0.4822080000000  0.5479000000000 1.0
C      1  0.4914280000000  0.4817860000000  0.4029990000000 1.0
C      1  0.4528730000000  0.4569430000000  0.4212170000000 1.0
C      1  0.5969070000000  0.4957060000000  0.4498940000000 1.0
END
