TITL C-2847958-8115-333 0.00183899689929551 125000 -865.000070236658 0 0 163 (C1) n - 1
REM
REM in /home/bkarasulu/work/CARBON/AIRSS/Generating-Clusters/AIREBO/with-SteepDescent/Only-C1/SD-CG-opt/Try1-1.4A-POS3A/HFTN-CG
REM
REM
REM
REM
REM
REM ./C.cell (11c1c37f851c82e70ff6c80c92926a4b)
REM
REM compiler GCC version 9.2.1 20190827 (Red Hat 9.2.1-1)
REM options -cpp -mtune=generic -march=x86-64 -g -O0 -fpre-include=/usr/include/finclude/math-vector-fortran.h
REM seed -1188493879 -780136971 2119064577 31369162 -2111591935 1178567109 57367156 539688087 -1138060682 434836904 1756345259 -1795353394 2132854865 457103140 -963142688 1949897266 -1465013460 -607120356 -2085100490 -25757581 150840466 918084970 -2090807872 -1544895958 -357639668 310583072 -1095157911 635760584 -806139167 753817909 -578292550 -1410108040 -1268827187
REM
CELL 1.54180   50.00000   50.00000   50.00000   90.00000   90.00000   90.00000
LATT -1
SFAC C  
C      1  0.3994190000000  0.4564250000000  0.4804590000000 1.0
C      1  0.5449190000000  0.5303870000000  0.5389800000000 1.0
C      1  0.4304700000000  0.5685950000000  0.4477040000000 1.0
C      1  0.4504320000000  0.5409540000000  0.4488970000000 1.0
C      1  0.5458580000000  0.4927030000000  0.4426840000000 1.0
C      1  0.4508380000000  0.4860380000000  0.4472510000000 1.0
C      1  0.5720150000000  0.5610290000000  0.4375340000000 1.0
C      1  0.4393090000000  0.4959250000000  0.4863260000000 1.0
C      1  0.4373650000000  0.5763130000000  0.5104010000000 1.0
C      1  0.4091730000000  0.4882340000000  0.4725780000000 1.0
C      1  0.4733130000000  0.4988530000000  0.5590620000000 1.0
C      1  0.5468200000000  0.5061260000000  0.6005340000000 1.0
C      1  0.4884040000000  0.5746860000000  0.5169290000000 1.0
C      1  0.4990140000000  0.4765970000000  0.5577630000000 1.0
C      1  0.4683850000000  0.4116990000000  0.5304480000000 1.0
C      1  0.5057820000000  0.5485430000000  0.4049580000000 1.0
C      1  0.5133650000000  0.5720970000000  0.4168370000000 1.0
C      1  0.5251530000000  0.4849840000000  0.4757270000000 1.0
C      1  0.4486990000000  0.5429400000000  0.5681960000000 1.0
C      1  0.4839990000000  0.4191350000000  0.4164630000000 1.0
C      1  0.5770420000000  0.5177260000000  0.4945950000000 1.0
C      1  0.5414730000000  0.4764350000000  0.5848490000000 1.0
C      1  0.5605080000000  0.5398000000000  0.5646290000000 1.0
C      1  0.4332100000000  0.5139560000000  0.4252210000000 1.0
C      1  0.4975680000000  0.5384510000000  0.5936050000000 1.0
C      1  0.4424210000000  0.4203620000000  0.4547850000000 1.0
C      1  0.4763610000000  0.5738390000000  0.4756030000000 1.0
C      1  0.5333580000000  0.5347470000000  0.4640280000000 1.0
C      1  0.5023700000000  0.5234810000000  0.4261630000000 1.0
C      1  0.4711610000000  0.4906580000000  0.6024160000000 1.0
C      1  0.5254640000000  0.5149310000000  0.4918250000000 1.0
C      1  0.4647830000000  0.4655950000000  0.5192120000000 1.0
C      1  0.5911910000000  0.4440770000000  0.4830970000000 1.0
C      1  0.4664760000000  0.4385220000000  0.5795430000000 1.0
C      1  0.5599600000000  0.5679850000000  0.4891660000000 1.0
C      1  0.5828040000000  0.5408220000000  0.4607260000000 1.0
C      1  0.5008420000000  0.5652600000000  0.5448940000000 1.0
C      1  0.4276370000000  0.4693870000000  0.5659370000000 1.0
C      1  0.5452030000000  0.4029200000000  0.4931720000000 1.0
C      1  0.5331060000000  0.4334310000000  0.5647470000000 1.0
C      1  0.6078530000000  0.4707680000000  0.4979900000000 1.0
C      1  0.5676900000000  0.4486690000000  0.5249110000000 1.0
C      1  0.6011800000000  0.4967070000000  0.4831150000000 1.0
C      1  0.5153550000000  0.4211940000000  0.5158520000000 1.0
C      1  0.4574310000000  0.4697240000000  0.4033090000000 1.0
C      1  0.5920020000000  0.4883950000000  0.4552290000000 1.0
C      1  0.4934110000000  0.5033340000000  0.4002640000000 1.0
C      1  0.4996730000000  0.5125560000000  0.5751870000000 1.0
C      1  0.4073730000000  0.5265020000000  0.4833030000000 1.0
C      1  0.5306910000000  0.4562810000000  0.4199290000000 1.0
C      1  0.5900290000000  0.5552820000000  0.4915870000000 1.0
C      1  0.5551050000000  0.5400360000000  0.5079240000000 1.0
C      1  0.4461150000000  0.4629390000000  0.4840040000000 1.0
C      1  0.5163130000000  0.4860370000000  0.4279190000000 1.0
C      1  0.4166760000000  0.5173840000000  0.5434380000000 1.0
C      1  0.4730530000000  0.5659940000000  0.4445780000000 1.0
C      1  0.5210780000000  0.5534280000000  0.5895400000000 1.0
C      1  0.4532820000000  0.4525180000000  0.4524300000000 1.0
C      1  0.4832660000000  0.6021960000000  0.5448270000000 1.0
C      1  0.5242240000000  0.4084200000000  0.5461120000000 1.0
C      1  0.4409310000000  0.4526080000000  0.4207480000000 1.0
C      1  0.4917230000000  0.5846140000000  0.4277420000000 1.0
C      1  0.4182950000000  0.5508470000000  0.4972860000000 1.0
C      1  0.5153330000000  0.4940980000000  0.5947800000000 1.0
C      1  0.5075140000000  0.6031280000000  0.5270120000000 1.0
C      1  0.5533460000000  0.4852140000000  0.4043400000000 1.0
C      1  0.4605440000000  0.4995750000000  0.4108870000000 1.0
C      1  0.5655180000000  0.5097200000000  0.4123020000000 1.0
C      1  0.4693140000000  0.4088010000000  0.4403730000000 1.0
C      1  0.4899700000000  0.5401200000000  0.4527580000000 1.0
C      1  0.4143790000000  0.5159930000000  0.4534940000000 1.0
C      1  0.4471700000000  0.4887930000000  0.5783370000000 1.0
C      1  0.4182980000000  0.4778170000000  0.4418130000000 1.0
C      1  0.5063540000000  0.5716490000000  0.4914920000000 1.0
C      1  0.5253900000000  0.5488780000000  0.4939090000000 1.0
C      1  0.4288690000000  0.4393990000000  0.5014810000000 1.0
C      1  0.4376840000000  0.4263520000000  0.5313210000000 1.0
C      1  0.5737800000000  0.5119750000000  0.4451370000000 1.0
C      1  0.5099630000000  0.4387900000000  0.4087450000000 1.0
C      1  0.4646560000000  0.4233710000000  0.4772600000000 1.0
C      1  0.3906940000000  0.5051890000000  0.5616660000000 1.0
C      1  0.5243880000000  0.4021250000000  0.4459260000000 1.0
C      1  0.5414100000000  0.4533560000000  0.5400190000000 1.0
C      1  0.5638150000000  0.4615870000000  0.4251960000000 1.0
C      1  0.4590100000000  0.5738240000000  0.5585860000000 1.0
C      1  0.6067750000000  0.5287170000000  0.4814450000000 1.0
C      1  0.4087720000000  0.4792060000000  0.5231590000000 1.0
C      1  0.3858950000000  0.5113620000000  0.5296660000000 1.0
C      1  0.5154080000000  0.4681870000000  0.5291800000000 1.0
C      1  0.4930240000000  0.4320070000000  0.5391340000000 1.0
C      1  0.4799820000000  0.5003700000000  0.4371690000000 1.0
C      1  0.5991170000000  0.4444020000000  0.5161600000000 1.0
C      1  0.5486900000000  0.5626540000000  0.4622190000000 1.0
C      1  0.5444590000000  0.5377320000000  0.5927140000000 1.0
C      1  0.4509100000000  0.5213120000000  0.5875370000000 1.0
C      1  0.4658030000000  0.5391150000000  0.5401050000000 1.0
C      1  0.5776340000000  0.4691410000000  0.5694600000000 1.0
C      1  0.4683170000000  0.4337540000000  0.5078160000000 1.0
C      1  0.5377690000000  0.4412870000000  0.4997270000000 1.0
C      1  0.5633710000000  0.4464670000000  0.5645450000000 1.0
C      1  0.5534500000000  0.5892440000000  0.5111600000000 1.0
C      1  0.5909320000000  0.5327420000000  0.5378440000000 1.0
C      1  0.5532740000000  0.5384520000000  0.4203540000000 1.0
C      1  0.5410910000000  0.5041770000000  0.5178900000000 1.0
C      1  0.5666990000000  0.5758620000000  0.5328790000000 1.0
C      1  0.4946280000000  0.5353910000000  0.5298740000000 1.0
C      1  0.4594760000000  0.5855830000000  0.5270560000000 1.0
C      1  0.5738670000000  0.5058880000000  0.5263130000000 1.0
C      1  0.5226080000000  0.4881260000000  0.3953420000000 1.0
C      1  0.4945140000000  0.4722440000000  0.6043480000000 1.0
C      1  0.5292610000000  0.4925070000000  0.5574830000000 1.0
C      1  0.4288670000000  0.5637600000000  0.5496300000000 1.0
C      1  0.5242480000000  0.5687280000000  0.5650350000000 1.0
C      1  0.4790640000000  0.4962920000000  0.4786140000000 1.0
C      1  0.4455670000000  0.5229310000000  0.5060360000000 1.0
C      1  0.4874770000000  0.5835260000000  0.5702750000000 1.0
C      1  0.4914710000000  0.4857050000000  0.5196860000000 1.0
C      1  0.4802410000000  0.4519070000000  0.4139180000000 1.0
C      1  0.5984450000000  0.5275650000000  0.5641070000000 1.0
C      1  0.4057010000000  0.4803090000000  0.5534280000000 1.0
C      1  0.4001910000000  0.4533820000000  0.5101650000000 1.0
C      1  0.4398070000000  0.4484690000000  0.5516580000000 1.0
C      1  0.5351970000000  0.4619160000000  0.4528570000000 1.0
C      1  0.5394760000000  0.5680840000000  0.4297110000000 1.0
C      1  0.4197400000000  0.4383910000000  0.4683130000000 1.0
C      1  0.4729840000000  0.4558570000000  0.5507440000000 1.0
C      1  0.4550400000000  0.5153810000000  0.4639220000000 1.0
C      1  0.5174100000000  0.6026830000000  0.4827460000000 1.0
C      1  0.4981350000000  0.3946190000000  0.5283250000000 1.0
C      1  0.5678970000000  0.4255270000000  0.5000010000000 1.0
C      1  0.5734180000000  0.5139960000000  0.5806110000000 1.0
C      1  0.4935360000000  0.4383040000000  0.4872210000000 1.0
C      1  0.5507050000000  0.5670130000000  0.5540260000000 1.0
C      1  0.5874320000000  0.5574010000000  0.5236850000000 1.0
C      1  0.5154830000000  0.5206110000000  0.5475270000000 1.0
C      1  0.4029340000000  0.4672730000000  0.4237760000000 1.0
C      1  0.4974380000000  0.4172560000000  0.4540680000000 1.0
C      1  0.4864790000000  0.4487590000000  0.4472060000000 1.0
C      1  0.5763910000000  0.4765240000000  0.5093450000000 1.0
C      1  0.5589720000000  0.4786940000000  0.4807870000000 1.0
C      1  0.4863280000000  0.5354260000000  0.4787050000000 1.0
C      1  0.5298690000000  0.6040450000000  0.5095620000000 1.0
C      1  0.3982630000000  0.5012870000000  0.5020230000000 1.0
C      1  0.5141150000000  0.4566500000000  0.5807990000000 1.0
C      1  0.4398470000000  0.4822030000000  0.5238030000000 1.0
C      1  0.5632050000000  0.4944250000000  0.5565460000000 1.0
C      1  0.4242630000000  0.5444370000000  0.4274700000000 1.0
C      1  0.4366450000000  0.5700040000000  0.4774210000000 1.0
C      1  0.5460430000000  0.4115240000000  0.4543590000000 1.0
C      1  0.5322920000000  0.5211930000000  0.4379540000000 1.0
C      1  0.5490680000000  0.4391660000000  0.4676870000000 1.0
C      1  0.4943150000000  0.4307240000000  0.5730870000000 1.0
C      1  0.4593960000000  0.5489250000000  0.4913640000000 1.0
C      1  0.4273320000000  0.5419760000000  0.5275120000000 1.0
C      1  0.5137650000000  0.4113480000000  0.4833320000000 1.0
C      1  0.4493700000000  0.5101840000000  0.5374510000000 1.0
C      1  0.4889660000000  0.6039230000000  0.4759670000000 1.0
C      1  0.4772660000000  0.4667820000000  0.4875010000000 1.0
C      1  0.5363530000000  0.4728670000000  0.5055080000000 1.0
C      1  0.4980620000000  0.4796030000000  0.4558780000000 1.0
C      1  0.4751950000000  0.5220310000000  0.6052940000000 1.0
C      1  0.5745820000000  0.4592940000000  0.4576230000000 1.0
C      1  0.4941660000000  0.5143640000000  0.5031430000000 1.0
END
