TITL C-2847956-8218-571 0.000271715009146249 125000 -333.732705330036 0 0 61 (C1) n - 1
REM
REM in /home/bkarasulu/work/CARBON/AIRSS/Generating-Clusters/AIREBO/with-SteepDescent/Only-C1/SD-CG-opt/Try1-1.4A-POS3A/HFTN-CG
REM
REM
REM
REM
REM
REM ./C.cell (11c1c37f851c82e70ff6c80c92926a4b)
REM
REM compiler GCC version 9.2.1 20190827 (Red Hat 9.2.1-1)
REM options -cpp -mtune=generic -march=x86-64 -g -O0 -fpre-include=/usr/include/finclude/math-vector-fortran.h
REM seed 74705484 -2087896791 1712422876 1075287322 1439906678 1741265673 -382654287 -780569566 1296152739 1979277624 43758664 -599498108 -1993560781 823152733 -844268090 -599039085 -1439697315 273004918 -205569293 837715762 -170034659 569670422 243801979 1633132268 1850772594 -468669847 2125186267 377995156 935681144 -1634906829 1050931862 793266942 -1562843298
REM
CELL 1.54180   50.00000   50.00000   50.00000   90.00000   90.00000   90.00000
LATT -1
SFAC C  
C      1  0.5608730000000  0.4732140000000  0.4596020000000 1.0
C      1  0.4935980000000  0.5312200000000  0.4450520000000 1.0
C      1  0.5538470000000  0.5402530000000  0.4421850000000 1.0
C      1  0.5192870000000  0.4778600000000  0.5356420000000 1.0
C      1  0.4707840000000  0.5046330000000  0.5400310000000 1.0
C      1  0.4682270000000  0.4869260000000  0.4669240000000 1.0
C      1  0.4312250000000  0.4813140000000  0.4806880000000 1.0
C      1  0.4270550000000  0.4721510000000  0.5276320000000 1.0
C      1  0.4485630000000  0.5734810000000  0.5839770000000 1.0
C      1  0.4798000000000  0.5543260000000  0.5448760000000 1.0
C      1  0.5236650000000  0.5427370000000  0.5281630000000 1.0
C      1  0.4648810000000  0.5646550000000  0.5654660000000 1.0
C      1  0.4809380000000  0.4817650000000  0.5167120000000 1.0
C      1  0.5121330000000  0.5608880000000  0.5115530000000 1.0
C      1  0.4435890000000  0.4553690000000  0.4839450000000 1.0
C      1  0.4764390000000  0.5032640000000  0.4915340000000 1.0
C      1  0.5354550000000  0.4621950000000  0.4763650000000 1.0
C      1  0.5203720000000  0.5060840000000  0.5544320000000 1.0
C      1  0.5047940000000  0.4174310000000  0.4806700000000 1.0
C      1  0.5573390000000  0.5177270000000  0.5021430000000 1.0
C      1  0.5263700000000  0.4325110000000  0.4621600000000 1.0
C      1  0.4739130000000  0.4634380000000  0.6086710000000 1.0
C      1  0.4302270000000  0.4927640000000  0.5074970000000 1.0
C      1  0.4857570000000  0.5674140000000  0.5205620000000 1.0
C      1  0.4421230000000  0.4961870000000  0.4555170000000 1.0
C      1  0.5116150000000  0.4919960000000  0.5067130000000 1.0
C      1  0.5888890000000  0.4943370000000  0.4949560000000 1.0
C      1  0.4488080000000  0.5119440000000  0.4326250000000 1.0
C      1  0.4980980000000  0.5129720000000  0.4696370000000 1.0
C      1  0.5145190000000  0.5640940000000  0.4838660000000 1.0
C      1  0.5504210000000  0.4696270000000  0.5402920000000 1.0
C      1  0.4490260000000  0.5922000000000  0.4977230000000 1.0
C      1  0.4879610000000  0.4706660000000  0.4484840000000 1.0
C      1  0.4896740000000  0.4894910000000  0.4233250000000 1.0
C      1  0.4506760000000  0.4588790000000  0.5345610000000 1.0
C      1  0.5300640000000  0.5159010000000  0.5169510000000 1.0
C      1  0.4685850000000  0.4517390000000  0.5065510000000 1.0
C      1  0.4674880000000  0.4751060000000  0.5537030000000 1.0
C      1  0.5222830000000  0.5391080000000  0.4354860000000 1.0
C      1  0.4770270000000  0.5137060000000  0.4267160000000 1.0
C      1  0.5481010000000  0.4444410000000  0.5018030000000 1.0
C      1  0.4785230000000  0.4696010000000  0.5845610000000 1.0
C      1  0.4527440000000  0.5092990000000  0.5126990000000 1.0
C      1  0.4717340000000  0.5780550000000  0.4977650000000 1.0
C      1  0.5714670000000  0.4956420000000  0.4720660000000 1.0
C      1  0.5170480000000  0.5456230000000  0.5564300000000 1.0
C      1  0.5563770000000  0.5240450000000  0.4712770000000 1.0
C      1  0.5797210000000  0.5073580000000  0.5210140000000 1.0
C      1  0.4776270000000  0.4213080000000  0.4943170000000 1.0
C      1  0.4999070000000  0.4797180000000  0.5617220000000 1.0
C      1  0.5002490000000  0.4542250000000  0.4955080000000 1.0
C      1  0.4921550000000  0.5240150000000  0.5480800000000 1.0
C      1  0.4785130000000  0.4453300000000  0.4412060000000 1.0
C      1  0.5611360000000  0.4506360000000  0.5250930000000 1.0
C      1  0.5499610000000  0.4453850000000  0.4441840000000 1.0
C      1  0.5317120000000  0.5471080000000  0.4672920000000 1.0
C      1  0.5068620000000  0.4805570000000  0.4750390000000 1.0
C      1  0.5210800000000  0.4342980000000  0.5015930000000 1.0
C      1  0.4795020000000  0.5580710000000  0.4519230000000 1.0
C      1  0.5508280000000  0.5019510000000  0.5381590000000 1.0
C      1  0.4883650000000  0.5717640000000  0.4746780000000 1.0
END
