TITL C-2847945-6269-271 -0.000900661947356267 125000 -268.524304304664 0 0 47 (C1) n - 1
REM
REM in /home/bkarasulu/work/CARBON/AIRSS/Generating-Clusters/AIREBO/with-SteepDescent/Only-C1/SD-CG-opt/Try1-1.4A-POS3A/HFTN-CG
REM
REM
REM
REM
REM
REM ./C.cell (11c1c37f851c82e70ff6c80c92926a4b)
REM
REM compiler GCC version 9.2.1 20190827 (Red Hat 9.2.1-1)
REM options -cpp -mtune=generic -march=x86-64 -g -O0 -fpre-include=/usr/include/finclude/math-vector-fortran.h
REM seed -1678197640 351494131 -2085122513 -967075770 -800097381 1816473070 288826520 1101011485 -669601960 1425608176 1477785555 2005143507 -846636059 331266668 -2135620149 1917682913 1767379958 147775111 601350766 331554508 -949261517 313470176 1027535814 -29794292 952681006 1459370914 -1213439642 1591857875 362666550 -168229823 -1829048460 -829581082 -1739506390
REM
CELL 1.54180   50.00000   50.00000   50.00000   90.00000   90.00000   90.00000
LATT -1
SFAC C  
C      1  0.4856300000000  0.4535170000000  0.4600560000000 1.0
C      1  0.5465260000000  0.4395870000000  0.4482500000000 1.0
C      1  0.5477440000000  0.5078910000000  0.5459730000000 1.0
C      1  0.5121840000000  0.5388620000000  0.4523970000000 1.0
C      1  0.5598190000000  0.5139170000000  0.5203070000000 1.0
C      1  0.5306930000000  0.5465570000000  0.4978660000000 1.0
C      1  0.5122090000000  0.4202300000000  0.4933670000000 1.0
C      1  0.5004700000000  0.4893810000000  0.5198510000000 1.0
C      1  0.4912800000000  0.5809450000000  0.4376920000000 1.0
C      1  0.5184430000000  0.5065750000000  0.4470410000000 1.0
C      1  0.4272840000000  0.4753650000000  0.5155380000000 1.0
C      1  0.5555170000000  0.5396670000000  0.5093180000000 1.0
C      1  0.4768610000000  0.5062690000000  0.5581680000000 1.0
C      1  0.4186860000000  0.5006240000000  0.5226220000000 1.0
C      1  0.5088010000000  0.5633960000000  0.5057870000000 1.0
C      1  0.4248020000000  0.5260300000000  0.5117650000000 1.0
C      1  0.4524200000000  0.4721690000000  0.5032250000000 1.0
C      1  0.4971580000000  0.4378410000000  0.5477050000000 1.0
C      1  0.5247830000000  0.4586540000000  0.5276830000000 1.0
C      1  0.5306640000000  0.4303620000000  0.4688300000000 1.0
C      1  0.4787580000000  0.5338840000000  0.5235630000000 1.0
C      1  0.4634840000000  0.5505690000000  0.4906570000000 1.0
C      1  0.4865540000000  0.5108890000000  0.5039000000000 1.0
C      1  0.5395560000000  0.4872790000000  0.4843600000000 1.0
C      1  0.5574690000000  0.4660700000000  0.5219390000000 1.0
C      1  0.5499270000000  0.4664810000000  0.4425770000000 1.0
C      1  0.4700360000000  0.4513320000000  0.5045950000000 1.0
C      1  0.4533900000000  0.4952260000000  0.4366650000000 1.0
C      1  0.4662420000000  0.4967560000000  0.4586890000000 1.0
C      1  0.4603810000000  0.4983680000000  0.4892740000000 1.0
C      1  0.4878440000000  0.5647340000000  0.4844890000000 1.0
C      1  0.4901150000000  0.4861610000000  0.5458330000000 1.0
C      1  0.5062470000000  0.4500570000000  0.4781690000000 1.0
C      1  0.5344150000000  0.5291850000000  0.5585660000000 1.0
C      1  0.4982640000000  0.5532550000000  0.5306330000000 1.0
C      1  0.4937640000000  0.4619730000000  0.5600150000000 1.0
C      1  0.4489040000000  0.5273810000000  0.4977700000000 1.0
C      1  0.5437340000000  0.4796130000000  0.5470370000000 1.0
C      1  0.5163620000000  0.4714550000000  0.4973340000000 1.0
C      1  0.5208490000000  0.5273670000000  0.4806120000000 1.0
C      1  0.5384680000000  0.4886860000000  0.4557880000000 1.0
C      1  0.4940310000000  0.5086280000000  0.4706220000000 1.0
C      1  0.4971420000000  0.5627660000000  0.4565700000000 1.0
C      1  0.5150120000000  0.5476370000000  0.5526310000000 1.0
C      1  0.5601500000000  0.4894720000000  0.5040020000000 1.0
C      1  0.4080750000000  0.5469940000000  0.5142780000000 1.0
C      1  0.4988520000000  0.4399420000000  0.5159920000000 1.0
END
