TITL C-2847944-5688-98 -0.0086405583913231 125000 -520.121853226939 0 0 100 (C1) n - 1
REM
REM in /home/bkarasulu/work/CARBON/AIRSS/Generating-Clusters/AIREBO/with-SteepDescent/Only-C1/SD-CG-opt/Try1-1.4A-POS3A/HFTN-CG
REM
REM
REM
REM
REM
REM ./C.cell (11c1c37f851c82e70ff6c80c92926a4b)
REM
REM compiler GCC version 9.2.1 20190827 (Red Hat 9.2.1-1)
REM options -cpp -mtune=generic -march=x86-64 -g -O0 -fpre-include=/usr/include/finclude/math-vector-fortran.h
REM seed -1136048579 -1052244550 -1941535115 375864027 1295305197 -464800398 -276827250 -512507962 -2137630758 894168278 667258413 -2038186878 -2000446087 656177371 -1325254928 1646653635 -360192700 -954581448 -360795286 299879598 215638640 759195924 670395069 1658947222 1789953757 2003553723 -30870086 -91255595 -1481573517 -1275385423 1249398355 -1228336844 -418055573
REM
CELL 1.54180   50.00000   50.00000   50.00000   90.00000   90.00000   90.00000
LATT -1
SFAC C  
C      1  0.4877970000000  0.5123470000000  0.4766630000000 1.0
C      1  0.4424040000000  0.4402990000000  0.4866710000000 1.0
C      1  0.4486250000000  0.5163350000000  0.5126440000000 1.0
C      1  0.4424750000000  0.5533400000000  0.4994400000000 1.0
C      1  0.4999970000000  0.5404440000000  0.4580010000000 1.0
C      1  0.5079860000000  0.4664650000000  0.5436970000000 1.0
C      1  0.4286530000000  0.5091540000000  0.4361220000000 1.0
C      1  0.5350220000000  0.4505310000000  0.5523170000000 1.0
C      1  0.5058250000000  0.5649280000000  0.5453820000000 1.0
C      1  0.5146370000000  0.4487760000000  0.4735410000000 1.0
C      1  0.5356990000000  0.5306610000000  0.4163910000000 1.0
C      1  0.5165680000000  0.6036820000000  0.5173720000000 1.0
C      1  0.4561320000000  0.4744410000000  0.5121940000000 1.0
C      1  0.4710170000000  0.5352600000000  0.4954130000000 1.0
C      1  0.5616230000000  0.4546530000000  0.5231120000000 1.0
C      1  0.4419440000000  0.4656520000000  0.4647980000000 1.0
C      1  0.5450170000000  0.4948230000000  0.5699770000000 1.0
C      1  0.5490700000000  0.5290020000000  0.5032090000000 1.0
C      1  0.4896850000000  0.4270280000000  0.5084930000000 1.0
C      1  0.4670860000000  0.4674180000000  0.4441930000000 1.0
C      1  0.5433970000000  0.4983430000000  0.4237100000000 1.0
C      1  0.4910280000000  0.5294620000000  0.5348890000000 1.0
C      1  0.4721360000000  0.5264130000000  0.5630300000000 1.0
C      1  0.4853280000000  0.5752760000000  0.4708110000000 1.0
C      1  0.4896580000000  0.5639210000000  0.4998320000000 1.0
C      1  0.4341470000000  0.4870450000000  0.5562260000000 1.0
C      1  0.5456750000000  0.5689450000000  0.4654190000000 1.0
C      1  0.5508870000000  0.5400450000000  0.4649410000000 1.0
C      1  0.4914120000000  0.4838610000000  0.4584190000000 1.0
C      1  0.5196230000000  0.4869170000000  0.5191400000000 1.0
C      1  0.4135630000000  0.4994290000000  0.5321580000000 1.0
C      1  0.5615970000000  0.5401400000000  0.5319950000000 1.0
C      1  0.4418190000000  0.4984280000000  0.4636860000000 1.0
C      1  0.5431680000000  0.4762300000000  0.4679520000000 1.0
C      1  0.4366990000000  0.4493950000000  0.5179590000000 1.0
C      1  0.5601880000000  0.5313270000000  0.4356250000000 1.0
C      1  0.4624340000000  0.5680690000000  0.5163860000000 1.0
C      1  0.4710270000000  0.4815980000000  0.5419260000000 1.0
C      1  0.4850510000000  0.4419720000000  0.4578580000000 1.0
C      1  0.5332380000000  0.4304240000000  0.4869130000000 1.0
C      1  0.5502700000000  0.4861940000000  0.5173580000000 1.0
C      1  0.5128780000000  0.5132230000000  0.4439110000000 1.0
C      1  0.5239320000000  0.5287380000000  0.5261490000000 1.0
C      1  0.4849500000000  0.4858270000000  0.4977950000000 1.0
C      1  0.5333880000000  0.5231160000000  0.5835650000000 1.0
C      1  0.4766080000000  0.5587070000000  0.5400320000000 1.0
C      1  0.5840610000000  0.4858750000000  0.5135760000000 1.0
C      1  0.5208480000000  0.4205090000000  0.5098700000000 1.0
C      1  0.5211560000000  0.4932290000000  0.5942250000000 1.0
C      1  0.5543570000000  0.5086150000000  0.5425030000000 1.0
C      1  0.5817570000000  0.4684370000000  0.5432940000000 1.0
C      1  0.5624250000000  0.4393760000000  0.4864460000000 1.0
C      1  0.5279060000000  0.5747350000000  0.4449370000000 1.0
C      1  0.4914170000000  0.4884700000000  0.5944140000000 1.0
C      1  0.5159980000000  0.4754520000000  0.4885540000000 1.0
C      1  0.5455630000000  0.4484040000000  0.4483120000000 1.0
C      1  0.5852510000000  0.5155360000000  0.5304960000000 1.0
C      1  0.4642730000000  0.5194000000000  0.4531390000000 1.0
C      1  0.5363040000000  0.4266030000000  0.5360190000000 1.0
C      1  0.4505890000000  0.4591230000000  0.5540350000000 1.0
C      1  0.4954010000000  0.4883850000000  0.5625720000000 1.0
C      1  0.4948150000000  0.4371530000000  0.5548230000000 1.0
C      1  0.4515790000000  0.4326890000000  0.5405050000000 1.0
C      1  0.4174510000000  0.5410230000000  0.4972690000000 1.0
C      1  0.5211800000000  0.4802890000000  0.4423240000000 1.0
C      1  0.4778830000000  0.5720440000000  0.4474360000000 1.0
C      1  0.4095290000000  0.5154140000000  0.5025300000000 1.0
C      1  0.4405730000000  0.5341300000000  0.5607940000000 1.0
C      1  0.4858320000000  0.5099020000000  0.4286010000000 1.0
C      1  0.5139440000000  0.4470950000000  0.4406710000000 1.0
C      1  0.4763290000000  0.5069110000000  0.5230370000000 1.0
C      1  0.4833080000000  0.4617340000000  0.4148570000000 1.0
C      1  0.5715090000000  0.5199240000000  0.4800060000000 1.0
C      1  0.4293280000000  0.5282670000000  0.5346570000000 1.0
C      1  0.5446840000000  0.5637830000000  0.5143090000000 1.0
C      1  0.4920230000000  0.4576620000000  0.5154890000000 1.0
C      1  0.4161450000000  0.4665240000000  0.5354390000000 1.0
C      1  0.4517510000000  0.5285670000000  0.4220240000000 1.0
C      1  0.5126150000000  0.5496540000000  0.4277970000000 1.0
C      1  0.4776780000000  0.4248280000000  0.5371830000000 1.0
C      1  0.5053890000000  0.4744050000000  0.4127810000000 1.0
C      1  0.4786830000000  0.5491150000000  0.4253920000000 1.0
C      1  0.4165640000000  0.4632570000000  0.4867170000000 1.0
C      1  0.4868090000000  0.5262350000000  0.4015880000000 1.0
C      1  0.4329860000000  0.4921020000000  0.4946280000000 1.0
C      1  0.5159630000000  0.5751600000000  0.5182420000000 1.0
C      1  0.5252840000000  0.5250460000000  0.4716110000000 1.0
C      1  0.4654560000000  0.4940840000000  0.6006630000000 1.0
C      1  0.5946040000000  0.5070520000000  0.4900330000000 1.0
C      1  0.5608050000000  0.4249260000000  0.5153090000000 1.0
C      1  0.5703400000000  0.4691800000000  0.4872810000000 1.0
C      1  0.5016780000000  0.5198270000000  0.5719330000000 1.0
C      1  0.5581290000000  0.5024620000000  0.4540800000000 1.0
C      1  0.5220800000000  0.5409910000000  0.5570320000000 1.0
C      1  0.4564510000000  0.4932190000000  0.4247470000000 1.0
C      1  0.4709120000000  0.4282500000000  0.4828840000000 1.0
C      1  0.4481260000000  0.5059880000000  0.5767040000000 1.0
C      1  0.5534220000000  0.5790860000000  0.4895200000000 1.0
C      1  0.5561170000000  0.4678490000000  0.5603610000000 1.0
C      1  0.5133760000000  0.5137410000000  0.4990380000000 1.0
END
