TITL C-2848498-1409-37 0.00117185256766373 125000 -758.787555713781 0 0 141 (C1) n - 1
REM
REM in /home/bkarasulu/work/CARBON/AIRSS/Generating-Clusters/AIREBO/with-SteepDescent/Only-C1/SD-CG-opt/Try1-1.4A-POS3A/HFTN-CG
REM
REM
REM
REM
REM
REM ./C.cell (11c1c37f851c82e70ff6c80c92926a4b)
REM
REM compiler GCC version 9.2.1 20190827 (Red Hat 9.2.1-1)
REM options -cpp -mtune=generic -march=x86-64 -g -O0 -fpre-include=/usr/include/finclude/math-vector-fortran.h
REM seed -180094236 -1415577944 2028059464 -1604589955 1448709196 41715447 200798886 -1653447817 -2033015950 1699185728 1829463730 1111543437 -1342809925 -622218897 -1183639654 -804748530 1426724837 -367358600 1378774272 1046981883 589978905 -1180201616 -1915287616 -1037843389 -146273823 2088662078 937057815 1627381778 -1016064648 -1577744893 -943165645 -548936824 -467808708
REM
CELL 1.54180   50.00000   50.00000   50.00000   90.00000   90.00000   90.00000
LATT -1
SFAC C  
C      1  0.5420590000000  0.5618060000000  0.5087500000000 1.0
C      1  0.5271030000000  0.4830750000000  0.5316760000000 1.0
C      1  0.4952340000000  0.4830500000000  0.3814240000000 1.0
C      1  0.4182110000000  0.5539240000000  0.5098380000000 1.0
C      1  0.4185600000000  0.4781740000000  0.5797210000000 1.0
C      1  0.5639660000000  0.5569460000000  0.5698590000000 1.0
C      1  0.5205080000000  0.5312100000000  0.5276640000000 1.0
C      1  0.4771670000000  0.5224950000000  0.5553920000000 1.0
C      1  0.5455870000000  0.4297740000000  0.4664180000000 1.0
C      1  0.5176340000000  0.4666870000000  0.4434480000000 1.0
C      1  0.4481700000000  0.4758830000000  0.4487290000000 1.0
C      1  0.5002530000000  0.4572440000000  0.5648770000000 1.0
C      1  0.5096710000000  0.4072140000000  0.5417400000000 1.0
C      1  0.5651880000000  0.5000050000000  0.5670560000000 1.0
C      1  0.5635300000000  0.5463160000000  0.5267280000000 1.0
C      1  0.4633810000000  0.5753550000000  0.4903150000000 1.0
C      1  0.5948040000000  0.5211410000000  0.4301190000000 1.0
C      1  0.4643280000000  0.5220820000000  0.5869360000000 1.0
C      1  0.5655980000000  0.4236380000000  0.4932210000000 1.0
C      1  0.3990100000000  0.5330580000000  0.4908750000000 1.0
C      1  0.5197600000000  0.5056590000000  0.4275960000000 1.0
C      1  0.4424100000000  0.5281960000000  0.5634090000000 1.0
C      1  0.5894470000000  0.5254640000000  0.5046770000000 1.0
C      1  0.4943450000000  0.5272540000000  0.4055110000000 1.0
C      1  0.4784300000000  0.4737450000000  0.5821670000000 1.0
C      1  0.4096490000000  0.5128970000000  0.5147580000000 1.0
C      1  0.5835520000000  0.5761200000000  0.5715020000000 1.0
C      1  0.4939110000000  0.4018810000000  0.4114750000000 1.0
C      1  0.4723450000000  0.5442930000000  0.5340770000000 1.0
C      1  0.4911100000000  0.5718390000000  0.5397530000000 1.0
C      1  0.4149480000000  0.5525470000000  0.4703750000000 1.0
C      1  0.4572470000000  0.4218000000000  0.5042330000000 1.0
C      1  0.4060490000000  0.4662440000000  0.5282980000000 1.0
C      1  0.6031450000000  0.4715550000000  0.5184290000000 1.0
C      1  0.5265470000000  0.5618820000000  0.4589010000000 1.0
C      1  0.5881630000000  0.5038550000000  0.4842750000000 1.0
C      1  0.4298380000000  0.4910310000000  0.5312120000000 1.0
C      1  0.5087880000000  0.5575170000000  0.5144790000000 1.0
C      1  0.4720000000000  0.4939220000000  0.5193640000000 1.0
C      1  0.4030070000000  0.5004080000000  0.4838140000000 1.0
C      1  0.6084930000000  0.4802730000000  0.4893310000000 1.0
C      1  0.5338960000000  0.5884720000000  0.5221560000000 1.0
C      1  0.5347790000000  0.5659690000000  0.5706510000000 1.0
C      1  0.4239660000000  0.5398900000000  0.4452620000000 1.0
C      1  0.4774810000000  0.5497760000000  0.4167200000000 1.0
C      1  0.4161060000000  0.4983740000000  0.5624320000000 1.0
C      1  0.5401020000000  0.4715610000000  0.4227620000000 1.0
C      1  0.4153660000000  0.4925070000000  0.4151660000000 1.0
C      1  0.5602490000000  0.4960120000000  0.4290960000000 1.0
C      1  0.4299540000000  0.4693590000000  0.4222250000000 1.0
C      1  0.5163140000000  0.5402300000000  0.5830080000000 1.0
C      1  0.5314620000000  0.4812860000000  0.5013230000000 1.0
C      1  0.5961330000000  0.4710540000000  0.4628320000000 1.0
C      1  0.5733790000000  0.4709090000000  0.4479190000000 1.0
C      1  0.4906990000000  0.5837740000000  0.4421400000000 1.0
C      1  0.5618780000000  0.4872690000000  0.4896030000000 1.0
C      1  0.5831940000000  0.4864600000000  0.5415930000000 1.0
C      1  0.5462240000000  0.5225770000000  0.4145360000000 1.0
C      1  0.5413820000000  0.4914350000000  0.4639940000000 1.0
C      1  0.4676130000000  0.5882990000000  0.5214810000000 1.0
C      1  0.4411570000000  0.4332750000000  0.5681300000000 1.0
C      1  0.5626560000000  0.5472230000000  0.4547700000000 1.0
C      1  0.5463430000000  0.4587250000000  0.4598530000000 1.0
C      1  0.4481680000000  0.5759140000000  0.5413040000000 1.0
C      1  0.4987400000000  0.5706840000000  0.4723010000000 1.0
C      1  0.4338800000000  0.4336440000000  0.4825480000000 1.0
C      1  0.5503640000000  0.5225610000000  0.4743370000000 1.0
C      1  0.4311600000000  0.4257110000000  0.4495600000000 1.0
C      1  0.5264370000000  0.5276000000000  0.4946610000000 1.0
C      1  0.5040960000000  0.5482040000000  0.4378890000000 1.0
C      1  0.5964870000000  0.5498100000000  0.4955140000000 1.0
C      1  0.5061210000000  0.5069460000000  0.5466790000000 1.0
C      1  0.5725790000000  0.5141210000000  0.5298270000000 1.0
C      1  0.4627090000000  0.4508230000000  0.5041070000000 1.0
C      1  0.4387620000000  0.4695600000000  0.5064000000000 1.0
C      1  0.5762870000000  0.4640710000000  0.5062520000000 1.0
C      1  0.5924950000000  0.4232310000000  0.5469200000000 1.0
C      1  0.4730870000000  0.4455720000000  0.4288200000000 1.0
C      1  0.5155950000000  0.5108720000000  0.5783000000000 1.0
C      1  0.4522590000000  0.5448980000000  0.4582640000000 1.0
C      1  0.4794690000000  0.5472240000000  0.5006570000000 1.0
C      1  0.4948760000000  0.5651690000000  0.5727760000000 1.0
C      1  0.5497170000000  0.5645400000000  0.4804330000000 1.0
C      1  0.4617400000000  0.5013650000000  0.4762160000000 1.0
C      1  0.5023570000000  0.4438370000000  0.5278120000000 1.0
C      1  0.5284000000000  0.4555000000000  0.5463110000000 1.0
C      1  0.5106750000000  0.4991360000000  0.4883230000000 1.0
C      1  0.5185620000000  0.6043060000000  0.5059160000000 1.0
C      1  0.4992070000000  0.4125670000000  0.4833150000000 1.0
C      1  0.4442020000000  0.4420060000000  0.4282600000000 1.0
C      1  0.4235150000000  0.4403620000000  0.5148350000000 1.0
C      1  0.4492550000000  0.5158740000000  0.5184540000000 1.0
C      1  0.5004370000000  0.5369090000000  0.4759420000000 1.0
C      1  0.4860500000000  0.4796710000000  0.5436130000000 1.0
C      1  0.5550960000000  0.4638240000000  0.5645820000000 1.0
C      1  0.5406710000000  0.4950160000000  0.5843680000000 1.0
C      1  0.5185350000000  0.4434710000000  0.4996540000000 1.0
C      1  0.4861990000000  0.4991020000000  0.5865550000000 1.0
C      1  0.4952720000000  0.4953790000000  0.4063820000000 1.0
C      1  0.4840360000000  0.4885170000000  0.4921440000000 1.0
C      1  0.5155500000000  0.5124150000000  0.4576030000000 1.0
C      1  0.4405870000000  0.4623360000000  0.5716720000000 1.0
C      1  0.4917060000000  0.4192710000000  0.4325700000000 1.0
C      1  0.4345920000000  0.4882130000000  0.4840480000000 1.0
C      1  0.4554180000000  0.5291140000000  0.4876990000000 1.0
C      1  0.5700660000000  0.5374920000000  0.4280820000000 1.0
C      1  0.4383430000000  0.5442530000000  0.5337080000000 1.0
C      1  0.4566770000000  0.4517970000000  0.4649360000000 1.0
C      1  0.4834290000000  0.4239570000000  0.5471890000000 1.0
C      1  0.4310550000000  0.5715540000000  0.4889580000000 1.0
C      1  0.5457520000000  0.4679210000000  0.5941460000000 1.0
C      1  0.4620530000000  0.5760520000000  0.4575240000000 1.0
C      1  0.5161620000000  0.5707410000000  0.5986990000000 1.0
C      1  0.5695390000000  0.5296410000000  0.5717080000000 1.0
C      1  0.4538550000000  0.4758300000000  0.5498820000000 1.0
C      1  0.4189250000000  0.4922710000000  0.4549680000000 1.0
C      1  0.5788360000000  0.4535100000000  0.5445530000000 1.0
C      1  0.4594020000000  0.5329730000000  0.6117240000000 1.0
C      1  0.4587340000000  0.4133070000000  0.5307830000000 1.0
C      1  0.5371140000000  0.4250720000000  0.5338670000000 1.0
C      1  0.4830940000000  0.4597350000000  0.4824830000000 1.0
C      1  0.4778760000000  0.4252780000000  0.4630480000000 1.0
C      1  0.5660970000000  0.4275680000000  0.5259330000000 1.0
C      1  0.4350970000000  0.4240140000000  0.5423340000000 1.0
C      1  0.4130430000000  0.5245620000000  0.5450640000000 1.0
C      1  0.4586010000000  0.5667750000000  0.4254020000000 1.0
C      1  0.5091520000000  0.4490000000000  0.4705080000000 1.0
C      1  0.5759540000000  0.5096840000000  0.4560000000000 1.0
C      1  0.5164140000000  0.4192900000000  0.4559410000000 1.0
C      1  0.5226510000000  0.5820680000000  0.5472950000000 1.0
C      1  0.4790100000000  0.5290690000000  0.4507310000000 1.0
C      1  0.5476680000000  0.4514210000000  0.4998440000000 1.0
C      1  0.4898630000000  0.4734920000000  0.4312210000000 1.0
C      1  0.4927480000000  0.5908270000000  0.4977270000000 1.0
C      1  0.4162100000000  0.5159180000000  0.4345720000000 1.0
C      1  0.5822080000000  0.5635780000000  0.4770740000000 1.0
C      1  0.5214610000000  0.5408340000000  0.4096010000000 1.0
C      1  0.5160210000000  0.4111230000000  0.5098360000000 1.0
C      1  0.4722250000000  0.4980980000000  0.4452050000000 1.0
C      1  0.5422520000000  0.5098640000000  0.5298420000000 1.0
C      1  0.4735830000000  0.4401850000000  0.5757140000000 1.0
END
