TITL C-2848497-6229-213 -0.00266836987169919 125000 -916.22501280749 0 0 165 (C1) n - 1
REM
REM in /home/bkarasulu/work/CARBON/AIRSS/Generating-Clusters/AIREBO/with-SteepDescent/Only-C1/SD-CG-opt/Try1-1.4A-POS3A/HFTN-CG
REM
REM
REM
REM
REM
REM ./C.cell (11c1c37f851c82e70ff6c80c92926a4b)
REM
REM compiler GCC version 9.2.1 20190827 (Red Hat 9.2.1-1)
REM options -cpp -mtune=generic -march=x86-64 -g -O0 -fpre-include=/usr/include/finclude/math-vector-fortran.h
REM seed 1309903343 -1370849838 -838656006 -1790962889 -8282420 -1216969413 2042710287 -1350534193 -629115389 -1531297781 -1452865729 -997083881 1432462903 1321251504 296189000 -1398809096 953020191 -554739974 -1015511717 375090905 -1026009039 -84402853 -356517316 117594535 1626793158 -404744972 -2131568003 425998180 -309512687 -1414122464 237350097 -1843129718 -1032935594
REM
CELL 1.54180   50.00000   50.00000   50.00000   90.00000   90.00000   90.00000
LATT -1
SFAC C  
C      1  0.4333400000000  0.5757600000000  0.5468800000000 1.0
C      1  0.4542280000000  0.4222770000000  0.5362920000000 1.0
C      1  0.4434790000000  0.4698930000000  0.5487190000000 1.0
C      1  0.5080570000000  0.3915320000000  0.4833300000000 1.0
C      1  0.4329400000000  0.5158290000000  0.5768840000000 1.0
C      1  0.4452440000000  0.4493180000000  0.5216950000000 1.0
C      1  0.4786910000000  0.4782020000000  0.5984290000000 1.0
C      1  0.4610780000000  0.5208720000000  0.5713760000000 1.0
C      1  0.5690370000000  0.4791090000000  0.4966200000000 1.0
C      1  0.5001910000000  0.5514230000000  0.4900270000000 1.0
C      1  0.4426820000000  0.5683320000000  0.4650270000000 1.0
C      1  0.4793350000000  0.4170670000000  0.4365650000000 1.0
C      1  0.4855660000000  0.6242710000000  0.4915320000000 1.0
C      1  0.4102740000000  0.4685930000000  0.5500910000000 1.0
C      1  0.5152040000000  0.4675870000000  0.5762580000000 1.0
C      1  0.5335660000000  0.4324480000000  0.6069120000000 1.0
C      1  0.4937560000000  0.5231880000000  0.5339570000000 1.0
C      1  0.4151830000000  0.5256250000000  0.5584490000000 1.0
C      1  0.4412910000000  0.5295850000000  0.5033760000000 1.0
C      1  0.5537580000000  0.5777160000000  0.5303120000000 1.0
C      1  0.4592500000000  0.6066760000000  0.5003880000000 1.0
C      1  0.3910490000000  0.5507540000000  0.4634920000000 1.0
C      1  0.6018560000000  0.5152060000000  0.4631120000000 1.0
C      1  0.4693340000000  0.5583730000000  0.4255990000000 1.0
C      1  0.4577110000000  0.4612520000000  0.4441230000000 1.0
C      1  0.5000310000000  0.4112140000000  0.5539160000000 1.0
C      1  0.5860490000000  0.5506280000000  0.5171870000000 1.0
C      1  0.6085060000000  0.4752870000000  0.5018150000000 1.0
C      1  0.5117610000000  0.4861160000000  0.6000760000000 1.0
C      1  0.4737930000000  0.4996110000000  0.4366860000000 1.0
C      1  0.4501000000000  0.5390760000000  0.4744220000000 1.0
C      1  0.5059600000000  0.3976820000000  0.5305880000000 1.0
C      1  0.3928730000000  0.4852420000000  0.5436740000000 1.0
C      1  0.5314970000000  0.5065360000000  0.5968790000000 1.0
C      1  0.5374430000000  0.5436330000000  0.4457010000000 1.0
C      1  0.6051110000000  0.5085120000000  0.5372040000000 1.0
C      1  0.5306800000000  0.5115090000000  0.4552710000000 1.0
C      1  0.5276240000000  0.5749440000000  0.5512450000000 1.0
C      1  0.4778380000000  0.5015410000000  0.4658170000000 1.0
C      1  0.5211460000000  0.4398970000000  0.5835370000000 1.0
C      1  0.6082150000000  0.5024530000000  0.5098010000000 1.0
C      1  0.5658370000000  0.4567260000000  0.4130050000000 1.0
C      1  0.5418630000000  0.4861690000000  0.4774140000000 1.0
C      1  0.4577990000000  0.5658230000000  0.5573700000000 1.0
C      1  0.5192720000000  0.5955120000000  0.5253120000000 1.0
C      1  0.4909070000000  0.4322080000000  0.4940830000000 1.0
C      1  0.4301240000000  0.4917290000000  0.5910650000000 1.0
C      1  0.5061070000000  0.4776150000000  0.3863320000000 1.0
C      1  0.5791300000000  0.5764330000000  0.5221560000000 1.0
C      1  0.3948870000000  0.5157960000000  0.5329990000000 1.0
C      1  0.4457640000000  0.5776760000000  0.4947070000000 1.0
C      1  0.3997320000000  0.5294400000000  0.4832500000000 1.0
C      1  0.5498090000000  0.5730220000000  0.5977360000000 1.0
C      1  0.5482970000000  0.4369040000000  0.4482690000000 1.0
C      1  0.4902540000000  0.5987420000000  0.5124890000000 1.0
C      1  0.5214240000000  0.4654210000000  0.4592740000000 1.0
C      1  0.3999520000000  0.4634360000000  0.4857630000000 1.0
C      1  0.5039270000000  0.5421510000000  0.4513250000000 1.0
C      1  0.5769870000000  0.4321010000000  0.4985460000000 1.0
C      1  0.4052130000000  0.5435310000000  0.4359770000000 1.0
C      1  0.4706620000000  0.4764060000000  0.4171750000000 1.0
C      1  0.5839290000000  0.5433890000000  0.5731030000000 1.0
C      1  0.5867700000000  0.4576850000000  0.5161910000000 1.0
C      1  0.5760760000000  0.5002360000000  0.4501740000000 1.0
C      1  0.5332030000000  0.4019180000000  0.5273510000000 1.0
C      1  0.5590530000000  0.5344510000000  0.4008700000000 1.0
C      1  0.4812190000000  0.4879240000000  0.3937450000000 1.0
C      1  0.4655200000000  0.5766680000000  0.4458160000000 1.0
C      1  0.4341590000000  0.4272020000000  0.4823950000000 1.0
C      1  0.5984760000000  0.5202440000000  0.4898450000000 1.0
C      1  0.4883560000000  0.4026590000000  0.5064340000000 1.0
C      1  0.4819010000000  0.5104970000000  0.6087670000000 1.0
C      1  0.4913060000000  0.5382860000000  0.3851720000000 1.0
C      1  0.4348640000000  0.4454130000000  0.4150790000000 1.0
C      1  0.4783380000000  0.5285760000000  0.4216420000000 1.0
C      1  0.4702320000000  0.5551950000000  0.5305570000000 1.0
C      1  0.5675080000000  0.5335430000000  0.4943700000000 1.0
C      1  0.4381030000000  0.5085080000000  0.3979550000000 1.0
C      1  0.5032640000000  0.4444290000000  0.4202510000000 1.0
C      1  0.5353830000000  0.4795410000000  0.5188810000000 1.0
C      1  0.5571080000000  0.5275500000000  0.5324530000000 1.0
C      1  0.5597350000000  0.4094540000000  0.4878820000000 1.0
C      1  0.5386240000000  0.5517390000000  0.4137530000000 1.0
C      1  0.4327980000000  0.4857400000000  0.4869020000000 1.0
C      1  0.4982390000000  0.6015420000000  0.5513390000000 1.0
C      1  0.4749960000000  0.4885400000000  0.5138170000000 1.0
C      1  0.5239110000000  0.4244100000000  0.5609950000000 1.0
C      1  0.5719650000000  0.4785130000000  0.5688110000000 1.0
C      1  0.5050780000000  0.6073560000000  0.4764100000000 1.0
C      1  0.5651980000000  0.5307420000000  0.4605550000000 1.0
C      1  0.5202260000000  0.4404700000000  0.4825170000000 1.0
C      1  0.5540600000000  0.4521530000000  0.5585300000000 1.0
C      1  0.5390340000000  0.5493090000000  0.5229950000000 1.0
C      1  0.4822460000000  0.4473600000000  0.5864850000000 1.0
C      1  0.4749090000000  0.4270550000000  0.5604960000000 1.0
C      1  0.5351640000000  0.4797740000000  0.5532990000000 1.0
C      1  0.4746020000000  0.4562530000000  0.5475110000000 1.0
C      1  0.4900880000000  0.5341060000000  0.5952930000000 1.0
C      1  0.5569350000000  0.5092490000000  0.4052450000000 1.0
C      1  0.4269940000000  0.5147100000000  0.4692470000000 1.0
C      1  0.4272340000000  0.4721600000000  0.4336470000000 1.0
C      1  0.5187860000000  0.5327050000000  0.5839600000000 1.0
C      1  0.5435580000000  0.5899530000000  0.4629430000000 1.0
C      1  0.5280040000000  0.5885480000000  0.4931650000000 1.0
C      1  0.5082570000000  0.4158890000000  0.4263450000000 1.0
C      1  0.5777920000000  0.4735630000000  0.4652220000000 1.0
C      1  0.6077590000000  0.4699170000000  0.4748800000000 1.0
C      1  0.5025590000000  0.4725180000000  0.5244250000000 1.0
C      1  0.5194810000000  0.4625810000000  0.4056120000000 1.0
C      1  0.5831930000000  0.4028050000000  0.5635530000000 1.0
C      1  0.4686450000000  0.5157200000000  0.3922520000000 1.0
C      1  0.4588920000000  0.5034850000000  0.4904910000000 1.0
C      1  0.4247540000000  0.5673030000000  0.5150660000000 1.0
C      1  0.5269940000000  0.5320370000000  0.4821560000000 1.0
C      1  0.4506600000000  0.4261420000000  0.4264930000000 1.0
C      1  0.5898300000000  0.4612410000000  0.5451730000000 1.0
C      1  0.4787180000000  0.4505180000000  0.5142360000000 1.0
C      1  0.4807610000000  0.4342660000000  0.4655210000000 1.0
C      1  0.4384400000000  0.4040640000000  0.4961240000000 1.0
C      1  0.4280500000000  0.4535780000000  0.4968980000000 1.0
C      1  0.3948090000000  0.4965150000000  0.4840500000000 1.0
C      1  0.5404540000000  0.4649850000000  0.4310620000000 1.0
C      1  0.4445620000000  0.4960620000000  0.5269800000000 1.0
C      1  0.5025770000000  0.4889620000000  0.4738490000000 1.0
C      1  0.4060090000000  0.4782070000000  0.4574130000000 1.0
C      1  0.4588630000000  0.4027500000000  0.5157590000000 1.0
C      1  0.5583030000000  0.5000540000000  0.5843510000000 1.0
C      1  0.5088570000000  0.5485080000000  0.5227800000000 1.0
C      1  0.5422910000000  0.4505390000000  0.5048350000000 1.0
C      1  0.5694850000000  0.4243480000000  0.5624300000000 1.0
C      1  0.5587760000000  0.4472920000000  0.4751970000000 1.0
C      1  0.5449990000000  0.5589850000000  0.4923680000000 1.0
C      1  0.5508220000000  0.4960910000000  0.4326260000000 1.0
C      1  0.5561100000000  0.5051860000000  0.5104580000000 1.0
C      1  0.4815370000000  0.5067370000000  0.5566350000000 1.0
C      1  0.4885810000000  0.5900010000000  0.4560260000000 1.0
C      1  0.4942540000000  0.4786190000000  0.5559230000000 1.0
C      1  0.4954470000000  0.5701690000000  0.5446530000000 1.0
C      1  0.5101860000000  0.5194590000000  0.4293140000000 1.0
C      1  0.5417670000000  0.4332010000000  0.5333870000000 1.0
C      1  0.6016900000000  0.4882120000000  0.5554540000000 1.0
C      1  0.4034140000000  0.5405280000000  0.5103160000000 1.0
C      1  0.4147320000000  0.5011180000000  0.5112580000000 1.0
C      1  0.5189500000000  0.5087670000000  0.5245430000000 1.0
C      1  0.4178680000000  0.5186590000000  0.4388110000000 1.0
C      1  0.4491290000000  0.4735950000000  0.5821840000000 1.0
C      1  0.4497510000000  0.4314120000000  0.4588440000000 1.0
C      1  0.4634460000000  0.5244110000000  0.5260390000000 1.0
C      1  0.4915020000000  0.4574000000000  0.4452450000000 1.0
C      1  0.4791160000000  0.5322490000000  0.4714360000000 1.0
C      1  0.5459880000000  0.5747810000000  0.4418970000000 1.0
C      1  0.4687650000000  0.5490900000000  0.5780020000000 1.0
C      1  0.4765030000000  0.5710630000000  0.5044990000000 1.0
C      1  0.5540950000000  0.5282320000000  0.5657920000000 1.0
C      1  0.5200830000000  0.5056130000000  0.4933040000000 1.0
C      1  0.4272940000000  0.5388270000000  0.5329700000000 1.0
C      1  0.5114700000000  0.5413550000000  0.4033330000000 1.0
C      1  0.5884980000000  0.5323360000000  0.5422890000000 1.0
C      1  0.5315430000000  0.4125850000000  0.4420550000000 1.0
C      1  0.5378590000000  0.5573270000000  0.5746540000000 1.0
C      1  0.5087940000000  0.5702840000000  0.4634290000000 1.0
C      1  0.4152110000000  0.5690180000000  0.4531700000000 1.0
C      1  0.5253040000000  0.5120020000000  0.5577880000000 1.0
C      1  0.5306810000000  0.4115640000000  0.4735850000000 1.0
C      1  0.4250160000000  0.4999090000000  0.4202030000000 1.0
END
