TITL C-2848506-1665-624 8.83322706900323e-05 125000 -958.161704905177 0 0 179 (C1) n - 1
REM
REM in /home/bkarasulu/work/CARBON/AIRSS/Generating-Clusters/AIREBO/with-SteepDescent/Only-C1/SD-CG-opt/Try1-1.4A-POS3A/HFTN-CG
REM
REM
REM
REM
REM
REM ./C.cell (11c1c37f851c82e70ff6c80c92926a4b)
REM
REM compiler GCC version 9.2.1 20190827 (Red Hat 9.2.1-1)
REM options -cpp -mtune=generic -march=x86-64 -g -O0 -fpre-include=/usr/include/finclude/math-vector-fortran.h
REM seed 258626982 -215015325 -1169490845 -497718364 1652800351 1765359735 1203658420 1107825294 1377089571 -115833239 809882288 235702309 -579654838 -1841175125 -275194308 1331338557 1814495373 -1132181881 1997141258 754555913 52554244 -1669661449 1938872694 766703326 1850496792 575837639 -637705081 1248281389 -242269717 -338643803 -636108117 548798796 1739678259
REM
CELL 1.54180   50.00000   50.00000   50.00000   90.00000   90.00000   90.00000
LATT -1
SFAC C  
C      1  0.5328950000000  0.5886430000000  0.5409610000000 1.0
C      1  0.4315900000000  0.5367930000000  0.4319010000000 1.0
C      1  0.4388100000000  0.5349170000000  0.5339040000000 1.0
C      1  0.5657540000000  0.5396000000000  0.5774400000000 1.0
C      1  0.4282530000000  0.4349920000000  0.5659610000000 1.0
C      1  0.4726790000000  0.4244540000000  0.4322340000000 1.0
C      1  0.5037020000000  0.5244740000000  0.6367370000000 1.0
C      1  0.5096340000000  0.4979270000000  0.3836400000000 1.0
C      1  0.4945370000000  0.5493850000000  0.4970220000000 1.0
C      1  0.4809970000000  0.5127020000000  0.4111250000000 1.0
C      1  0.4927100000000  0.4557530000000  0.5531430000000 1.0
C      1  0.4643340000000  0.5568580000000  0.4986590000000 1.0
C      1  0.6008860000000  0.4680530000000  0.5283220000000 1.0
C      1  0.4492570000000  0.4122790000000  0.5520510000000 1.0
C      1  0.4906910000000  0.6004720000000  0.5140900000000 1.0
C      1  0.5486870000000  0.4505980000000  0.5465270000000 1.0
C      1  0.4942900000000  0.4726770000000  0.4394360000000 1.0
C      1  0.5048110000000  0.4037030000000  0.5253850000000 1.0
C      1  0.5196940000000  0.4245700000000  0.4695290000000 1.0
C      1  0.4174480000000  0.4451930000000  0.5188020000000 1.0
C      1  0.5233940000000  0.3913440000000  0.4749920000000 1.0
C      1  0.4455800000000  0.5696350000000  0.5524420000000 1.0
C      1  0.6076210000000  0.5267000000000  0.4792460000000 1.0
C      1  0.5250360000000  0.5646810000000  0.5632920000000 1.0
C      1  0.5636800000000  0.5752390000000  0.4479940000000 1.0
C      1  0.5002410000000  0.5729120000000  0.4141480000000 1.0
C      1  0.5708600000000  0.5327580000000  0.4094270000000 1.0
C      1  0.5300120000000  0.4981500000000  0.4798180000000 1.0
C      1  0.5499890000000  0.5179960000000  0.5564300000000 1.0
C      1  0.5478850000000  0.5288920000000  0.4450630000000 1.0
C      1  0.4059770000000  0.4529760000000  0.5474900000000 1.0
C      1  0.5016070000000  0.4907540000000  0.4881660000000 1.0
C      1  0.4393130000000  0.5331440000000  0.5881720000000 1.0
C      1  0.5422030000000  0.5262540000000  0.4841390000000 1.0
C      1  0.5870350000000  0.4602930000000  0.5519660000000 1.0
C      1  0.3728570000000  0.5034980000000  0.5347140000000 1.0
C      1  0.4510610000000  0.5075570000000  0.4509090000000 1.0
C      1  0.4257410000000  0.5650600000000  0.5251300000000 1.0
C      1  0.4449640000000  0.4024020000000  0.5187160000000 1.0
C      1  0.5756920000000  0.4906740000000  0.5074120000000 1.0
C      1  0.5887200000000  0.5250980000000  0.4325890000000 1.0
C      1  0.5242030000000  0.5459710000000  0.4630590000000 1.0
C      1  0.5713770000000  0.5433850000000  0.4804450000000 1.0
C      1  0.4972780000000  0.4605030000000  0.5025960000000 1.0
C      1  0.5331460000000  0.5160460000000  0.5152900000000 1.0
C      1  0.4887020000000  0.5363260000000  0.5880440000000 1.0
C      1  0.4157770000000  0.4522650000000  0.4693960000000 1.0
C      1  0.4984650000000  0.5657120000000  0.5777880000000 1.0
C      1  0.4508320000000  0.5127770000000  0.4174160000000 1.0
C      1  0.4987090000000  0.5678980000000  0.4684780000000 1.0
C      1  0.5791150000000  0.5039810000000  0.5671730000000 1.0
C      1  0.5446260000000  0.4703910000000  0.4689380000000 1.0
C      1  0.5765930000000  0.4749570000000  0.4796870000000 1.0
C      1  0.4281350000000  0.5519940000000  0.5682830000000 1.0
C      1  0.4776160000000  0.4361400000000  0.5133020000000 1.0
C      1  0.6033110000000  0.4618360000000  0.4405680000000 1.0
C      1  0.5106940000000  0.4326790000000  0.5422200000000 1.0
C      1  0.4363350000000  0.4681480000000  0.5453690000000 1.0
C      1  0.4078740000000  0.5374520000000  0.5477870000000 1.0
C      1  0.4407390000000  0.4785700000000  0.4414250000000 1.0
C      1  0.4209820000000  0.4963040000000  0.5119850000000 1.0
C      1  0.4632220000000  0.4798510000000  0.4873860000000 1.0
C      1  0.4963390000000  0.4477010000000  0.4710960000000 1.0
C      1  0.5356610000000  0.4706050000000  0.5892780000000 1.0
C      1  0.4620210000000  0.4136970000000  0.4588150000000 1.0
C      1  0.4500010000000  0.4199200000000  0.4900060000000 1.0
C      1  0.4489230000000  0.4351910000000  0.5269120000000 1.0
C      1  0.5543700000000  0.5574510000000  0.5532560000000 1.0
C      1  0.5520580000000  0.4508890000000  0.4312680000000 1.0
C      1  0.5973710000000  0.5574250000000  0.5225280000000 1.0
C      1  0.3863230000000  0.4775740000000  0.4785340000000 1.0
C      1  0.5802450000000  0.5182660000000  0.4968350000000 1.0
C      1  0.3828020000000  0.5284840000000  0.5282640000000 1.0
C      1  0.4986980000000  0.6237230000000  0.4608490000000 1.0
C      1  0.5031900000000  0.5156550000000  0.6076720000000 1.0
C      1  0.5265240000000  0.4830660000000  0.4430650000000 1.0
C      1  0.5038490000000  0.4607820000000  0.5844270000000 1.0
C      1  0.5350670000000  0.4107010000000  0.5194840000000 1.0
C      1  0.4430770000000  0.5792500000000  0.5050500000000 1.0
C      1  0.5550810000000  0.5835440000000  0.4791880000000 1.0
C      1  0.4744960000000  0.5666510000000  0.4446060000000 1.0
C      1  0.6152150000000  0.5305820000000  0.5112940000000 1.0
C      1  0.4326290000000  0.5123730000000  0.5663390000000 1.0
C      1  0.5633850000000  0.4576980000000  0.5763550000000 1.0
C      1  0.4474380000000  0.4528880000000  0.5827970000000 1.0
C      1  0.4664940000000  0.4982110000000  0.6099590000000 1.0
C      1  0.4999880000000  0.4391750000000  0.4383130000000 1.0
C      1  0.6079150000000  0.4664790000000  0.4695090000000 1.0
C      1  0.5614200000000  0.5539300000000  0.4301810000000 1.0
C      1  0.5369280000000  0.4656440000000  0.5017240000000 1.0
C      1  0.4316850000000  0.4292140000000  0.4648630000000 1.0
C      1  0.5628250000000  0.4201960000000  0.4831970000000 1.0
C      1  0.4765890000000  0.4149740000000  0.5716850000000 1.0
C      1  0.4056440000000  0.5433640000000  0.5083050000000 1.0
C      1  0.5961080000000  0.4989950000000  0.4656180000000 1.0
C      1  0.5313370000000  0.5638090000000  0.4911420000000 1.0
C      1  0.5524850000000  0.5220620000000  0.5975480000000 1.0
C      1  0.4152060000000  0.4716000000000  0.4496850000000 1.0
C      1  0.4948210000000  0.4790050000000  0.5310370000000 1.0
C      1  0.4866740000000  0.5363540000000  0.5538980000000 1.0
C      1  0.5880650000000  0.5532930000000  0.5551340000000 1.0
C      1  0.5219460000000  0.4920520000000  0.5674110000000 1.0
C      1  0.4368350000000  0.4882560000000  0.4015690000000 1.0
C      1  0.4497790000000  0.4623190000000  0.3989510000000 1.0
C      1  0.4521560000000  0.4446140000000  0.4206670000000 1.0
C      1  0.4014940000000  0.5298350000000  0.4467650000000 1.0
C      1  0.6043220000000  0.5006260000000  0.5232900000000 1.0
C      1  0.4638540000000  0.4486430000000  0.4780720000000 1.0
C      1  0.5553500000000  0.5905420000000  0.5252790000000 1.0
C      1  0.4230780000000  0.5123780000000  0.4649140000000 1.0
C      1  0.5794350000000  0.4301740000000  0.5036280000000 1.0
C      1  0.5965750000000  0.5209190000000  0.5491010000000 1.0
C      1  0.4754980000000  0.4656730000000  0.3875610000000 1.0
C      1  0.4822170000000  0.5528170000000  0.4030150000000 1.0
C      1  0.4849020000000  0.5939290000000  0.4271640000000 1.0
C      1  0.4688230000000  0.5106080000000  0.5010570000000 1.0
C      1  0.4459510000000  0.5779730000000  0.4569640000000 1.0
C      1  0.4574890000000  0.5520780000000  0.4190070000000 1.0
C      1  0.4667790000000  0.5230840000000  0.5326430000000 1.0
C      1  0.4627260000000  0.5259350000000  0.6018210000000 1.0
C      1  0.4756780000000  0.5685270000000  0.5537320000000 1.0
C      1  0.5206790000000  0.5139230000000  0.4395590000000 1.0
C      1  0.5127560000000  0.5027090000000  0.5390310000000 1.0
C      1  0.5696510000000  0.5023890000000  0.4445070000000 1.0
C      1  0.5216320000000  0.5609230000000  0.4326160000000 1.0
C      1  0.4942820000000  0.4838060000000  0.6032010000000 1.0
C      1  0.4921790000000  0.4834200000000  0.4072450000000 1.0
C      1  0.4714930000000  0.5344240000000  0.4550190000000 1.0
C      1  0.4994040000000  0.5227960000000  0.4609380000000 1.0
C      1  0.4638320000000  0.4599670000000  0.4476410000000 1.0
C      1  0.5201420000000  0.5346440000000  0.5480940000000 1.0
C      1  0.5926630000000  0.5432550000000  0.4540740000000 1.0
C      1  0.5323860000000  0.5841210000000  0.4543280000000 1.0
C      1  0.5482790000000  0.4817370000000  0.4174620000000 1.0
C      1  0.4675070000000  0.4913370000000  0.5359530000000 1.0
C      1  0.5686310000000  0.5664560000000  0.5052800000000 1.0
C      1  0.5489260000000  0.4877050000000  0.5189220000000 1.0
C      1  0.5011310000000  0.5810920000000  0.5357500000000 1.0
C      1  0.5001570000000  0.4272540000000  0.5801670000000 1.0
C      1  0.5786100000000  0.4721470000000  0.4317330000000 1.0
C      1  0.5283310000000  0.4325420000000  0.4268370000000 1.0
C      1  0.5301960000000  0.5039300000000  0.5964670000000 1.0
C      1  0.5814340000000  0.4831400000000  0.5841260000000 1.0
C      1  0.4498710000000  0.5941250000000  0.4796020000000 1.0
C      1  0.5473850000000  0.4376980000000  0.4615710000000 1.0
C      1  0.4124030000000  0.5046250000000  0.5401310000000 1.0
C      1  0.4171580000000  0.4157860000000  0.5123130000000 1.0
C      1  0.4575040000000  0.4789420000000  0.5885260000000 1.0
C      1  0.4810450000000  0.4941980000000  0.4622200000000 1.0
C      1  0.5776920000000  0.5302760000000  0.5243230000000 1.0
C      1  0.5508850000000  0.4109990000000  0.5471080000000 1.0
C      1  0.5081480000000  0.6001080000000  0.4629890000000 1.0
C      1  0.4906800000000  0.4080820000000  0.4760930000000 1.0
C      1  0.5521870000000  0.5110530000000  0.4006620000000 1.0
C      1  0.5449010000000  0.4008620000000  0.4932160000000 1.0
C      1  0.4110650000000  0.4666020000000  0.4986400000000 1.0
C      1  0.5176530000000  0.5552400000000  0.5210910000000 1.0
C      1  0.4629540000000  0.4505040000000  0.5538320000000 1.0
C      1  0.4795910000000  0.5858190000000  0.4901630000000 1.0
C      1  0.5315270000000  0.4291930000000  0.5667480000000 1.0
C      1  0.5498620000000  0.5445720000000  0.5233160000000 1.0
C      1  0.5603310000000  0.4810330000000  0.3856730000000 1.0
C      1  0.4218250000000  0.4809730000000  0.5705870000000 1.0
C      1  0.5248470000000  0.5198360000000  0.3921300000000 1.0
C      1  0.4315560000000  0.5512510000000  0.4617870000000 1.0
C      1  0.4026930000000  0.5480890000000  0.4754700000000 1.0
C      1  0.3957510000000  0.4969740000000  0.4539410000000 1.0
C      1  0.4866200000000  0.4104550000000  0.5056510000000 1.0
C      1  0.5232540000000  0.4418100000000  0.5140830000000 1.0
C      1  0.5014140000000  0.5192450000000  0.5034910000000 1.0
C      1  0.5955800000000  0.4546360000000  0.4992710000000 1.0
C      1  0.4521020000000  0.5334590000000  0.4822270000000 1.0
C      1  0.4234870000000  0.5201530000000  0.4949000000000 1.0
C      1  0.5075110000000  0.5336080000000  0.4151620000000 1.0
C      1  0.4585170000000  0.4949440000000  0.5647130000000 1.0
C      1  0.5489330000000  0.4844150000000  0.5507170000000 1.0
C      1  0.3903330000000  0.4817980000000  0.5461050000000 1.0
C      1  0.5687830000000  0.4298730000000  0.5290370000000 1.0
C      1  0.4469560000000  0.4804020000000  0.5154740000000 1.0
END
