TITL C-2847958-8115-681 0.000457396479351437 125000 -318.232389540094 0 0 59 (C1) n - 1
REM
REM in /home/bkarasulu/work/CARBON/AIRSS/Generating-Clusters/AIREBO/with-SteepDescent/Only-C1/SD-CG-opt/Try1-1.4A-POS3A/HFTN-CG
REM
REM
REM
REM
REM
REM ./C.cell (11c1c37f851c82e70ff6c80c92926a4b)
REM
REM compiler GCC version 9.2.1 20190827 (Red Hat 9.2.1-1)
REM options -cpp -mtune=generic -march=x86-64 -g -O0 -fpre-include=/usr/include/finclude/math-vector-fortran.h
REM seed 1695005650 2012106733 -1790693913 -1256770043 696790617 -1317654578 -1870390293 940693074 1832169123 -2031944641 -662110325 -1222580599 -1111095908 867615812 -1696241737 1814713269 602192876 -151755451 -49110325 -483453311 -1627787739 1834430286 -182108573 924447915 434354648 1628682026 1401105458 -1354431377 -1898864464 2138050647 -83139838 1750431046 -411011321
REM
CELL 1.54180   50.00000   50.00000   50.00000   90.00000   90.00000   90.00000
LATT -1
SFAC C  
C      1  0.4423610000000  0.4675130000000  0.4714200000000 1.0
C      1  0.5192440000000  0.5087750000000  0.5065640000000 1.0
C      1  0.5775430000000  0.4761550000000  0.5466760000000 1.0
C      1  0.4828150000000  0.5668160000000  0.4555880000000 1.0
C      1  0.5079580000000  0.4694490000000  0.5293690000000 1.0
C      1  0.4830820000000  0.5352810000000  0.4460770000000 1.0
C      1  0.5368580000000  0.5220850000000  0.5263220000000 1.0
C      1  0.5494030000000  0.4545960000000  0.5026840000000 1.0
C      1  0.4302610000000  0.5161330000000  0.4588890000000 1.0
C      1  0.4424420000000  0.5417410000000  0.5453200000000 1.0
C      1  0.4666110000000  0.4263330000000  0.5185670000000 1.0
C      1  0.4786820000000  0.5363120000000  0.5101450000000 1.0
C      1  0.4907230000000  0.5092350000000  0.5214860000000 1.0
C      1  0.4683200000000  0.4291630000000  0.5486130000000 1.0
C      1  0.5225430000000  0.4728920000000  0.5791060000000 1.0
C      1  0.5550610000000  0.4567420000000  0.4526630000000 1.0
C      1  0.4607420000000  0.4662570000000  0.4976150000000 1.0
C      1  0.4808660000000  0.4549220000000  0.5302060000000 1.0
C      1  0.5122350000000  0.4521980000000  0.4731610000000 1.0
C      1  0.5901270000000  0.4739440000000  0.4813380000000 1.0
C      1  0.4513350000000  0.4877440000000  0.5597580000000 1.0
C      1  0.4933860000000  0.4858280000000  0.4232330000000 1.0
C      1  0.5707860000000  0.4502320000000  0.4317470000000 1.0
C      1  0.5067910000000  0.4909860000000  0.4812860000000 1.0
C      1  0.5655120000000  0.4621310000000  0.4778500000000 1.0
C      1  0.4054330000000  0.5076570000000  0.5057870000000 1.0
C      1  0.4579270000000  0.5718280000000  0.4726760000000 1.0
C      1  0.4794640000000  0.5038500000000  0.4701000000000 1.0
C      1  0.5639520000000  0.4670480000000  0.5270810000000 1.0
C      1  0.4838150000000  0.5071350000000  0.4375010000000 1.0
C      1  0.5271750000000  0.4580390000000  0.4501300000000 1.0
C      1  0.4484670000000  0.4986790000000  0.4777090000000 1.0
C      1  0.4361330000000  0.5086970000000  0.5070530000000 1.0
C      1  0.5475640000000  0.4263070000000  0.5057120000000 1.0
C      1  0.4861600000000  0.5356260000000  0.4800640000000 1.0
C      1  0.5082120000000  0.5604050000000  0.4807880000000 1.0
C      1  0.4472740000000  0.5370290000000  0.5142350000000 1.0
C      1  0.4918780000000  0.5176910000000  0.5529740000000 1.0
C      1  0.5422070000000  0.5270330000000  0.4563000000000 1.0
C      1  0.6145680000000  0.4828120000000  0.4846550000000 1.0
C      1  0.4723920000000  0.4843380000000  0.5188910000000 1.0
C      1  0.5356660000000  0.5495940000000  0.4416120000000 1.0
C      1  0.4640930000000  0.4439320000000  0.4763000000000 1.0
C      1  0.5091850000000  0.4886820000000  0.5569090000000 1.0
C      1  0.4684970000000  0.5411610000000  0.5606330000000 1.0
C      1  0.4898240000000  0.4356910000000  0.4709420000000 1.0
C      1  0.4951750000000  0.5592500000000  0.5235470000000 1.0
C      1  0.5204720000000  0.4672190000000  0.5012980000000 1.0
C      1  0.5182590000000  0.5634630000000  0.5082350000000 1.0
C      1  0.5360540000000  0.5082720000000  0.5497810000000 1.0
C      1  0.5164670000000  0.5665390000000  0.4507080000000 1.0
C      1  0.4774510000000  0.4831730000000  0.5678410000000 1.0
C      1  0.5315680000000  0.5120750000000  0.4749870000000 1.0
C      1  0.5406650000000  0.5493320000000  0.5188260000000 1.0
C      1  0.5131700000000  0.4675940000000  0.4277590000000 1.0
C      1  0.4986100000000  0.5412100000000  0.5768400000000 1.0
C      1  0.4921440000000  0.5610590000000  0.5503570000000 1.0
C      1  0.4468740000000  0.4928330000000  0.5334230000000 1.0
C      1  0.4475210000000  0.5612870000000  0.4926630000000 1.0
END
