TITL C-2848507-1641-124 -0.00118674833485807 125000 -886.201949403028 0 0 164 (C1) n - 1
REM
REM in /home/bkarasulu/work/CARBON/AIRSS/Generating-Clusters/AIREBO/with-SteepDescent/Only-C1/SD-CG-opt/Try1-1.4A-POS3A/HFTN-CG
REM
REM
REM
REM
REM
REM ./C.cell (11c1c37f851c82e70ff6c80c92926a4b)
REM
REM compiler GCC version 9.2.1 20190827 (Red Hat 9.2.1-1)
REM options -cpp -mtune=generic -march=x86-64 -g -O0 -fpre-include=/usr/include/finclude/math-vector-fortran.h
REM seed 151645754 1099060955 -1254585129 812733864 -844350680 -1356024621 1590897534 2101306128 -289321518 1084397156 276285434 1585264710 1468256004 1040071995 -1097440465 -960330345 1701184501 -1767416304 388998308 -1176404850 1841399071 -1182782565 2025401659 1754119050 -1631731708 741701259 -2050698621 1479029172 -1350624662 -1265933259 1992962299 -423042422 99725966
REM
CELL 1.54180   50.00000   50.00000   50.00000   90.00000   90.00000   90.00000
LATT -1
SFAC C  
C      1  0.4768210000000  0.5184680000000  0.5014130000000 1.0
C      1  0.4282720000000  0.4023600000000  0.4938800000000 1.0
C      1  0.5567030000000  0.5062840000000  0.4711670000000 1.0
C      1  0.5209030000000  0.4717680000000  0.4782370000000 1.0
C      1  0.5071750000000  0.4580360000000  0.5332590000000 1.0
C      1  0.4606560000000  0.4388490000000  0.4268020000000 1.0
C      1  0.4098440000000  0.5595640000000  0.4794320000000 1.0
C      1  0.5251050000000  0.5182520000000  0.4921580000000 1.0
C      1  0.4937560000000  0.5707030000000  0.5659530000000 1.0
C      1  0.4998100000000  0.6036750000000  0.5145330000000 1.0
C      1  0.4565440000000  0.5958880000000  0.4842080000000 1.0
C      1  0.4820070000000  0.4429510000000  0.5160680000000 1.0
C      1  0.4777250000000  0.4734290000000  0.5016110000000 1.0
C      1  0.5096820000000  0.4063420000000  0.5447160000000 1.0
C      1  0.5267950000000  0.4749290000000  0.4337990000000 1.0
C      1  0.4890480000000  0.4303660000000  0.4379100000000 1.0
C      1  0.5909140000000  0.4334990000000  0.5145690000000 1.0
C      1  0.5317580000000  0.5205780000000  0.4536980000000 1.0
C      1  0.5701040000000  0.5660740000000  0.5369920000000 1.0
C      1  0.4361670000000  0.4752300000000  0.5644400000000 1.0
C      1  0.5645460000000  0.4877550000000  0.4344890000000 1.0
C      1  0.5617330000000  0.5397370000000  0.4130690000000 1.0
C      1  0.5492360000000  0.4302090000000  0.4387230000000 1.0
C      1  0.4490170000000  0.4064290000000  0.4701830000000 1.0
C      1  0.3950080000000  0.4680710000000  0.5207840000000 1.0
C      1  0.5253870000000  0.5116370000000  0.5889960000000 1.0
C      1  0.4839800000000  0.5670800000000  0.4878280000000 1.0
C      1  0.4914510000000  0.4033400000000  0.4515280000000 1.0
C      1  0.4796680000000  0.5462940000000  0.6164660000000 1.0
C      1  0.4331750000000  0.5493410000000  0.5600520000000 1.0
C      1  0.5676940000000  0.4128030000000  0.5047890000000 1.0
C      1  0.5588440000000  0.5325310000000  0.5555470000000 1.0
C      1  0.5760580000000  0.4960630000000  0.5267320000000 1.0
C      1  0.5237790000000  0.4098710000000  0.4740540000000 1.0
C      1  0.4619710000000  0.4614690000000  0.5774150000000 1.0
C      1  0.4354060000000  0.4820940000000  0.5066920000000 1.0
C      1  0.4909680000000  0.4985100000000  0.5484470000000 1.0
C      1  0.5046830000000  0.4569100000000  0.4523080000000 1.0
C      1  0.4008560000000  0.4938110000000  0.5669640000000 1.0
C      1  0.4640950000000  0.5053780000000  0.5875660000000 1.0
C      1  0.5248390000000  0.5113130000000  0.5240950000000 1.0
C      1  0.4367790000000  0.5007650000000  0.5829710000000 1.0
C      1  0.5488910000000  0.4694380000000  0.4589540000000 1.0
C      1  0.4752000000000  0.5901020000000  0.4563750000000 1.0
C      1  0.4072230000000  0.5394810000000  0.5252490000000 1.0
C      1  0.4816270000000  0.4917990000000  0.4418540000000 1.0
C      1  0.5308610000000  0.5691280000000  0.4384380000000 1.0
C      1  0.4771420000000  0.4897580000000  0.4095900000000 1.0
C      1  0.5528810000000  0.4671420000000  0.5738470000000 1.0
C      1  0.4573620000000  0.5533500000000  0.4309900000000 1.0
C      1  0.4621170000000  0.4101700000000  0.5850060000000 1.0
C      1  0.5440370000000  0.5821700000000  0.4851760000000 1.0
C      1  0.4183190000000  0.5058820000000  0.4893960000000 1.0
C      1  0.4177450000000  0.4795090000000  0.4452830000000 1.0
C      1  0.5892160000000  0.4673300000000  0.4421920000000 1.0
C      1  0.4982690000000  0.5910200000000  0.4890160000000 1.0
C      1  0.5552210000000  0.4954190000000  0.5880920000000 1.0
C      1  0.5789470000000  0.4664730000000  0.4746050000000 1.0
C      1  0.5858380000000  0.4930600000000  0.4949460000000 1.0
C      1  0.4821350000000  0.5448900000000  0.4121350000000 1.0
C      1  0.5530030000000  0.4276500000000  0.4787780000000 1.0
C      1  0.5409460000000  0.5419040000000  0.5893210000000 1.0
C      1  0.5477770000000  0.5489410000000  0.4521380000000 1.0
C      1  0.4746340000000  0.5322840000000  0.4494060000000 1.0
C      1  0.4957560000000  0.4650670000000  0.4000580000000 1.0
C      1  0.4424450000000  0.5880130000000  0.4539860000000 1.0
C      1  0.5783690000000  0.4493820000000  0.5684830000000 1.0
C      1  0.4173060000000  0.5185380000000  0.5404020000000 1.0
C      1  0.5342870000000  0.4472720000000  0.4976660000000 1.0
C      1  0.5954480000000  0.5505550000000  0.4871490000000 1.0
C      1  0.4742300000000  0.4338020000000  0.5702290000000 1.0
C      1  0.4369060000000  0.4938200000000  0.5366200000000 1.0
C      1  0.5224490000000  0.5920630000000  0.4718230000000 1.0
C      1  0.4415090000000  0.5523450000000  0.5093540000000 1.0
C      1  0.5874840000000  0.5732780000000  0.5085920000000 1.0
C      1  0.5548520000000  0.5641030000000  0.5675210000000 1.0
C      1  0.4957890000000  0.3994380000000  0.5177950000000 1.0
C      1  0.5356030000000  0.4042590000000  0.5054350000000 1.0
C      1  0.5467570000000  0.5423860000000  0.4842200000000 1.0
C      1  0.5015240000000  0.4708430000000  0.5612880000000 1.0
C      1  0.4504060000000  0.5036780000000  0.4354930000000 1.0
C      1  0.5057420000000  0.5424670000000  0.4545880000000 1.0
C      1  0.4745120000000  0.5782920000000  0.5464020000000 1.0
C      1  0.4003890000000  0.4596170000000  0.4898520000000 1.0
C      1  0.4340910000000  0.5551130000000  0.4560060000000 1.0
C      1  0.4461850000000  0.5249450000000  0.4934590000000 1.0
C      1  0.6051770000000  0.5121520000000  0.5241850000000 1.0
C      1  0.4147390000000  0.5699020000000  0.5120220000000 1.0
C      1  0.4379650000000  0.4344500000000  0.4961070000000 1.0
C      1  0.4556590000000  0.5545390000000  0.5377830000000 1.0
C      1  0.5830650000000  0.5097590000000  0.4502540000000 1.0
C      1  0.4776990000000  0.4707470000000  0.4677000000000 1.0
C      1  0.4335580000000  0.4493100000000  0.4445250000000 1.0
C      1  0.5747280000000  0.5251420000000  0.4929930000000 1.0
C      1  0.4180960000000  0.5226770000000  0.5721450000000 1.0
C      1  0.4605550000000  0.4414690000000  0.5425220000000 1.0
C      1  0.4748850000000  0.6002650000000  0.5286140000000 1.0
C      1  0.5226360000000  0.4282140000000  0.4490550000000 1.0
C      1  0.4390220000000  0.4536940000000  0.5191350000000 1.0
C      1  0.5506000000000  0.4844630000000  0.5460910000000 1.0
C      1  0.5093120000000  0.5413530000000  0.5205210000000 1.0
C      1  0.5089170000000  0.4820920000000  0.5925350000000 1.0
C      1  0.5385240000000  0.5245650000000  0.4112950000000 1.0
C      1  0.4772920000000  0.4810680000000  0.5913430000000 1.0
C      1  0.4752740000000  0.5299210000000  0.5333930000000 1.0
C      1  0.5109930000000  0.5017020000000  0.4403800000000 1.0
C      1  0.5266980000000  0.6052340000000  0.5244190000000 1.0
C      1  0.5820300000000  0.4406460000000  0.5432530000000 1.0
C      1  0.5209960000000  0.4797080000000  0.5173500000000 1.0
C      1  0.4516880000000  0.6043460000000  0.5120250000000 1.0
C      1  0.4257410000000  0.5983700000000  0.5197870000000 1.0
C      1  0.4275730000000  0.4557740000000  0.4758980000000 1.0
C      1  0.4577900000000  0.5116160000000  0.4669290000000 1.0
C      1  0.4996070000000  0.4963130000000  0.4892120000000 1.0
C      1  0.4169740000000  0.5277320000000  0.4453520000000 1.0
C      1  0.4937670000000  0.4031020000000  0.4816180000000 1.0
C      1  0.5537970000000  0.4314570000000  0.5287690000000 1.0
C      1  0.5011050000000  0.5760750000000  0.4520340000000 1.0
C      1  0.5734290000000  0.4380740000000  0.4567060000000 1.0
C      1  0.4623870000000  0.4603500000000  0.4004810000000 1.0
C      1  0.5246100000000  0.4549510000000  0.5805370000000 1.0
C      1  0.3914290000000  0.4890710000000  0.4975090000000 1.0
C      1  0.5063180000000  0.5689760000000  0.4148980000000 1.0
C      1  0.6074730000000  0.4980700000000  0.4600180000000 1.0
C      1  0.6149880000000  0.4794200000000  0.4861090000000 1.0
C      1  0.5278330000000  0.4339430000000  0.5430880000000 1.0
C      1  0.4269200000000  0.4407810000000  0.5474550000000 1.0
C      1  0.5333480000000  0.5596980000000  0.5072030000000 1.0
C      1  0.5723570000000  0.5140810000000  0.5761440000000 1.0
C      1  0.4775410000000  0.5228730000000  0.5665890000000 1.0
C      1  0.5865200000000  0.5627210000000  0.4604830000000 1.0
C      1  0.4684290000000  0.4193460000000  0.4956790000000 1.0
C      1  0.4482660000000  0.4818330000000  0.4759690000000 1.0
C      1  0.4156080000000  0.5036700000000  0.4583300000000 1.0
C      1  0.6247240000000  0.4983650000000  0.5109170000000 1.0
C      1  0.5039900000000  0.4314450000000  0.5669410000000 1.0
C      1  0.4746020000000  0.5180880000000  0.3972750000000 1.0
C      1  0.6012700000000  0.4492240000000  0.4935960000000 1.0
C      1  0.5212270000000  0.5675720000000  0.5630690000000 1.0
C      1  0.5773870000000  0.5400640000000  0.4409310000000 1.0
C      1  0.4040430000000  0.5348170000000  0.4963870000000 1.0
C      1  0.5112280000000  0.4278840000000  0.5073720000000 1.0
C      1  0.4387010000000  0.3858530000000  0.5149350000000 1.0
C      1  0.5716110000000  0.5817020000000  0.4821480000000 1.0
C      1  0.4077130000000  0.4678030000000  0.5473680000000 1.0
C      1  0.5003670000000  0.5269150000000  0.6023040000000 1.0
C      1  0.5551370000000  0.4628580000000  0.5202100000000 1.0
C      1  0.4542740000000  0.5624550000000  0.4823740000000 1.0
C      1  0.4431730000000  0.4744010000000  0.4238860000000 1.0
C      1  0.5467870000000  0.4850580000000  0.4958310000000 1.0
C      1  0.5226890000000  0.4689740000000  0.4005700000000 1.0
C      1  0.4522640000000  0.4129810000000  0.4449800000000 1.0
C      1  0.4683930000000  0.4898570000000  0.5278550000000 1.0
C      1  0.5822310000000  0.5370480000000  0.5239570000000 1.0
C      1  0.5433890000000  0.5837390000000  0.5255360000000 1.0
C      1  0.5433110000000  0.4946110000000  0.4115210000000 1.0
C      1  0.4379200000000  0.5294040000000  0.4236630000000 1.0
C      1  0.5544090000000  0.5194160000000  0.5273000000000 1.0
C      1  0.4993630000000  0.5400540000000  0.4879090000000 1.0
C      1  0.5294530000000  0.5454670000000  0.5443390000000 1.0
C      1  0.5237810000000  0.5035510000000  0.5560050000000 1.0
C      1  0.4840020000000  0.5488500000000  0.5827370000000 1.0
C      1  0.5135910000000  0.5370620000000  0.4219380000000 1.0
C      1  0.4646610000000  0.3939340000000  0.5179510000000 1.0
END
