TITL C-2848497-6229-60 -0.00421072158993133 125000 -994.161351321176 0 0 183 (C1) n - 1
REM
REM in /home/bkarasulu/work/CARBON/AIRSS/Generating-Clusters/AIREBO/with-SteepDescent/Only-C1/SD-CG-opt/Try1-1.4A-POS3A/HFTN-CG
REM
REM
REM
REM
REM
REM ./C.cell (11c1c37f851c82e70ff6c80c92926a4b)
REM
REM compiler GCC version 9.2.1 20190827 (Red Hat 9.2.1-1)
REM options -cpp -mtune=generic -march=x86-64 -g -O0 -fpre-include=/usr/include/finclude/math-vector-fortran.h
REM seed -379238155 -1579813747 -263817769 -729893040 77628486 1077214115 -1075250811 467286809 1928534942 -959118836 -1042246958 -55200022 1324728996 -186693203 -1923531659 -1114455486 -1104398015 -608232561 1236240423 1929787674 779677711 1186774494 -1020796951 -228651829 -161007016 100277094 1890234747 1685155344 521667886 -87029599 -760366780 -616373609 -920968555
REM
CELL 1.54180   50.00000   50.00000   50.00000   90.00000   90.00000   90.00000
LATT -1
SFAC C  
C      1  0.5736180000000  0.4222580000000  0.4710050000000 1.0
C      1  0.5738670000000  0.5380450000000  0.5632880000000 1.0
C      1  0.4661200000000  0.4968370000000  0.5329680000000 1.0
C      1  0.5616770000000  0.5334080000000  0.4268100000000 1.0
C      1  0.5968500000000  0.5606030000000  0.5749560000000 1.0
C      1  0.5038570000000  0.4872200000000  0.4333010000000 1.0
C      1  0.5095400000000  0.4542910000000  0.5655810000000 1.0
C      1  0.3946300000000  0.4835240000000  0.5389180000000 1.0
C      1  0.5095970000000  0.5099440000000  0.4654140000000 1.0
C      1  0.4836180000000  0.5529130000000  0.4884830000000 1.0
C      1  0.5264700000000  0.5630220000000  0.5200620000000 1.0
C      1  0.4828840000000  0.3804270000000  0.4863080000000 1.0
C      1  0.4532920000000  0.4387830000000  0.4733540000000 1.0
C      1  0.4820600000000  0.5478180000000  0.4320150000000 1.0
C      1  0.4161950000000  0.5708520000000  0.4990530000000 1.0
C      1  0.5008700000000  0.4606660000000  0.5043130000000 1.0
C      1  0.4716640000000  0.5192080000000  0.4168020000000 1.0
C      1  0.5116200000000  0.5370580000000  0.5560980000000 1.0
C      1  0.5411660000000  0.4785470000000  0.6002490000000 1.0
C      1  0.4213150000000  0.5478470000000  0.4789580000000 1.0
C      1  0.4986650000000  0.5616260000000  0.5383820000000 1.0
C      1  0.3954060000000  0.4671850000000  0.4444700000000 1.0
C      1  0.5059400000000  0.5407800000000  0.4533350000000 1.0
C      1  0.4298570000000  0.5153320000000  0.5526730000000 1.0
C      1  0.4908480000000  0.5571480000000  0.3891390000000 1.0
C      1  0.5287540000000  0.5176650000000  0.5340430000000 1.0
C      1  0.5782510000000  0.5797240000000  0.5057450000000 1.0
C      1  0.5955360000000  0.5403890000000  0.5967020000000 1.0
C      1  0.5599550000000  0.4589900000000  0.4230390000000 1.0
C      1  0.4508120000000  0.4674600000000  0.5394560000000 1.0
C      1  0.4492860000000  0.5763930000000  0.4249070000000 1.0
C      1  0.4560060000000  0.5636820000000  0.5739070000000 1.0
C      1  0.5528280000000  0.5757280000000  0.4445590000000 1.0
C      1  0.4594900000000  0.4670910000000  0.4182690000000 1.0
C      1  0.4460560000000  0.5323870000000  0.5288360000000 1.0
C      1  0.4484750000000  0.5883890000000  0.4629990000000 1.0
C      1  0.4992130000000  0.5956180000000  0.5377000000000 1.0
C      1  0.4292190000000  0.5084110000000  0.4797590000000 1.0
C      1  0.5547700000000  0.5021390000000  0.5900710000000 1.0
C      1  0.6245130000000  0.4777090000000  0.5083060000000 1.0
C      1  0.5725070000000  0.5523390000000  0.4602540000000 1.0
C      1  0.5637630000000  0.5989120000000  0.5199730000000 1.0
C      1  0.5426130000000  0.5983450000000  0.5440060000000 1.0
C      1  0.4371010000000  0.4678720000000  0.4963310000000 1.0
C      1  0.5954970000000  0.4702120000000  0.5192560000000 1.0
C      1  0.5853520000000  0.4584490000000  0.5606860000000 1.0
C      1  0.4669270000000  0.4662000000000  0.5031380000000 1.0
C      1  0.4765470000000  0.5247620000000  0.5158640000000 1.0
C      1  0.5154610000000  0.4844050000000  0.6145530000000 1.0
C      1  0.4271680000000  0.4879800000000  0.5343410000000 1.0
C      1  0.4047590000000  0.5607140000000  0.5228200000000 1.0
C      1  0.5087360000000  0.4773170000000  0.3889520000000 1.0
C      1  0.5727640000000  0.5790100000000  0.4787270000000 1.0
C      1  0.5487120000000  0.4415740000000  0.5115790000000 1.0
C      1  0.5564130000000  0.4749250000000  0.5537930000000 1.0
C      1  0.5566850000000  0.4748430000000  0.4621780000000 1.0
C      1  0.5314300000000  0.5410400000000  0.4966430000000 1.0
C      1  0.4194910000000  0.4895940000000  0.4531090000000 1.0
C      1  0.5419420000000  0.4027050000000  0.5062660000000 1.0
C      1  0.5082100000000  0.4985460000000  0.5145040000000 1.0
C      1  0.6285980000000  0.4946310000000  0.4868240000000 1.0
C      1  0.4980100000000  0.5774890000000  0.4366450000000 1.0
C      1  0.3909440000000  0.4969600000000  0.4800070000000 1.0
C      1  0.5450040000000  0.4834790000000  0.4205610000000 1.0
C      1  0.4365300000000  0.5901960000000  0.4940030000000 1.0
C      1  0.4865090000000  0.4851150000000  0.4624770000000 1.0
C      1  0.4183070000000  0.5646660000000  0.5467630000000 1.0
C      1  0.4606140000000  0.5373920000000  0.5953030000000 1.0
C      1  0.4563560000000  0.5907490000000  0.5170960000000 1.0
C      1  0.5410400000000  0.3999140000000  0.5353340000000 1.0
C      1  0.3952870000000  0.4567650000000  0.5241470000000 1.0
C      1  0.5492040000000  0.5949160000000  0.4675840000000 1.0
C      1  0.4463800000000  0.4626080000000  0.5923950000000 1.0
C      1  0.4020500000000  0.5662860000000  0.4411430000000 1.0
C      1  0.4233200000000  0.5298380000000  0.5055340000000 1.0
C      1  0.4305120000000  0.5499850000000  0.5915310000000 1.0
C      1  0.5042750000000  0.4312960000000  0.5410820000000 1.0
C      1  0.5379290000000  0.5012660000000  0.4486890000000 1.0
C      1  0.5481850000000  0.4149930000000  0.4496380000000 1.0
C      1  0.4920580000000  0.4305770000000  0.5825800000000 1.0
C      1  0.6183390000000  0.5262170000000  0.5407850000000 1.0
C      1  0.4039150000000  0.5422490000000  0.4564780000000 1.0
C      1  0.4284550000000  0.4292050000000  0.4945240000000 1.0
C      1  0.5398830000000  0.4594140000000  0.5777570000000 1.0
C      1  0.6034030000000  0.5495020000000  0.4987040000000 1.0
C      1  0.5137020000000  0.5228280000000  0.5869120000000 1.0
C      1  0.5815580000000  0.4301500000000  0.5495360000000 1.0
C      1  0.5324350000000  0.4917830000000  0.3963410000000 1.0
C      1  0.4494020000000  0.5255160000000  0.4616660000000 1.0
C      1  0.5233430000000  0.4715190000000  0.4563490000000 1.0
C      1  0.4137000000000  0.4911210000000  0.5045930000000 1.0
C      1  0.4065310000000  0.4102400000000  0.5407670000000 1.0
C      1  0.4565210000000  0.4964730000000  0.4028780000000 1.0
C      1  0.4668510000000  0.4354370000000  0.5926400000000 1.0
C      1  0.5567460000000  0.5243380000000  0.4570440000000 1.0
C      1  0.5207800000000  0.3953700000000  0.4543310000000 1.0
C      1  0.3943450000000  0.5323200000000  0.5207900000000 1.0
C      1  0.5537730000000  0.5237520000000  0.4880190000000 1.0
C      1  0.5425730000000  0.5513510000000  0.5622930000000 1.0
C      1  0.5659130000000  0.4063670000000  0.5490320000000 1.0
C      1  0.4945980000000  0.6009540000000  0.4820930000000 1.0
C      1  0.5169280000000  0.4410950000000  0.4563740000000 1.0
C      1  0.4231350000000  0.5856730000000  0.4397150000000 1.0
C      1  0.5136150000000  0.4754300000000  0.5388600000000 1.0
C      1  0.5419280000000  0.5823900000000  0.5655360000000 1.0
C      1  0.5825270000000  0.5157460000000  0.5023760000000 1.0
C      1  0.4904290000000  0.4760910000000  0.4090900000000 1.0
C      1  0.5342370000000  0.4229580000000  0.4793470000000 1.0
C      1  0.4658490000000  0.5545030000000  0.5437450000000 1.0
C      1  0.5509440000000  0.5432680000000  0.5311240000000 1.0
C      1  0.5153060000000  0.4349240000000  0.5122590000000 1.0
C      1  0.5032980000000  0.5259040000000  0.4948850000000 1.0
C      1  0.5906750000000  0.4429580000000  0.4659380000000 1.0
C      1  0.5888950000000  0.4768020000000  0.4630590000000 1.0
C      1  0.5280770000000  0.4182300000000  0.3826020000000 1.0
C      1  0.5942010000000  0.5303660000000  0.4739680000000 1.0
C      1  0.5171410000000  0.4045360000000  0.5495710000000 1.0
C      1  0.4063550000000  0.4534940000000  0.4941880000000 1.0
C      1  0.4742910000000  0.4449790000000  0.5494590000000 1.0
C      1  0.4819140000000  0.5714160000000  0.5113330000000 1.0
C      1  0.3973930000000  0.5152950000000  0.4560220000000 1.0
C      1  0.5684170000000  0.4172110000000  0.4983050000000 1.0
C      1  0.4573990000000  0.3920360000000  0.4922960000000 1.0
C      1  0.4958680000000  0.5317370000000  0.3983160000000 1.0
C      1  0.4690820000000  0.5099170000000  0.4470590000000 1.0
C      1  0.5038560000000  0.4051580000000  0.5757620000000 1.0
C      1  0.4851610000000  0.4502040000000  0.4644300000000 1.0
C      1  0.4377010000000  0.4890810000000  0.5728370000000 1.0
C      1  0.4809820000000  0.5945900000000  0.4593960000000 1.0
C      1  0.4706700000000  0.4348280000000  0.5022150000000 1.0
C      1  0.5501320000000  0.4926410000000  0.5004060000000 1.0
C      1  0.4840350000000  0.6078840000000  0.5104680000000 1.0
C      1  0.5861360000000  0.5219260000000  0.5356420000000 1.0
C      1  0.5034690000000  0.5124900000000  0.6109150000000 1.0
C      1  0.5337100000000  0.5416630000000  0.4155510000000 1.0
C      1  0.4191530000000  0.5430290000000  0.5648020000000 1.0
C      1  0.4983740000000  0.4308640000000  0.4185520000000 1.0
C      1  0.4163710000000  0.4320100000000  0.5262450000000 1.0
C      1  0.4479670000000  0.5566830000000  0.4507180000000 1.0
C      1  0.4724610000000  0.4694250000000  0.5727480000000 1.0
C      1  0.4792360000000  0.4450180000000  0.4313550000000 1.0
C      1  0.5803200000000  0.4445280000000  0.5237730000000 1.0
C      1  0.5857040000000  0.4888520000000  0.5435800000000 1.0
C      1  0.4379600000000  0.4924730000000  0.4280040000000 1.0
C      1  0.4453970000000  0.5811710000000  0.5460920000000 1.0
C      1  0.5428180000000  0.4711930000000  0.5244890000000 1.0
C      1  0.4535600000000  0.5037960000000  0.5021480000000 1.0
C      1  0.4359140000000  0.4650620000000  0.4648360000000 1.0
C      1  0.4751350000000  0.5131410000000  0.6111100000000 1.0
C      1  0.3814680000000  0.5105360000000  0.5296860000000 1.0
C      1  0.4071320000000  0.4863060000000  0.5687460000000 1.0
C      1  0.4644080000000  0.4882880000000  0.6019470000000 1.0
C      1  0.5235830000000  0.5910900000000  0.4831430000000 1.0
C      1  0.4954850000000  0.4260320000000  0.4860350000000 1.0
C      1  0.5108510000000  0.4979800000000  0.5638730000000 1.0
C      1  0.5133890000000  0.5602740000000  0.4771760000000 1.0
C      1  0.3909740000000  0.4687630000000  0.4732500000000 1.0
C      1  0.4819970000000  0.4922280000000  0.4937630000000 1.0
C      1  0.5010670000000  0.3984080000000  0.4736210000000 1.0
C      1  0.4477880000000  0.4057300000000  0.4688100000000 1.0
C      1  0.5243130000000  0.4268020000000  0.4079090000000 1.0
C      1  0.5839980000000  0.5334850000000  0.4134570000000 1.0
C      1  0.5466440000000  0.4330250000000  0.4248550000000 1.0
C      1  0.5299140000000  0.5696150000000  0.4283330000000 1.0
C      1  0.4389610000000  0.3954710000000  0.4451690000000 1.0
C      1  0.4768070000000  0.5745810000000  0.4116000000000 1.0
C      1  0.5101420000000  0.5199030000000  0.4268230000000 1.0
C      1  0.6094430000000  0.5022920000000  0.4685540000000 1.0
C      1  0.4494130000000  0.4026170000000  0.5184900000000 1.0
C      1  0.5332510000000  0.5197100000000  0.3912440000000 1.0
C      1  0.4549640000000  0.5505330000000  0.4830690000000 1.0
C      1  0.4999390000000  0.4781420000000  0.5871920000000 1.0
C      1  0.5215380000000  0.4801420000000  0.4891980000000 1.0
C      1  0.5432180000000  0.5028080000000  0.5609630000000 1.0
C      1  0.5813710000000  0.4835240000000  0.4955310000000 1.0
C      1  0.5869510000000  0.4640960000000  0.4315750000000 1.0
C      1  0.4616320000000  0.5132400000000  0.5737040000000 1.0
C      1  0.5325490000000  0.5923090000000  0.5125980000000 1.0
C      1  0.5742770000000  0.5202680000000  0.5914610000000 1.0
C      1  0.5798960000000  0.5520430000000  0.5211250000000 1.0
C      1  0.4501850000000  0.4354170000000  0.5274620000000 1.0
C      1  0.4848080000000  0.5152860000000  0.5536640000000 1.0
C      1  0.5487720000000  0.4523020000000  0.4803970000000 1.0
END
