TITL C-2847949-8115-329 -0.00114959150578793 125000 -1003.17882446463 0 0 185 (C1) n - 1
REM
REM in /home/bkarasulu/work/CARBON/AIRSS/Generating-Clusters/AIREBO/with-SteepDescent/Only-C1/SD-CG-opt/Try1-1.4A-POS3A/HFTN-CG
REM
REM
REM
REM
REM
REM ./C.cell (11c1c37f851c82e70ff6c80c92926a4b)
REM
REM compiler GCC version 9.2.1 20190827 (Red Hat 9.2.1-1)
REM options -cpp -mtune=generic -march=x86-64 -g -O0 -fpre-include=/usr/include/finclude/math-vector-fortran.h
REM seed 1221905300 1002894808 591575495 -1869528439 -993881403 571380588 1975122955 1562092933 -1521496181 -1941053133 -852923177 -366057284 -308567720 -1089576742 2129717445 -56788861 -1612380994 -788113728 -2058997478 334873501 1090569421 1585143833 -278568662 507040531 415790749 1267595597 -2056357869 -1785149307 -691308343 -150288069 -771644861 1792352637 -69726654
REM
CELL 1.54180   50.00000   50.00000   50.00000   90.00000   90.00000   90.00000
LATT -1
SFAC C  
C      1  0.5131180000000  0.5359940000000  0.4244950000000 1.0
C      1  0.5163970000000  0.5694280000000  0.4903910000000 1.0
C      1  0.4200160000000  0.4547850000000  0.5657540000000 1.0
C      1  0.5070900000000  0.5407080000000  0.4634340000000 1.0
C      1  0.5317510000000  0.4245900000000  0.4070270000000 1.0
C      1  0.4659670000000  0.4373740000000  0.6194640000000 1.0
C      1  0.5513870000000  0.4092400000000  0.5528960000000 1.0
C      1  0.5290860000000  0.5069060000000  0.4267450000000 1.0
C      1  0.6053320000000  0.4687380000000  0.5208010000000 1.0
C      1  0.5080360000000  0.4490050000000  0.4974390000000 1.0
C      1  0.4974830000000  0.6217520000000  0.4864940000000 1.0
C      1  0.5886610000000  0.4845590000000  0.5458760000000 1.0
C      1  0.5529040000000  0.4752290000000  0.4435370000000 1.0
C      1  0.5484700000000  0.4769950000000  0.5164920000000 1.0
C      1  0.5325720000000  0.5046080000000  0.5034630000000 1.0
C      1  0.5909900000000  0.5426520000000  0.4901170000000 1.0
C      1  0.5503930000000  0.4705210000000  0.4831620000000 1.0
C      1  0.4426560000000  0.5380930000000  0.4282500000000 1.0
C      1  0.4344140000000  0.5257260000000  0.5718730000000 1.0
C      1  0.4965070000000  0.5202110000000  0.6107800000000 1.0
C      1  0.4410910000000  0.5797330000000  0.5393320000000 1.0
C      1  0.6109300000000  0.5069850000000  0.5536550000000 1.0
C      1  0.4257560000000  0.4411640000000  0.4440180000000 1.0
C      1  0.4132260000000  0.4315040000000  0.4742080000000 1.0
C      1  0.5359800000000  0.4175330000000  0.4686280000000 1.0
C      1  0.3916120000000  0.5457130000000  0.5297990000000 1.0
C      1  0.5624480000000  0.5690560000000  0.4798380000000 1.0
C      1  0.4697080000000  0.5043190000000  0.4841010000000 1.0
C      1  0.5269550000000  0.6076410000000  0.4839880000000 1.0
C      1  0.4047190000000  0.4927610000000  0.4709640000000 1.0
C      1  0.4951700000000  0.4481140000000  0.4671780000000 1.0
C      1  0.5374180000000  0.5596600000000  0.5359720000000 1.0
C      1  0.5122680000000  0.3859380000000  0.4641710000000 1.0
C      1  0.5446760000000  0.4647630000000  0.5776970000000 1.0
C      1  0.5029920000000  0.4302880000000  0.5624150000000 1.0
C      1  0.5236500000000  0.5128580000000  0.3936700000000 1.0
C      1  0.5390830000000  0.5866600000000  0.4218340000000 1.0
C      1  0.6111670000000  0.5240840000000  0.4385510000000 1.0
C      1  0.5220860000000  0.4885410000000  0.4776180000000 1.0
C      1  0.5663820000000  0.4481380000000  0.5184190000000 1.0
C      1  0.4628660000000  0.4459850000000  0.5866620000000 1.0
C      1  0.5969970000000  0.5037660000000  0.4831800000000 1.0
C      1  0.4009320000000  0.4611430000000  0.4679470000000 1.0
C      1  0.5552170000000  0.5369810000000  0.4232230000000 1.0
C      1  0.5269730000000  0.5379030000000  0.4976680000000 1.0
C      1  0.4527480000000  0.4841990000000  0.5540130000000 1.0
C      1  0.4737970000000  0.4771370000000  0.3936580000000 1.0
C      1  0.4586660000000  0.5923190000000  0.4762700000000 1.0
C      1  0.5428360000000  0.4524020000000  0.4231550000000 1.0
C      1  0.4268150000000  0.5637760000000  0.5641510000000 1.0
C      1  0.4961470000000  0.4141750000000  0.4693560000000 1.0
C      1  0.4476920000000  0.5887230000000  0.5085110000000 1.0
C      1  0.5386780000000  0.4384070000000  0.5921350000000 1.0
C      1  0.5563160000000  0.4194400000000  0.5028540000000 1.0
C      1  0.4649730000000  0.4545420000000  0.4756230000000 1.0
C      1  0.4942620000000  0.4856030000000  0.5789590000000 1.0
C      1  0.4936360000000  0.5698080000000  0.4521040000000 1.0
C      1  0.5662500000000  0.4399310000000  0.5501610000000 1.0
C      1  0.5892350000000  0.4441340000000  0.4964020000000 1.0
C      1  0.5408570000000  0.3999710000000  0.5217840000000 1.0
C      1  0.5396780000000  0.5157310000000  0.5948500000000 1.0
C      1  0.5139320000000  0.4084290000000  0.5394710000000 1.0
C      1  0.5924930000000  0.5026530000000  0.4333440000000 1.0
C      1  0.4415730000000  0.5414770000000  0.4628470000000 1.0
C      1  0.4180510000000  0.5829430000000  0.4929980000000 1.0
C      1  0.4987270000000  0.5101250000000  0.4757120000000 1.0
C      1  0.5761090000000  0.5538400000000  0.4547680000000 1.0
C      1  0.4825220000000  0.4623320000000  0.6090940000000 1.0
C      1  0.4261500000000  0.4281060000000  0.5243580000000 1.0
C      1  0.5246590000000  0.3972530000000  0.4926880000000 1.0
C      1  0.5598960000000  0.5084490000000  0.4411160000000 1.0
C      1  0.4813690000000  0.5443610000000  0.5091310000000 1.0
C      1  0.5480290000000  0.5304270000000  0.3972450000000 1.0
C      1  0.5745800000000  0.5743220000000  0.5334510000000 1.0
C      1  0.4181590000000  0.5642330000000  0.5195840000000 1.0
C      1  0.5657240000000  0.4861410000000  0.5910690000000 1.0
C      1  0.4830600000000  0.5947350000000  0.5534210000000 1.0
C      1  0.4902020000000  0.3947680000000  0.5277270000000 1.0
C      1  0.4816550000000  0.4739470000000  0.5429130000000 1.0
C      1  0.4725040000000  0.5073960000000  0.3888550000000 1.0
C      1  0.5863700000000  0.4970240000000  0.5143130000000 1.0
C      1  0.4817610000000  0.4320770000000  0.5384470000000 1.0
C      1  0.5367250000000  0.6138440000000  0.5358060000000 1.0
C      1  0.4431770000000  0.4380930000000  0.4184700000000 1.0
C      1  0.5642440000000  0.5830910000000  0.4425380000000 1.0
C      1  0.4649370000000  0.4070140000000  0.5378990000000 1.0
C      1  0.5346510000000  0.4354000000000  0.5390440000000 1.0
C      1  0.4456650000000  0.4265280000000  0.4750680000000 1.0
C      1  0.4388650000000  0.5393300000000  0.5132290000000 1.0
C      1  0.4846940000000  0.4545750000000  0.5180400000000 1.0
C      1  0.4904410000000  0.4487520000000  0.4335100000000 1.0
C      1  0.4220990000000  0.5041750000000  0.5245650000000 1.0
C      1  0.4471150000000  0.4608390000000  0.4510820000000 1.0
C      1  0.4875100000000  0.4557610000000  0.5700230000000 1.0
C      1  0.4953820000000  0.5478210000000  0.4006640000000 1.0
C      1  0.5200530000000  0.5354670000000  0.6033170000000 1.0
C      1  0.5289020000000  0.4189510000000  0.5750080000000 1.0
C      1  0.3827800000000  0.4884740000000  0.5179110000000 1.0
C      1  0.4882170000000  0.5499760000000  0.5712320000000 1.0
C      1  0.5532930000000  0.5321190000000  0.5282610000000 1.0
C      1  0.4117890000000  0.5040730000000  0.5629760000000 1.0
C      1  0.5975780000000  0.4762600000000  0.4391350000000 1.0
C      1  0.4314740000000  0.4951820000000  0.5859710000000 1.0
C      1  0.5239150000000  0.4579070000000  0.5238180000000 1.0
C      1  0.4400380000000  0.4177410000000  0.5467930000000 1.0
C      1  0.4076310000000  0.5284060000000  0.5053050000000 1.0
C      1  0.4672530000000  0.3795590000000  0.4877980000000 1.0
C      1  0.4203420000000  0.5680270000000  0.4654300000000 1.0
C      1  0.4969730000000  0.5220260000000  0.3873560000000 1.0
C      1  0.5375860000000  0.4858880000000  0.6107180000000 1.0
C      1  0.4654410000000  0.5725860000000  0.5620420000000 1.0
C      1  0.4843710000000  0.5326730000000  0.4406830000000 1.0
C      1  0.4465310000000  0.5801230000000  0.4546780000000 1.0
C      1  0.4912090000000  0.5891940000000  0.4789440000000 1.0
C      1  0.5628030000000  0.5150030000000  0.5004370000000 1.0
C      1  0.5212140000000  0.4656710000000  0.4540800000000 1.0
C      1  0.5140600000000  0.6128480000000  0.5148620000000 1.0
C      1  0.5789260000000  0.5700540000000  0.5062500000000 1.0
C      1  0.5373690000000  0.4429690000000  0.4893310000000 1.0
C      1  0.4699050000000  0.4246050000000  0.4257800000000 1.0
C      1  0.4488740000000  0.5205900000000  0.4041200000000 1.0
C      1  0.4150810000000  0.5040940000000  0.4439980000000 1.0
C      1  0.5497680000000  0.5911080000000  0.5403010000000 1.0
C      1  0.5118290000000  0.5638910000000  0.5212200000000 1.0
C      1  0.5236850000000  0.4625030000000  0.3988010000000 1.0
C      1  0.5670540000000  0.5627010000000  0.5623600000000 1.0
C      1  0.4434500000000  0.4903100000000  0.4102750000000 1.0
C      1  0.5084310000000  0.5858980000000  0.4259040000000 1.0
C      1  0.6061320000000  0.5420740000000  0.4590430000000 1.0
C      1  0.5159430000000  0.5556690000000  0.5844150000000 1.0
C      1  0.4448620000000  0.5405820000000  0.5460450000000 1.0
C      1  0.4777050000000  0.5758630000000  0.5071670000000 1.0
C      1  0.5268360000000  0.4933170000000  0.5729410000000 1.0
C      1  0.4554320000000  0.4994080000000  0.5251660000000 1.0
C      1  0.4704550000000  0.5268560000000  0.5342300000000 1.0
C      1  0.4468100000000  0.4916220000000  0.4419400000000 1.0
C      1  0.5798940000000  0.5384660000000  0.5677480000000 1.0
C      1  0.4780670000000  0.5027320000000  0.4423290000000 1.0
C      1  0.4639160000000  0.4759870000000  0.5020060000000 1.0
C      1  0.5295910000000  0.5827250000000  0.4620130000000 1.0
C      1  0.4241750000000  0.4733880000000  0.5388470000000 1.0
C      1  0.4650100000000  0.5607290000000  0.4368100000000 1.0
C      1  0.5633840000000  0.5137550000000  0.5719480000000 1.0
C      1  0.5043210000000  0.4878760000000  0.6102970000000 1.0
C      1  0.6016720000000  0.4725840000000  0.4872150000000 1.0
C      1  0.5253130000000  0.4331460000000  0.4450260000000 1.0
C      1  0.4970340000000  0.4687200000000  0.4093920000000 1.0
C      1  0.4386200000000  0.4569420000000  0.5144030000000 1.0
C      1  0.5043900000000  0.5199360000000  0.5147390000000 1.0
C      1  0.4038520000000  0.4393480000000  0.5059830000000 1.0
C      1  0.5401960000000  0.5453220000000  0.4698520000000 1.0
C      1  0.4852180000000  0.5715820000000  0.4117100000000 1.0
C      1  0.5565110000000  0.4954740000000  0.5439380000000 1.0
C      1  0.5305280000000  0.5160570000000  0.5478910000000 1.0
C      1  0.4384780000000  0.4946020000000  0.4747720000000 1.0
C      1  0.4396130000000  0.4357030000000  0.5695080000000 1.0
C      1  0.3899160000000  0.5037670000000  0.4943010000000 1.0
C      1  0.4284550000000  0.4659260000000  0.4868140000000 1.0
C      1  0.4565930000000  0.5336940000000  0.4883330000000 1.0
C      1  0.4928960000000  0.3918590000000  0.4983430000000 1.0
C      1  0.5667900000000  0.4095490000000  0.4720440000000 1.0
C      1  0.5036240000000  0.4864900000000  0.4342690000000 1.0
C      1  0.5997730000000  0.5325490000000  0.5485090000000 1.0
C      1  0.3971440000000  0.4643370000000  0.5203110000000 1.0
C      1  0.5846290000000  0.4314720000000  0.4687910000000 1.0
C      1  0.5772740000000  0.4634750000000  0.5681100000000 1.0
C      1  0.4040220000000  0.5423820000000  0.4763130000000 1.0
C      1  0.4982390000000  0.5249850000000  0.5538610000000 1.0
C      1  0.4730510000000  0.5274780000000  0.5916600000000 1.0
C      1  0.5369390000000  0.5636910000000  0.5687250000000 1.0
C      1  0.4644630000000  0.5005320000000  0.5795770000000 1.0
C      1  0.4460040000000  0.4598830000000  0.4006110000000 1.0
C      1  0.5728510000000  0.5231000000000  0.4689770000000 1.0
C      1  0.4479830000000  0.3948670000000  0.4827600000000 1.0
C      1  0.4973340000000  0.4975080000000  0.5360520000000 1.0
C      1  0.5336220000000  0.5578890000000  0.4391150000000 1.0
C      1  0.5568400000000  0.6009150000000  0.4699520000000 1.0
C      1  0.4509860000000  0.5517170000000  0.5848010000000 1.0
C      1  0.5778290000000  0.4644410000000  0.4640000000000 1.0
C      1  0.4685820000000  0.4153910000000  0.4554280000000 1.0
C      1  0.4138600000000  0.5344530000000  0.4447480000000 1.0
C      1  0.3927020000000  0.5131390000000  0.5391150000000 1.0
C      1  0.5037080000000  0.4211590000000  0.4208530000000 1.0
C      1  0.4961590000000  0.5913480000000  0.5282750000000 1.0
C      1  0.5868030000000  0.5357550000000  0.5231820000000 1.0
END
