TITL C-2847946-5639-277 -6.11221609157182e-05 125000 -296.989729394588 0 0 56 (C1) n - 1
REM
REM in /home/bkarasulu/work/CARBON/AIRSS/Generating-Clusters/AIREBO/with-SteepDescent/Only-C1/SD-CG-opt/Try1-1.4A-POS3A/HFTN-CG
REM
REM
REM
REM
REM
REM ./C.cell (11c1c37f851c82e70ff6c80c92926a4b)
REM
REM compiler GCC version 9.2.1 20190827 (Red Hat 9.2.1-1)
REM options -cpp -mtune=generic -march=x86-64 -g -O0 -fpre-include=/usr/include/finclude/math-vector-fortran.h
REM seed -1942491005 63451944 374217322 -362424730 396779443 704441156 1383757824 -339350243 -207956249 -1102182991 643519299 688542633 -151963939 1986442445 -284363151 -977887934 -281698657 -1384135898 -331650999 -533576612 1152920109 -543894656 -1817151653 233468239 -2099088182 -1436871912 -958401909 -1846641746 -2072457403 -1420720365 -1190010726 -1412139632 -1824258989
REM
CELL 1.54180   50.00000   50.00000   50.00000   90.00000   90.00000   90.00000
LATT -1
SFAC C  
C      1  0.4382910000000  0.5205280000000  0.5207530000000 1.0
C      1  0.5054400000000  0.4912380000000  0.4569310000000 1.0
C      1  0.5397000000000  0.5429570000000  0.4824790000000 1.0
C      1  0.4621720000000  0.4477450000000  0.4739320000000 1.0
C      1  0.4856690000000  0.4654750000000  0.5332850000000 1.0
C      1  0.5175980000000  0.4913280000000  0.5172680000000 1.0
C      1  0.5386850000000  0.5040120000000  0.5464280000000 1.0
C      1  0.5176360000000  0.5745920000000  0.5096120000000 1.0
C      1  0.4322120000000  0.5091450000000  0.4490780000000 1.0
C      1  0.5238520000000  0.5617530000000  0.5541570000000 1.0
C      1  0.5323480000000  0.4873340000000  0.4363890000000 1.0
C      1  0.4815120000000  0.5243170000000  0.4934950000000 1.0
C      1  0.5641440000000  0.4816500000000  0.4767900000000 1.0
C      1  0.4815500000000  0.4952950000000  0.4800500000000 1.0
C      1  0.5191920000000  0.4944180000000  0.5975360000000 1.0
C      1  0.4985680000000  0.4623960000000  0.4403140000000 1.0
C      1  0.5393470000000  0.4512650000000  0.5034170000000 1.0
C      1  0.4573570000000  0.4731060000000  0.5223360000000 1.0
C      1  0.5153050000000  0.4549370000000  0.5475130000000 1.0
C      1  0.4856570000000  0.5679060000000  0.4855060000000 1.0
C      1  0.4370370000000  0.4822550000000  0.4396240000000 1.0
C      1  0.4498290000000  0.5319210000000  0.4911100000000 1.0
C      1  0.5071830000000  0.5749520000000  0.5368520000000 1.0
C      1  0.4519720000000  0.5008700000000  0.5353880000000 1.0
C      1  0.5502290000000  0.4980890000000  0.5104770000000 1.0
C      1  0.4950770000000  0.4556040000000  0.4723160000000 1.0
C      1  0.5452490000000  0.4595940000000  0.4767110000000 1.0
C      1  0.5077970000000  0.4469210000000  0.5153240000000 1.0
C      1  0.4436300000000  0.5331470000000  0.4621760000000 1.0
C      1  0.4681860000000  0.5043910000000  0.4501360000000 1.0
C      1  0.5293290000000  0.5140050000000  0.4570740000000 1.0
C      1  0.5537970000000  0.5378040000000  0.5123170000000 1.0
C      1  0.4511820000000  0.5506780000000  0.5191900000000 1.0
C      1  0.4664510000000  0.4704290000000  0.4489450000000 1.0
C      1  0.5189280000000  0.4959150000000  0.5718410000000 1.0
C      1  0.5388570000000  0.4701080000000  0.5490150000000 1.0
C      1  0.4870900000000  0.4247090000000  0.4789720000000 1.0
C      1  0.5176910000000  0.5431850000000  0.4564650000000 1.0
C      1  0.4803710000000  0.5640530000000  0.5188890000000 1.0
C      1  0.4516190000000  0.4458260000000  0.5051480000000 1.0
C      1  0.4909750000000  0.4212910000000  0.5078630000000 1.0
C      1  0.4862730000000  0.5327330000000  0.5259290000000 1.0
C      1  0.4767240000000  0.5115110000000  0.5444950000000 1.0
C      1  0.5087910000000  0.5450090000000  0.4953690000000 1.0
C      1  0.4914450000000  0.5520260000000  0.4600300000000 1.0
C      1  0.5769340000000  0.5190870000000  0.5118750000000 1.0
C      1  0.5299180000000  0.4598720000000  0.4532490000000 1.0
C      1  0.4563600000000  0.4828770000000  0.4917500000000 1.0
C      1  0.5031600000000  0.4748180000000  0.4964180000000 1.0
C      1  0.5512500000000  0.4694150000000  0.5222260000000 1.0
C      1  0.4634140000000  0.4234000000000  0.5172240000000 1.0
C      1  0.5509280000000  0.5111320000000  0.4804770000000 1.0
C      1  0.5005360000000  0.4920450000000  0.5468100000000 1.0
C      1  0.5382890000000  0.5366970000000  0.5421610000000 1.0
C      1  0.4701020000000  0.5381230000000  0.4480310000000 1.0
C      1  0.5171570000000  0.5241130000000  0.5208540000000 1.0
END
