TITL C-2848500-1637-126 0.000133081507859587 125000 -199.267726508251 0 0 36 (C1) n - 1
REM
REM in /home/bkarasulu/work/CARBON/AIRSS/Generating-Clusters/AIREBO/with-SteepDescent/Only-C1/SD-CG-opt/Try1-1.4A-POS3A/HFTN-CG
REM
REM
REM
REM
REM
REM ./C.cell (11c1c37f851c82e70ff6c80c92926a4b)
REM
REM compiler GCC version 9.2.1 20190827 (Red Hat 9.2.1-1)
REM options -cpp -mtune=generic -march=x86-64 -g -O0 -fpre-include=/usr/include/finclude/math-vector-fortran.h
REM seed 1733192039 -473788809 1257675703 1941522444 -1022290282 -809126437 -2124103425 -1034119526 -370047658 1651029113 751723833 -1303928035 -1917713515 -721089551 822103868 -1141648501 2081797840 359745938 -269251804 217495364 335799022 -1395744391 -1666677069 862413835 -2112315440 -81262177 -1982611729 1636522245 73465182 632363723 -1851004590 -347495750 1453254818
REM
CELL 1.54180   50.00000   50.00000   50.00000   90.00000   90.00000   90.00000
LATT -1
SFAC C  
C      1  0.5278070000000  0.4919640000000  0.5655830000000 1.0
C      1  0.4927640000000  0.4431260000000  0.5234920000000 1.0
C      1  0.4370310000000  0.5126970000000  0.4767880000000 1.0
C      1  0.5197340000000  0.5372250000000  0.5147410000000 1.0
C      1  0.5796770000000  0.5462810000000  0.4389210000000 1.0
C      1  0.4831270000000  0.4859480000000  0.5878940000000 1.0
C      1  0.5007040000000  0.4900230000000  0.4997630000000 1.0
C      1  0.5361890000000  0.5228270000000  0.4676190000000 1.0
C      1  0.5125680000000  0.5611790000000  0.5257740000000 1.0
C      1  0.4710970000000  0.4200480000000  0.4905940000000 1.0
C      1  0.5426840000000  0.5226220000000  0.4980340000000 1.0
C      1  0.4941390000000  0.5204930000000  0.5042010000000 1.0
C      1  0.4464780000000  0.4844740000000  0.5510730000000 1.0
C      1  0.5062360000000  0.4840090000000  0.4689790000000 1.0
C      1  0.4732370000000  0.4882930000000  0.4629230000000 1.0
C      1  0.5093390000000  0.5389640000000  0.4620050000000 1.0
C      1  0.5587580000000  0.5364590000000  0.4516810000000 1.0
C      1  0.5497950000000  0.4796900000000  0.4472730000000 1.0
C      1  0.4750330000000  0.5487260000000  0.5039530000000 1.0
C      1  0.4625240000000  0.5128110000000  0.4645950000000 1.0
C      1  0.4337650000000  0.5004050000000  0.5011870000000 1.0
C      1  0.5278280000000  0.4982920000000  0.5135700000000 1.0
C      1  0.4659170000000  0.3948020000000  0.4953600000000 1.0
C      1  0.4801690000000  0.4687070000000  0.5093540000000 1.0
C      1  0.4609350000000  0.4807350000000  0.5734290000000 1.0
C      1  0.4816510000000  0.5328860000000  0.4755900000000 1.0
C      1  0.4851870000000  0.4595140000000  0.4621450000000 1.0
C      1  0.5312040000000  0.4943660000000  0.4582330000000 1.0
C      1  0.5988930000000  0.5564190000000  0.4242600000000 1.0
C      1  0.4544960000000  0.4792630000000  0.5185530000000 1.0
C      1  0.4864090000000  0.5684120000000  0.5189370000000 1.0
C      1  0.4239950000000  0.4903100000000  0.5294720000000 1.0
C      1  0.5100270000000  0.4846040000000  0.5846330000000 1.0
C      1  0.5696700000000  0.5258900000000  0.5043900000000 1.0
C      1  0.4790740000000  0.4456880000000  0.4860120000000 1.0
C      1  0.5318610000000  0.4918460000000  0.5389900000000 1.0
END
