TITL C-2848506-1665-559 -0.0108775021954247 125000 -698.108387094866 0 0 129 (C1) n - 1
REM
REM in /home/bkarasulu/work/CARBON/AIRSS/Generating-Clusters/AIREBO/with-SteepDescent/Only-C1/SD-CG-opt/Try1-1.4A-POS3A/HFTN-CG
REM
REM
REM
REM
REM
REM ./C.cell (11c1c37f851c82e70ff6c80c92926a4b)
REM
REM compiler GCC version 9.2.1 20190827 (Red Hat 9.2.1-1)
REM options -cpp -mtune=generic -march=x86-64 -g -O0 -fpre-include=/usr/include/finclude/math-vector-fortran.h
REM seed 1874415646 -550075682 -1133428284 -1953275155 395081062 -28724488 -2085909315 -436928517 -672439598 1762450575 -465320742 1781003409 1495414476 1778375746 -66028950 -1083998338 -108629097 -132366155 -1097273496 -531461598 -1623721738 569961234 228963043 1660702202 -370619603 1123568197 242472576 -1099610154 -302234166 2135381052 1107844701 -1321506009 -1652808340
REM
CELL 1.54180   50.00000   50.00000   50.00000   90.00000   90.00000   90.00000
LATT -1
SFAC C  
C      1  0.5128730000000  0.5182310000000  0.4172950000000 1.0
C      1  0.5807480000000  0.5902600000000  0.5381510000000 1.0
C      1  0.4370340000000  0.4596390000000  0.4309630000000 1.0
C      1  0.5230640000000  0.4322300000000  0.5456280000000 1.0
C      1  0.4500630000000  0.4747780000000  0.4032950000000 1.0
C      1  0.4155260000000  0.4563880000000  0.4742610000000 1.0
C      1  0.4306480000000  0.4959050000000  0.5434780000000 1.0
C      1  0.4226630000000  0.4693460000000  0.5563990000000 1.0
C      1  0.4777690000000  0.5054660000000  0.5616020000000 1.0
C      1  0.4438330000000  0.4392330000000  0.4829350000000 1.0
C      1  0.5100480000000  0.4986480000000  0.4538530000000 1.0
C      1  0.4551670000000  0.5233710000000  0.4775960000000 1.0
C      1  0.5865960000000  0.4055670000000  0.4847170000000 1.0
C      1  0.4956500000000  0.4119750000000  0.5455820000000 1.0
C      1  0.4798270000000  0.5985950000000  0.4849550000000 1.0
C      1  0.5719350000000  0.5485330000000  0.4799730000000 1.0
C      1  0.4951330000000  0.4884440000000  0.5442820000000 1.0
C      1  0.5039690000000  0.5493610000000  0.4839630000000 1.0
C      1  0.4837870000000  0.5315010000000  0.4039830000000 1.0
C      1  0.4508130000000  0.5443360000000  0.4439800000000 1.0
C      1  0.5116800000000  0.4574470000000  0.5767540000000 1.0
C      1  0.4794640000000  0.4222680000000  0.5694340000000 1.0
C      1  0.5456280000000  0.5636950000000  0.4497640000000 1.0
C      1  0.5712370000000  0.5302320000000  0.5655070000000 1.0
C      1  0.5409980000000  0.4954810000000  0.5776410000000 1.0
C      1  0.5729250000000  0.4398170000000  0.5760230000000 1.0
C      1  0.5469680000000  0.5264790000000  0.5803740000000 1.0
C      1  0.4778900000000  0.4524960000000  0.4667130000000 1.0
C      1  0.5900390000000  0.4691930000000  0.5753260000000 1.0
C      1  0.5706550000000  0.4270230000000  0.4908670000000 1.0
C      1  0.4779260000000  0.5055660000000  0.4596630000000 1.0
C      1  0.4552880000000  0.4613640000000  0.5196710000000 1.0
C      1  0.4520080000000  0.5153160000000  0.5571690000000 1.0
C      1  0.5344570000000  0.4943330000000  0.4134880000000 1.0
C      1  0.4729420000000  0.5546510000000  0.5749980000000 1.0
C      1  0.5009050000000  0.4099660000000  0.4728170000000 1.0
C      1  0.5713960000000  0.4765950000000  0.4459460000000 1.0
C      1  0.4185930000000  0.5488540000000  0.5005390000000 1.0
C      1  0.5164020000000  0.4327180000000  0.5136300000000 1.0
C      1  0.5461340000000  0.5157480000000  0.4523890000000 1.0
C      1  0.4596400000000  0.5850110000000  0.4983590000000 1.0
C      1  0.6262470000000  0.5355710000000  0.4743280000000 1.0
C      1  0.4830150000000  0.5673150000000  0.4410970000000 1.0
C      1  0.5240080000000  0.5984580000000  0.5013070000000 1.0
C      1  0.4977520000000  0.5238660000000  0.5804930000000 1.0
C      1  0.5260530000000  0.4300290000000  0.4639960000000 1.0
C      1  0.4230400000000  0.5880750000000  0.4542740000000 1.0
C      1  0.5268570000000  0.4004190000000  0.5116430000000 1.0
C      1  0.5242650000000  0.5413260000000  0.5770720000000 1.0
C      1  0.5476390000000  0.6127730000000  0.5132600000000 1.0
C      1  0.5273610000000  0.5381060000000  0.4363360000000 1.0
C      1  0.5290860000000  0.5368080000000  0.5145850000000 1.0
C      1  0.5295440000000  0.5787050000000  0.4757050000000 1.0
C      1  0.4822410000000  0.4991350000000  0.6220770000000 1.0
C      1  0.5293310000000  0.4613460000000  0.4768350000000 1.0
C      1  0.4603880000000  0.5068340000000  0.4001210000000 1.0
C      1  0.5735930000000  0.5277820000000  0.4563230000000 1.0
C      1  0.4477770000000  0.5545330000000  0.4890580000000 1.0
C      1  0.5295120000000  0.5739150000000  0.5407260000000 1.0
C      1  0.5145040000000  0.5672570000000  0.5109370000000 1.0
C      1  0.4824990000000  0.5055660000000  0.4259430000000 1.0
C      1  0.5895920000000  0.4490860000000  0.5478680000000 1.0
C      1  0.5722670000000  0.4731550000000  0.4757200000000 1.0
C      1  0.5410790000000  0.4232990000000  0.4920070000000 1.0
C      1  0.5256090000000  0.4708750000000  0.5071630000000 1.0
C      1  0.5132360000000  0.4346960000000  0.4348100000000 1.0
C      1  0.4719360000000  0.5411070000000  0.5088780000000 1.0
C      1  0.4410700000000  0.4990960000000  0.4261240000000 1.0
C      1  0.4252240000000  0.4520570000000  0.5065620000000 1.0
C      1  0.6002690000000  0.5362250000000  0.4718870000000 1.0
C      1  0.4779300000000  0.5452010000000  0.4648860000000 1.0
C      1  0.4854730000000  0.4457160000000  0.5193070000000 1.0
C      1  0.4134660000000  0.4858890000000  0.4840210000000 1.0
C      1  0.5237030000000  0.5008480000000  0.4911460000000 1.0
C      1  0.4318340000000  0.4464030000000  0.5382350000000 1.0
C      1  0.4983350000000  0.5005240000000  0.6001670000000 1.0
C      1  0.4685570000000  0.4521340000000  0.4206520000000 1.0
C      1  0.4876520000000  0.5605060000000  0.5278650000000 1.0
C      1  0.4494000000000  0.5433840000000  0.5612740000000 1.0
C      1  0.5155460000000  0.4644140000000  0.5375670000000 1.0
C      1  0.4937040000000  0.5759230000000  0.5757460000000 1.0
C      1  0.4574940000000  0.4121600000000  0.4894740000000 1.0
C      1  0.4931060000000  0.5408060000000  0.5513790000000 1.0
C      1  0.4839340000000  0.4301430000000  0.4340630000000 1.0
C      1  0.4573380000000  0.4930460000000  0.5231680000000 1.0
C      1  0.4885160000000  0.4505350000000  0.5528440000000 1.0
C      1  0.4311020000000  0.5209640000000  0.4435010000000 1.0
C      1  0.5151460000000  0.5696790000000  0.4395380000000 1.0
C      1  0.4585740000000  0.4809410000000  0.4463990000000 1.0
C      1  0.5807250000000  0.4528780000000  0.4939650000000 1.0
C      1  0.4480100000000  0.4177740000000  0.5375180000000 1.0
C      1  0.4147010000000  0.5142790000000  0.4653470000000 1.0
C      1  0.4073410000000  0.4668300000000  0.5772810000000 1.0
C      1  0.5164680000000  0.4819340000000  0.5904930000000 1.0
C      1  0.4896830000000  0.4752520000000  0.4170360000000 1.0
C      1  0.4688230000000  0.5541580000000  0.4168610000000 1.0
C      1  0.5094010000000  0.5172050000000  0.5330810000000 1.0
C      1  0.5191450000000  0.5670310000000  0.5665350000000 1.0
C      1  0.4875990000000  0.4661760000000  0.4939540000000 1.0
C      1  0.4973290000000  0.5839460000000  0.4650470000000 1.0
C      1  0.5618300000000  0.4925330000000  0.4202840000000 1.0
C      1  0.5560050000000  0.4697520000000  0.5753840000000 1.0
C      1  0.4382820000000  0.5681480000000  0.4599890000000 1.0
C      1  0.4402290000000  0.5624430000000  0.5418520000000 1.0
C      1  0.4164980000000  0.5003790000000  0.5148840000000 1.0
C      1  0.5787880000000  0.4643320000000  0.5214240000000 1.0
C      1  0.5384800000000  0.5036980000000  0.5447160000000 1.0
C      1  0.5436000000000  0.5523050000000  0.4880120000000 1.0
C      1  0.5204470000000  0.4671590000000  0.4276800000000 1.0
C      1  0.4976900000000  0.6148370000000  0.4984880000000 1.0
C      1  0.4817370000000  0.5119190000000  0.5139990000000 1.0
C      1  0.5557870000000  0.4903820000000  0.4906240000000 1.0
C      1  0.5554350000000  0.5835790000000  0.5394460000000 1.0
C      1  0.4997210000000  0.3995010000000  0.4990230000000 1.0
C      1  0.4525520000000  0.4713070000000  0.4757770000000 1.0
C      1  0.5266930000000  0.5273080000000  0.4759600000000 1.0
C      1  0.4741480000000  0.4222260000000  0.4631650000000 1.0
C      1  0.4755960000000  0.4132590000000  0.5181450000000 1.0
C      1  0.4094420000000  0.5240660000000  0.4939910000000 1.0
C      1  0.4442290000000  0.4978910000000  0.4921720000000 1.0
C      1  0.5869550000000  0.4856010000000  0.5459150000000 1.0
C      1  0.5391690000000  0.4824630000000  0.4516140000000 1.0
C      1  0.5032690000000  0.4660830000000  0.4573780000000 1.0
C      1  0.4918130000000  0.4958320000000  0.4891600000000 1.0
C      1  0.5394350000000  0.4412700000000  0.5704630000000 1.0
C      1  0.5713140000000  0.5099530000000  0.5460750000000 1.0
C      1  0.4599640000000  0.5751530000000  0.5258120000000 1.0
C      1  0.5514480000000  0.4836370000000  0.5234600000000 1.0
C      1  0.4140920000000  0.4528330000000  0.4456610000000 1.0
END
