TITL C-2848500-1637-503 0.000875471623890809 125000 -1006.31896008028 0 0 188 (C1) n - 1
REM
REM in /home/bkarasulu/work/CARBON/AIRSS/Generating-Clusters/AIREBO/with-SteepDescent/Only-C1/SD-CG-opt/Try1-1.4A-POS3A/HFTN-CG
REM
REM
REM
REM
REM
REM ./C.cell (11c1c37f851c82e70ff6c80c92926a4b)
REM
REM compiler GCC version 9.2.1 20190827 (Red Hat 9.2.1-1)
REM options -cpp -mtune=generic -march=x86-64 -g -O0 -fpre-include=/usr/include/finclude/math-vector-fortran.h
REM seed 844452313 -1353303138 2038218322 169196973 -1030749987 -1148379224 -1890529130 1750392575 -1321648892 1561869135 485311052 -1189423608 1475403112 1708715227 -1707776938 -2090393110 723770228 -48999090 -2013904008 -422681756 -1699222394 -1943493547 -1774431311 -1597071584 521252220 -273376310 1650439628 613054474 1165926713 -147237995 1468377047 -2143590229 -13983941
REM
CELL 1.54180   50.00000   50.00000   50.00000   90.00000   90.00000   90.00000
LATT -1
SFAC C  
C      1  0.5296490000000  0.5216780000000  0.5730390000000 1.0
C      1  0.5699150000000  0.4400770000000  0.5276340000000 1.0
C      1  0.4507940000000  0.4896990000000  0.5110940000000 1.0
C      1  0.4669090000000  0.4826430000000  0.4258990000000 1.0
C      1  0.5684380000000  0.4894440000000  0.4901180000000 1.0
C      1  0.5063730000000  0.5365750000000  0.6017880000000 1.0
C      1  0.4357930000000  0.5664260000000  0.5147130000000 1.0
C      1  0.5927590000000  0.5428870000000  0.5487940000000 1.0
C      1  0.4444340000000  0.5617550000000  0.5650280000000 1.0
C      1  0.4908730000000  0.4695690000000  0.4379140000000 1.0
C      1  0.4040850000000  0.5147780000000  0.4396320000000 1.0
C      1  0.4489450000000  0.5410860000000  0.4100220000000 1.0
C      1  0.4292030000000  0.5269420000000  0.5768300000000 1.0
C      1  0.4286580000000  0.4958500000000  0.4786810000000 1.0
C      1  0.5658710000000  0.5888240000000  0.4912210000000 1.0
C      1  0.5739090000000  0.5734210000000  0.4378900000000 1.0
C      1  0.5034710000000  0.5732400000000  0.4623950000000 1.0
C      1  0.5646770000000  0.5262850000000  0.5447820000000 1.0
C      1  0.5563160000000  0.4977820000000  0.4229900000000 1.0
C      1  0.4617470000000  0.5345590000000  0.5703540000000 1.0
C      1  0.5106650000000  0.5801640000000  0.4326680000000 1.0
C      1  0.5228470000000  0.5371050000000  0.4052970000000 1.0
C      1  0.5302480000000  0.5208330000000  0.6133980000000 1.0
C      1  0.5132880000000  0.5990030000000  0.5361940000000 1.0
C      1  0.5224200000000  0.4896930000000  0.6135580000000 1.0
C      1  0.6087110000000  0.5019670000000  0.5029340000000 1.0
C      1  0.4653290000000  0.4846570000000  0.5595300000000 1.0
C      1  0.6189730000000  0.5274460000000  0.4984170000000 1.0
C      1  0.4629280000000  0.6062540000000  0.5395610000000 1.0
C      1  0.4890780000000  0.6089160000000  0.4890870000000 1.0
C      1  0.4609790000000  0.5603330000000  0.4954820000000 1.0
C      1  0.4207660000000  0.5921520000000  0.4786970000000 1.0
C      1  0.5533120000000  0.4455680000000  0.4252860000000 1.0
C      1  0.5611980000000  0.4801360000000  0.5405610000000 1.0
C      1  0.4361040000000  0.4519140000000  0.4890110000000 1.0
C      1  0.5480140000000  0.5453810000000  0.4217070000000 1.0
C      1  0.5797510000000  0.4842530000000  0.5769230000000 1.0
C      1  0.5102780000000  0.5972820000000  0.5648570000000 1.0
C      1  0.4994990000000  0.4160460000000  0.4499550000000 1.0
C      1  0.4680990000000  0.4868170000000  0.3934080000000 1.0
C      1  0.5249420000000  0.4781000000000  0.4794930000000 1.0
C      1  0.4502900000000  0.5825710000000  0.4720850000000 1.0
C      1  0.5068290000000  0.4036160000000  0.5571350000000 1.0
C      1  0.5277920000000  0.5523860000000  0.5056220000000 1.0
C      1  0.3968480000000  0.5533640000000  0.5081780000000 1.0
C      1  0.4827940000000  0.3906090000000  0.5516030000000 1.0
C      1  0.5642430000000  0.4666590000000  0.4651900000000 1.0
C      1  0.5467390000000  0.5168740000000  0.4494940000000 1.0
C      1  0.5552950000000  0.5359440000000  0.4951840000000 1.0
C      1  0.4943250000000  0.5565150000000  0.5011490000000 1.0
C      1  0.5008920000000  0.5497290000000  0.4242540000000 1.0
C      1  0.5984020000000  0.4601440000000  0.4848300000000 1.0
C      1  0.4036580000000  0.4856820000000  0.5459630000000 1.0
C      1  0.5550760000000  0.4232820000000  0.4444830000000 1.0
C      1  0.5038820000000  0.4124000000000  0.5183300000000 1.0
C      1  0.4443000000000  0.5512360000000  0.4603100000000 1.0
C      1  0.5360260000000  0.4737570000000  0.4476330000000 1.0
C      1  0.5147360000000  0.5457050000000  0.4754120000000 1.0
C      1  0.4461560000000  0.4587950000000  0.5359620000000 1.0
C      1  0.5604980000000  0.5912360000000  0.5412870000000 1.0
C      1  0.5027800000000  0.5097090000000  0.4070360000000 1.0
C      1  0.5223230000000  0.4454160000000  0.4357430000000 1.0
C      1  0.5068840000000  0.5191500000000  0.4951540000000 1.0
C      1  0.4571960000000  0.4774050000000  0.4799500000000 1.0
C      1  0.5414850000000  0.5500630000000  0.4547620000000 1.0
C      1  0.6077080000000  0.5575380000000  0.5315780000000 1.0
C      1  0.4110330000000  0.5769380000000  0.4991560000000 1.0
C      1  0.5403150000000  0.4025280000000  0.5053470000000 1.0
C      1  0.5718990000000  0.5131850000000  0.5142260000000 1.0
C      1  0.5389140000000  0.5040950000000  0.5454440000000 1.0
C      1  0.4402230000000  0.4256680000000  0.5318730000000 1.0
C      1  0.6141680000000  0.5465820000000  0.4793930000000 1.0
C      1  0.4605340000000  0.4054260000000  0.4853470000000 1.0
C      1  0.4597750000000  0.4105680000000  0.5544020000000 1.0
C      1  0.4834210000000  0.5737940000000  0.5284690000000 1.0
C      1  0.5959400000000  0.4996430000000  0.4560320000000 1.0
C      1  0.4724210000000  0.6023870000000  0.4660400000000 1.0
C      1  0.4828690000000  0.4996090000000  0.4821540000000 1.0
C      1  0.5952620000000  0.5730520000000  0.5122380000000 1.0
C      1  0.4743230000000  0.5503450000000  0.4056000000000 1.0
C      1  0.5989640000000  0.4803110000000  0.5574830000000 1.0
C      1  0.3969270000000  0.5170770000000  0.4693050000000 1.0
C      1  0.5516150000000  0.4680330000000  0.4071940000000 1.0
C      1  0.5783440000000  0.4819150000000  0.4416700000000 1.0
C      1  0.3889840000000  0.4635810000000  0.4815900000000 1.0
C      1  0.4076830000000  0.4476840000000  0.5015050000000 1.0
C      1  0.4624260000000  0.5187460000000  0.5180490000000 1.0
C      1  0.4270550000000  0.5298240000000  0.4786830000000 1.0
C      1  0.5551300000000  0.4628670000000  0.5831280000000 1.0
C      1  0.4892790000000  0.4681550000000  0.3855860000000 1.0
C      1  0.4908310000000  0.5287470000000  0.5729230000000 1.0
C      1  0.4285890000000  0.3979590000000  0.4912950000000 1.0
C      1  0.4782660000000  0.3741930000000  0.5289640000000 1.0
C      1  0.4517920000000  0.4313030000000  0.4245930000000 1.0
C      1  0.4854440000000  0.6014820000000  0.4410060000000 1.0
C      1  0.3960650000000  0.5214920000000  0.5024580000000 1.0
C      1  0.5694740000000  0.4339440000000  0.4733820000000 1.0
C      1  0.4835570000000  0.4369530000000  0.4316090000000 1.0
C      1  0.5688820000000  0.4200280000000  0.5044250000000 1.0
C      1  0.4349880000000  0.5520240000000  0.4305260000000 1.0
C      1  0.5357020000000  0.5082660000000  0.3980630000000 1.0
C      1  0.4953110000000  0.5152580000000  0.5261150000000 1.0
C      1  0.5021300000000  0.4465460000000  0.5908320000000 1.0
C      1  0.4754160000000  0.5137720000000  0.4217150000000 1.0
C      1  0.3848090000000  0.5052420000000  0.5301460000000 1.0
C      1  0.4827210000000  0.4270640000000  0.5354920000000 1.0
C      1  0.4942740000000  0.4965120000000  0.5673090000000 1.0
C      1  0.4534230000000  0.5129790000000  0.5486000000000 1.0
C      1  0.4187810000000  0.4673290000000  0.5238650000000 1.0
C      1  0.4104010000000  0.5420130000000  0.5335800000000 1.0
C      1  0.4849400000000  0.5124050000000  0.6089510000000 1.0
C      1  0.5301970000000  0.3996070000000  0.5356480000000 1.0
C      1  0.5424990000000  0.5071530000000  0.4818090000000 1.0
C      1  0.4574670000000  0.4332730000000  0.5035570000000 1.0
C      1  0.5113610000000  0.3891610000000  0.4946290000000 1.0
C      1  0.4452220000000  0.5095060000000  0.4066460000000 1.0
C      1  0.5790610000000  0.5970560000000  0.5211360000000 1.0
C      1  0.4929730000000  0.4847900000000  0.5972640000000 1.0
C      1  0.5031840000000  0.4464550000000  0.4077680000000 1.0
C      1  0.5211860000000  0.5541570000000  0.5784920000000 1.0
C      1  0.4961200000000  0.4995320000000  0.4527600000000 1.0
C      1  0.4774360000000  0.4501340000000  0.4817590000000 1.0
C      1  0.5347110000000  0.5777460000000  0.5260440000000 1.0
C      1  0.5880760000000  0.5524550000000  0.4598200000000 1.0
C      1  0.4475990000000  0.4798380000000  0.4474180000000 1.0
C      1  0.4278240000000  0.4978150000000  0.5638000000000 1.0
C      1  0.5416700000000  0.5831190000000  0.4322930000000 1.0
C      1  0.5072290000000  0.4285890000000  0.5680860000000 1.0
C      1  0.5563640000000  0.5266170000000  0.6050590000000 1.0
C      1  0.5046580000000  0.4556400000000  0.4639830000000 1.0
C      1  0.4028290000000  0.4825190000000  0.4632360000000 1.0
C      1  0.4336550000000  0.5347730000000  0.5095880000000 1.0
C      1  0.4868910000000  0.6062590000000  0.5188810000000 1.0
C      1  0.4799500000000  0.3839660000000  0.5036040000000 1.0
C      1  0.4778950000000  0.5565520000000  0.4602350000000 1.0
C      1  0.4931180000000  0.4135480000000  0.4800130000000 1.0
C      1  0.5458500000000  0.4171560000000  0.5577130000000 1.0
C      1  0.6031100000000  0.4351650000000  0.4702690000000 1.0
C      1  0.5768460000000  0.5575700000000  0.4883670000000 1.0
C      1  0.4558180000000  0.4200700000000  0.4550150000000 1.0
C      1  0.5351210000000  0.5931540000000  0.4960890000000 1.0
C      1  0.5033690000000  0.4392070000000  0.5002880000000 1.0
C      1  0.5068100000000  0.5378440000000  0.5449320000000 1.0
C      1  0.4662600000000  0.5290470000000  0.4858520000000 1.0
C      1  0.5798750000000  0.5236620000000  0.4530810000000 1.0
C      1  0.4159630000000  0.4344260000000  0.5540330000000 1.0
C      1  0.4962120000000  0.5668400000000  0.5592060000000 1.0
C      1  0.5143230000000  0.5239840000000  0.4420320000000 1.0
C      1  0.4714740000000  0.4594640000000  0.5898210000000 1.0
C      1  0.5541360000000  0.5796330000000  0.4637330000000 1.0
C      1  0.4169470000000  0.4169690000000  0.5086650000000 1.0
C      1  0.5376200000000  0.4238490000000  0.4805060000000 1.0
C      1  0.4747750000000  0.5255680000000  0.4530260000000 1.0
C      1  0.5205380000000  0.4636890000000  0.5164880000000 1.0
C      1  0.4416320000000  0.4732540000000  0.5810820000000 1.0
C      1  0.5424850000000  0.4941480000000  0.5864680000000 1.0
C      1  0.6068530000000  0.4865740000000  0.4795490000000 1.0
C      1  0.4270140000000  0.4422090000000  0.4201820000000 1.0
C      1  0.5444060000000  0.5748020000000  0.5646570000000 1.0
C      1  0.5170900000000  0.4587920000000  0.5559200000000 1.0
C      1  0.4391490000000  0.4496060000000  0.4575650000000 1.0
C      1  0.5702400000000  0.5276140000000  0.4144720000000 1.0
C      1  0.5682850000000  0.5139920000000  0.5763020000000 1.0
C      1  0.5101360000000  0.4872830000000  0.5386770000000 1.0
C      1  0.4465340000000  0.3913040000000  0.4507390000000 1.0
C      1  0.5912570000000  0.4893720000000  0.5276010000000 1.0
C      1  0.4585190000000  0.4421540000000  0.5633560000000 1.0
C      1  0.4840150000000  0.4586550000000  0.5480630000000 1.0
C      1  0.4239450000000  0.4960910000000  0.4295280000000 1.0
C      1  0.5726630000000  0.4598080000000  0.5035820000000 1.0
C      1  0.5249210000000  0.4607930000000  0.5986650000000 1.0
C      1  0.4159500000000  0.4599980000000  0.5645830000000 1.0
C      1  0.5418120000000  0.4529910000000  0.4950210000000 1.0
C      1  0.4187060000000  0.4975650000000  0.5108840000000 1.0
C      1  0.4696620000000  0.5781920000000  0.5750850000000 1.0
C      1  0.5286000000000  0.4098480000000  0.4519590000000 1.0
C      1  0.5323110000000  0.5092660000000  0.5137140000000 1.0
C      1  0.4665600000000  0.6050640000000  0.5677800000000 1.0
C      1  0.5499970000000  0.4505870000000  0.5531100000000 1.0
C      1  0.4978640000000  0.4787360000000  0.5008120000000 1.0
C      1  0.5121180000000  0.5948740000000  0.4811870000000 1.0
C      1  0.5232250000000  0.4673620000000  0.3910490000000 1.0
C      1  0.5390430000000  0.5487250000000  0.5435070000000 1.0
C      1  0.4131450000000  0.4645570000000  0.4362590000000 1.0
C      1  0.4158710000000  0.5479030000000  0.5595400000000 1.0
C      1  0.4730680000000  0.4676860000000  0.5171600000000 1.0
C      1  0.5167250000000  0.4818250000000  0.4206090000000 1.0
C      1  0.4512690000000  0.5759560000000  0.5377540000000 1.0
END
