TITL C-2848509-3138-132 -0.00185348825771913 125000 -396.047412225625 0 0 71 (C1) n - 1
REM
REM in /home/bkarasulu/work/CARBON/AIRSS/Generating-Clusters/AIREBO/with-SteepDescent/Only-C1/SD-CG-opt/Try1-1.4A-POS3A/HFTN-CG
REM
REM
REM
REM
REM
REM ./C.cell (11c1c37f851c82e70ff6c80c92926a4b)
REM
REM compiler GCC version 9.2.1 20190827 (Red Hat 9.2.1-1)
REM options -cpp -mtune=generic -march=x86-64 -g -O0 -fpre-include=/usr/include/finclude/math-vector-fortran.h
REM seed 1669461468 486664518 467042289 700574019 -2037136596 -1675599713 809865375 1693013851 1933330556 1170237159 696691586 2128596762 460722134 1800258787 376095822 -179014204 759374962 148322476 -1388109351 -1085653956 -525509338 770316731 1675691461 67819123 1806258592 -144988871 -1354113571 2136054937 -598590227 761890560 -2007606594 526135381 1925745680
REM
CELL 1.54180   50.00000   50.00000   50.00000   90.00000   90.00000   90.00000
LATT -1
SFAC C  
C      1  0.4857450000000  0.5002900000000  0.4409100000000 1.0
C      1  0.4135750000000  0.5383490000000  0.5082070000000 1.0
C      1  0.4352550000000  0.4697180000000  0.5001610000000 1.0
C      1  0.4615840000000  0.4893050000000  0.5339120000000 1.0
C      1  0.4373770000000  0.5158540000000  0.4726270000000 1.0
C      1  0.5346540000000  0.4949300000000  0.4438530000000 1.0
C      1  0.5289670000000  0.4339200000000  0.5032460000000 1.0
C      1  0.4630700000000  0.4545840000000  0.4894710000000 1.0
C      1  0.5095600000000  0.4836090000000  0.4343730000000 1.0
C      1  0.5619580000000  0.4543000000000  0.5326870000000 1.0
C      1  0.4742890000000  0.4284350000000  0.5055730000000 1.0
C      1  0.4928150000000  0.5184500000000  0.4665330000000 1.0
C      1  0.5189890000000  0.4292310000000  0.4710700000000 1.0
C      1  0.5512100000000  0.5363550000000  0.5568610000000 1.0
C      1  0.4687090000000  0.4630690000000  0.5738960000000 1.0
C      1  0.4617710000000  0.4803390000000  0.4473150000000 1.0
C      1  0.5079900000000  0.5602030000000  0.5171220000000 1.0
C      1  0.5124360000000  0.5087120000000  0.5778840000000 1.0
C      1  0.4479780000000  0.4622390000000  0.5263440000000 1.0
C      1  0.5505020000000  0.4414080000000  0.4706820000000 1.0
C      1  0.4894980000000  0.4307610000000  0.4537460000000 1.0
C      1  0.5061570000000  0.4584700000000  0.4472130000000 1.0
C      1  0.5447050000000  0.4737250000000  0.4624650000000 1.0
C      1  0.4722310000000  0.5552690000000  0.5004740000000 1.0
C      1  0.4789810000000  0.5606910000000  0.4675840000000 1.0
C      1  0.4923650000000  0.5005830000000  0.5324390000000 1.0
C      1  0.4783440000000  0.5736090000000  0.5270050000000 1.0
C      1  0.4647650000000  0.4407560000000  0.5317100000000 1.0
C      1  0.4840820000000  0.4113070000000  0.4783970000000 1.0
C      1  0.5580100000000  0.5457910000000  0.5307870000000 1.0
C      1  0.5746100000000  0.5241900000000  0.5161390000000 1.0
C      1  0.5486870000000  0.5069760000000  0.5298450000000 1.0
C      1  0.4407360000000  0.5007910000000  0.4471080000000 1.0
C      1  0.4466510000000  0.5198520000000  0.4260840000000 1.0
C      1  0.5055010000000  0.4872330000000  0.5543180000000 1.0
C      1  0.4892200000000  0.5485020000000  0.4404160000000 1.0
C      1  0.4175260000000  0.5423090000000  0.4797210000000 1.0
C      1  0.5313950000000  0.5234410000000  0.4576410000000 1.0
C      1  0.4761790000000  0.5346600000000  0.5509720000000 1.0
C      1  0.4482980000000  0.5480180000000  0.4715760000000 1.0
C      1  0.5111540000000  0.5206530000000  0.5175660000000 1.0
C      1  0.5070620000000  0.4595560000000  0.5481190000000 1.0
C      1  0.4729250000000  0.4824650000000  0.5025940000000 1.0
C      1  0.5036010000000  0.4805780000000  0.4997410000000 1.0
C      1  0.4821350000000  0.4464880000000  0.5539220000000 1.0
C      1  0.4742160000000  0.5278170000000  0.4298680000000 1.0
C      1  0.4682510000000  0.4555390000000  0.4595270000000 1.0
C      1  0.4988310000000  0.5371680000000  0.4930260000000 1.0
C      1  0.4658420000000  0.4900160000000  0.5645500000000 1.0
C      1  0.5402570000000  0.5638700000000  0.5170310000000 1.0
C      1  0.5489620000000  0.5412330000000  0.4764800000000 1.0
C      1  0.5670340000000  0.4743870000000  0.4848020000000 1.0
C      1  0.5095670000000  0.5721790000000  0.4770810000000 1.0
C      1  0.5230250000000  0.5372070000000  0.5657190000000 1.0
C      1  0.4796410000000  0.5131610000000  0.5704060000000 1.0
C      1  0.5160570000000  0.5437910000000  0.4393840000000 1.0
C      1  0.5415250000000  0.5023960000000  0.5614340000000 1.0
C      1  0.5687770000000  0.4993430000000  0.4963300000000 1.0
C      1  0.5174150000000  0.4621350000000  0.4775710000000 1.0
C      1  0.5605770000000  0.4468950000000  0.5022820000000 1.0
C      1  0.4575740000000  0.5429780000000  0.5280990000000 1.0
C      1  0.5205640000000  0.4604190000000  0.5192230000000 1.0
C      1  0.5426600000000  0.4758640000000  0.5399710000000 1.0
C      1  0.5762180000000  0.5474750000000  0.4648380000000 1.0
C      1  0.5042700000000  0.4140680000000  0.5047190000000 1.0
C      1  0.5171860000000  0.5018040000000  0.4796970000000 1.0
C      1  0.5340630000000  0.5652140000000  0.4874600000000 1.0
C      1  0.5043320000000  0.5409230000000  0.5428190000000 1.0
C      1  0.4446750000000  0.5015950000000  0.4994900000000 1.0
C      1  0.4358880000000  0.5252330000000  0.5190640000000 1.0
C      1  0.5393450000000  0.5173140000000  0.4988240000000 1.0
END
