TITL C-2848494-1720-116 8.02894948329516e-05 125000 -177.79888858672 0 0 32 (C1) n - 1
REM
REM in /home/bkarasulu/work/CARBON/AIRSS/Generating-Clusters/AIREBO/with-SteepDescent/Only-C1/SD-CG-opt/Try1-1.4A-POS3A/HFTN-CG
REM
REM
REM
REM
REM
REM ./C.cell (11c1c37f851c82e70ff6c80c92926a4b)
REM
REM compiler GCC version 9.2.1 20190827 (Red Hat 9.2.1-1)
REM options -cpp -mtune=generic -march=x86-64 -g -O0 -fpre-include=/usr/include/finclude/math-vector-fortran.h
REM seed 761611508 -1624294670 -1621490963 -1929366383 1444208894 2019379951 -1297094872 1586779904 -121654973 -2127905388 60285066 729708170 -1267079292 -382222325 -1213573316 2113612343 -124930244 -1454989586 531294440 490663836 -1249602297 -1439721528 -1089914262 810804223 -1127150710 720189126 -1672756605 507626531 -2065726835 764462961 -1888494370 994322485 -1874077282
REM
CELL 1.54180   50.00000   50.00000   50.00000   90.00000   90.00000   90.00000
LATT -1
SFAC C  
C      1  0.4979150000000  0.5185190000000  0.4759100000000 1.0
C      1  0.5314750000000  0.5534720000000  0.5019350000000 1.0
C      1  0.5522510000000  0.4792940000000  0.4622390000000 1.0
C      1  0.5129730000000  0.4240480000000  0.4941600000000 1.0
C      1  0.5177690000000  0.5760550000000  0.4833700000000 1.0
C      1  0.4674370000000  0.5193070000000  0.4678450000000 1.0
C      1  0.5363470000000  0.4976820000000  0.4504220000000 1.0
C      1  0.5481040000000  0.4528310000000  0.5329990000000 1.0
C      1  0.4448460000000  0.4813500000000  0.4491390000000 1.0
C      1  0.5100480000000  0.5057390000000  0.4499420000000 1.0
C      1  0.5115270000000  0.4506310000000  0.5003040000000 1.0
C      1  0.4885620000000  0.4996220000000  0.4321870000000 1.0
C      1  0.4434950000000  0.5002720000000  0.5341690000000 1.0
C      1  0.4541730000000  0.5503060000000  0.5315170000000 1.0
C      1  0.4449210000000  0.4653360000000  0.4715630000000 1.0
C      1  0.5429050000000  0.5362350000000  0.5195810000000 1.0
C      1  0.5402700000000  0.5097470000000  0.5605790000000 1.0
C      1  0.4905660000000  0.4673270000000  0.4967370000000 1.0
C      1  0.4607330000000  0.4680480000000  0.4940000000000 1.0
C      1  0.5323450000000  0.5294600000000  0.5772950000000 1.0
C      1  0.4288970000000  0.4899740000000  0.5522950000000 1.0
C      1  0.5563330000000  0.4695370000000  0.4870260000000 1.0
C      1  0.4668410000000  0.4949810000000  0.5124160000000 1.0
C      1  0.5236530000000  0.4929810000000  0.5172400000000 1.0
C      1  0.4633430000000  0.5022900000000  0.4454810000000 1.0
C      1  0.5523210000000  0.4873870000000  0.5698100000000 1.0
C      1  0.4505500000000  0.5281160000000  0.4865510000000 1.0
C      1  0.5082970000000  0.5451680000000  0.4820010000000 1.0
C      1  0.4980150000000  0.4991920000000  0.5004030000000 1.0
C      1  0.5365010000000  0.4654140000000  0.5105430000000 1.0
C      1  0.4508120000000  0.5269920000000  0.5175140000000 1.0
C      1  0.5357750000000  0.5126890000000  0.5328250000000 1.0
END
