TITL C-2848507-1641-59 0.0010078672589381 125000 -674.143644612955 0 0 122 (C1) n - 1
REM
REM in /home/bkarasulu/work/CARBON/AIRSS/Generating-Clusters/AIREBO/with-SteepDescent/Only-C1/SD-CG-opt/Try1-1.4A-POS3A/HFTN-CG
REM
REM
REM
REM
REM
REM ./C.cell (11c1c37f851c82e70ff6c80c92926a4b)
REM
REM compiler GCC version 9.2.1 20190827 (Red Hat 9.2.1-1)
REM options -cpp -mtune=generic -march=x86-64 -g -O0 -fpre-include=/usr/include/finclude/math-vector-fortran.h
REM seed -1316314441 -1093156133 -775277870 656724734 -511388002 -936611660 896307374 192449803 404520831 -1519114706 775291377 403590123 1689623849 -1545995876 -2000842470 1331080143 -1092551375 -210976088 -650790996 1182484705 -1794468303 1068962963 -563088551 -1757164249 -880641094 -25814929 -22188878 122984065 1346574858 2097539591 -1855479913 106419415 548069072
REM
CELL 1.54180   50.00000   50.00000   50.00000   90.00000   90.00000   90.00000
LATT -1
SFAC C  
C      1  0.5867950000000  0.5224760000000  0.5186280000000 1.0
C      1  0.5389560000000  0.4379210000000  0.5372430000000 1.0
C      1  0.4525440000000  0.5247940000000  0.4954960000000 1.0
C      1  0.5501910000000  0.4992100000000  0.5032520000000 1.0
C      1  0.5521350000000  0.5515670000000  0.5391100000000 1.0
C      1  0.5293840000000  0.5876320000000  0.5096450000000 1.0
C      1  0.4314450000000  0.4576290000000  0.5612520000000 1.0
C      1  0.5739660000000  0.4707970000000  0.5173830000000 1.0
C      1  0.4997630000000  0.5324950000000  0.4112950000000 1.0
C      1  0.4889500000000  0.4680130000000  0.4517190000000 1.0
C      1  0.4666540000000  0.4959150000000  0.5354780000000 1.0
C      1  0.5053070000000  0.5839620000000  0.4390370000000 1.0
C      1  0.5152650000000  0.4612220000000  0.5590830000000 1.0
C      1  0.5594180000000  0.4701540000000  0.4881970000000 1.0
C      1  0.5442380000000  0.4934110000000  0.5538640000000 1.0
C      1  0.5277470000000  0.5192580000000  0.4648260000000 1.0
C      1  0.4719700000000  0.5185070000000  0.4250440000000 1.0
C      1  0.4840540000000  0.5737060000000  0.4247460000000 1.0
C      1  0.4780480000000  0.4233990000000  0.5810590000000 1.0
C      1  0.4669930000000  0.5520940000000  0.4230280000000 1.0
C      1  0.4757770000000  0.4533010000000  0.5929580000000 1.0
C      1  0.4065840000000  0.5703580000000  0.5054090000000 1.0
C      1  0.4984780000000  0.4083330000000  0.4658870000000 1.0
C      1  0.5353840000000  0.5424730000000  0.5856850000000 1.0
C      1  0.5395070000000  0.4741920000000  0.4539870000000 1.0
C      1  0.4303690000000  0.4985710000000  0.4032320000000 1.0
C      1  0.5526620000000  0.5209660000000  0.5926280000000 1.0
C      1  0.5079590000000  0.5407210000000  0.5988220000000 1.0
C      1  0.4879730000000  0.5020280000000  0.4507920000000 1.0
C      1  0.5977590000000  0.4830520000000  0.4530640000000 1.0
C      1  0.4199190000000  0.5185220000000  0.4453670000000 1.0
C      1  0.4925920000000  0.4501490000000  0.5003230000000 1.0
C      1  0.5024340000000  0.5268540000000  0.3847870000000 1.0
C      1  0.4715540000000  0.5810390000000  0.4822130000000 1.0
C      1  0.5342700000000  0.5551330000000  0.5603680000000 1.0
C      1  0.4387150000000  0.5286670000000  0.5518270000000 1.0
C      1  0.4453480000000  0.4136810000000  0.5484310000000 1.0
C      1  0.4892370000000  0.5027170000000  0.3796840000000 1.0
C      1  0.5047370000000  0.5515630000000  0.4610910000000 1.0
C      1  0.4458600000000  0.4215390000000  0.5082750000000 1.0
C      1  0.5646050000000  0.5508380000000  0.4827390000000 1.0
C      1  0.4482660000000  0.5575330000000  0.5613180000000 1.0
C      1  0.5147160000000  0.4583630000000  0.5249210000000 1.0
C      1  0.4301720000000  0.4367720000000  0.5431550000000 1.0
C      1  0.5194860000000  0.4636180000000  0.6126150000000 1.0
C      1  0.3970830000000  0.5308400000000  0.4378910000000 1.0
C      1  0.4536630000000  0.5561860000000  0.4873960000000 1.0
C      1  0.4397140000000  0.4769100000000  0.5131900000000 1.0
C      1  0.5155470000000  0.5114680000000  0.5234280000000 1.0
C      1  0.5560330000000  0.5111780000000  0.4538200000000 1.0
C      1  0.4835680000000  0.4987500000000  0.5659690000000 1.0
C      1  0.4704170000000  0.4669480000000  0.5459150000000 1.0
C      1  0.5509010000000  0.4954660000000  0.5842810000000 1.0
C      1  0.4768480000000  0.4240280000000  0.5096700000000 1.0
C      1  0.4690020000000  0.4741970000000  0.4956480000000 1.0
C      1  0.4407620000000  0.5698630000000  0.5843690000000 1.0
C      1  0.4259710000000  0.5055970000000  0.5045470000000 1.0
C      1  0.4525530000000  0.4967650000000  0.4762500000000 1.0
C      1  0.5848890000000  0.5238980000000  0.4876250000000 1.0
C      1  0.5549780000000  0.4654730000000  0.5404650000000 1.0
C      1  0.5677560000000  0.5016040000000  0.5304500000000 1.0
C      1  0.5006160000000  0.5348170000000  0.5675330000000 1.0
C      1  0.4919140000000  0.5230640000000  0.5019080000000 1.0
C      1  0.5559430000000  0.5190990000000  0.4254480000000 1.0
C      1  0.5314030000000  0.5625200000000  0.4430330000000 1.0
C      1  0.5136400000000  0.5083010000000  0.5541310000000 1.0
C      1  0.5244910000000  0.4213010000000  0.4481010000000 1.0
C      1  0.4498530000000  0.5714350000000  0.5324560000000 1.0
C      1  0.5526630000000  0.4898580000000  0.4196850000000 1.0
C      1  0.5631340000000  0.4213210000000  0.5195380000000 1.0
C      1  0.5380500000000  0.4208010000000  0.5013530000000 1.0
C      1  0.4358110000000  0.4859600000000  0.5457650000000 1.0
C      1  0.4246220000000  0.5110540000000  0.4708680000000 1.0
C      1  0.5177110000000  0.4132160000000  0.5275230000000 1.0
C      1  0.4682610000000  0.5230040000000  0.5244500000000 1.0
C      1  0.5722640000000  0.5485480000000  0.5161800000000 1.0
C      1  0.4270320000000  0.4485080000000  0.5140340000000 1.0
C      1  0.5351840000000  0.4680280000000  0.5857860000000 1.0
C      1  0.4923070000000  0.5999990000000  0.5013460000000 1.0
C      1  0.5486830000000  0.5729520000000  0.4680900000000 1.0
C      1  0.4725230000000  0.4196920000000  0.4786590000000 1.0
C      1  0.4501670000000  0.5046660000000  0.5703300000000 1.0
C      1  0.5306480000000  0.5909530000000  0.4823330000000 1.0
C      1  0.4599700000000  0.4653620000000  0.4640760000000 1.0
C      1  0.5078150000000  0.5257380000000  0.4411590000000 1.0
C      1  0.5214820000000  0.5604190000000  0.5153100000000 1.0
C      1  0.4393870000000  0.5120570000000  0.4257370000000 1.0
C      1  0.5047920000000  0.5922110000000  0.5326750000000 1.0
C      1  0.4731660000000  0.4121570000000  0.5553160000000 1.0
C      1  0.4918300000000  0.4963670000000  0.4836550000000 1.0
C      1  0.5369650000000  0.4454440000000  0.4814770000000 1.0
C      1  0.4283820000000  0.5297410000000  0.5266810000000 1.0
C      1  0.5217990000000  0.4838090000000  0.5083560000000 1.0
C      1  0.4514950000000  0.4362870000000  0.4684890000000 1.0
C      1  0.5289510000000  0.4758910000000  0.4155250000000 1.0
C      1  0.5453250000000  0.5266210000000  0.4891060000000 1.0
C      1  0.4823910000000  0.5430550000000  0.4766130000000 1.0
C      1  0.6229030000000  0.4790430000000  0.4514560000000 1.0
C      1  0.4756040000000  0.5785770000000  0.5218010000000 1.0
C      1  0.4922820000000  0.4296380000000  0.4410910000000 1.0
C      1  0.4856230000000  0.4441010000000  0.4186420000000 1.0
C      1  0.5006700000000  0.5904280000000  0.4694270000000 1.0
C      1  0.5493110000000  0.5464540000000  0.4225160000000 1.0
C      1  0.4971360000000  0.4732910000000  0.4191300000000 1.0
C      1  0.4805700000000  0.4930670000000  0.4041870000000 1.0
C      1  0.4505020000000  0.4721250000000  0.5801930000000 1.0
C      1  0.5591550000000  0.4465360000000  0.4562800000000 1.0
C      1  0.4306060000000  0.5577910000000  0.5119240000000 1.0
C      1  0.4945160000000  0.5552180000000  0.5125450000000 1.0
C      1  0.4883880000000  0.4673190000000  0.5685130000000 1.0
C      1  0.5239220000000  0.4893600000000  0.4748210000000 1.0
C      1  0.4948810000000  0.4597090000000  0.6163470000000 1.0
C      1  0.4906000000000  0.4122870000000  0.5327650000000 1.0
C      1  0.5029830000000  0.5641150000000  0.5504430000000 1.0
C      1  0.4752010000000  0.5443650000000  0.5471970000000 1.0
C      1  0.5371180000000  0.4377920000000  0.5707270000000 1.0
C      1  0.5052730000000  0.4437840000000  0.4691760000000 1.0
C      1  0.5352520000000  0.5337460000000  0.5165950000000 1.0
C      1  0.5259880000000  0.4502010000000  0.4347550000000 1.0
C      1  0.4266390000000  0.4332610000000  0.4841760000000 1.0
C      1  0.5707910000000  0.4734100000000  0.4400420000000 1.0
C      1  0.5755470000000  0.4958170000000  0.4726470000000 1.0
END
