TITL C-2848506-1665-415 0.000929613775568663 125000 -298.198217659921 0 0 53 (C1) n - 1
REM
REM in /home/bkarasulu/work/CARBON/AIRSS/Generating-Clusters/AIREBO/with-SteepDescent/Only-C1/SD-CG-opt/Try1-1.4A-POS3A/HFTN-CG
REM
REM
REM
REM
REM
REM ./C.cell (11c1c37f851c82e70ff6c80c92926a4b)
REM
REM compiler GCC version 9.2.1 20190827 (Red Hat 9.2.1-1)
REM options -cpp -mtune=generic -march=x86-64 -g -O0 -fpre-include=/usr/include/finclude/math-vector-fortran.h
REM seed 924365409 1896587646 -342576951 510551246 -1627049811 1451227798 970956606 1131326468 -1775126694 1637613988 -680266530 -1012864080 516605096 771997242 -1078574480 774399788 1624432959 -1664189578 313500679 -455095510 1565467910 685341668 -956132166 -1381739644 -722122655 1103127966 -1155384628 -841343623 1506046550 952021730 -324492311 313194899 -356809022
REM
CELL 1.54180   50.00000   50.00000   50.00000   90.00000   90.00000   90.00000
LATT -1
SFAC C  
C      1  0.5128320000000  0.4495780000000  0.4948970000000 1.0
C      1  0.4814440000000  0.5547460000000  0.5077530000000 1.0
C      1  0.4823900000000  0.4475130000000  0.5361600000000 1.0
C      1  0.4745560000000  0.4997550000000  0.4486300000000 1.0
C      1  0.5142150000000  0.5097390000000  0.4244930000000 1.0
C      1  0.5326840000000  0.4654730000000  0.5116530000000 1.0
C      1  0.4966530000000  0.4896030000000  0.4302620000000 1.0
C      1  0.5391950000000  0.5103570000000  0.5420080000000 1.0
C      1  0.5030180000000  0.4621890000000  0.5534900000000 1.0
C      1  0.5340540000000  0.5479650000000  0.5043980000000 1.0
C      1  0.5525420000000  0.4673590000000  0.5568210000000 1.0
C      1  0.5105360000000  0.4885690000000  0.4866600000000 1.0
C      1  0.4627900000000  0.4443680000000  0.4927250000000 1.0
C      1  0.5488970000000  0.5199690000000  0.5047070000000 1.0
C      1  0.4472580000000  0.5175010000000  0.4260690000000 1.0
C      1  0.4359750000000  0.4822590000000  0.5004110000000 1.0
C      1  0.4774370000000  0.4940180000000  0.5084040000000 1.0
C      1  0.4697320000000  0.5212160000000  0.4895020000000 1.0
C      1  0.5059880000000  0.5042800000000  0.5804610000000 1.0
C      1  0.4875260000000  0.5134120000000  0.5344450000000 1.0
C      1  0.4951310000000  0.5293370000000  0.4677790000000 1.0
C      1  0.5310140000000  0.4590080000000  0.5421560000000 1.0
C      1  0.5433260000000  0.5605860000000  0.4766270000000 1.0
C      1  0.4438230000000  0.4636390000000  0.4480630000000 1.0
C      1  0.4793690000000  0.4851390000000  0.4756220000000 1.0
C      1  0.4615710000000  0.4596660000000  0.4698850000000 1.0
C      1  0.4560290000000  0.5517060000000  0.4921080000000 1.0
C      1  0.4372700000000  0.5088820000000  0.5341050000000 1.0
C      1  0.4489470000000  0.4844170000000  0.5450510000000 1.0
C      1  0.5617780000000  0.4934910000000  0.5511100000000 1.0
C      1  0.5067420000000  0.5557930000000  0.5469950000000 1.0
C      1  0.5309040000000  0.4963980000000  0.4637570000000 1.0
C      1  0.4511630000000  0.5548810000000  0.4644920000000 1.0
C      1  0.5703840000000  0.4995990000000  0.5060930000000 1.0
C      1  0.4601400000000  0.4664950000000  0.5184080000000 1.0
C      1  0.5214350000000  0.5238780000000  0.4513480000000 1.0
C      1  0.5074780000000  0.4649350000000  0.4396410000000 1.0
C      1  0.4444740000000  0.4903160000000  0.4381220000000 1.0
C      1  0.5527790000000  0.4804620000000  0.4666420000000 1.0
C      1  0.4789760000000  0.4854860000000  0.5481070000000 1.0
C      1  0.5112600000000  0.4608050000000  0.4670410000000 1.0
C      1  0.5011780000000  0.4791450000000  0.5807640000000 1.0
C      1  0.5249530000000  0.4985380000000  0.5134010000000 1.0
C      1  0.4845890000000  0.5449080000000  0.5339810000000 1.0
C      1  0.4412220000000  0.5104090000000  0.5046430000000 1.0
C      1  0.5314190000000  0.5418960000000  0.5363280000000 1.0
C      1  0.5114220000000  0.5171260000000  0.5552570000000 1.0
C      1  0.5822970000000  0.4965650000000  0.5317780000000 1.0
C      1  0.5397690000000  0.5482890000000  0.4549160000000 1.0
C      1  0.4890580000000  0.4412840000000  0.5073450000000 1.0
C      1  0.5037810000000  0.5481850000000  0.4918740000000 1.0
C      1  0.5592290000000  0.4758190000000  0.4941060000000 1.0
C      1  0.4673640000000  0.5330520000000  0.4485050000000 1.0
END
