TITL C-2847958-8115-716 0.000302524846256866 125000 -298.441384384583 0 0 54 (C1) n - 1
REM
REM in /home/bkarasulu/work/CARBON/AIRSS/Generating-Clusters/AIREBO/with-SteepDescent/Only-C1/SD-CG-opt/Try1-1.4A-POS3A/HFTN-CG
REM
REM
REM
REM
REM
REM ./C.cell (11c1c37f851c82e70ff6c80c92926a4b)
REM
REM compiler GCC version 9.2.1 20190827 (Red Hat 9.2.1-1)
REM options -cpp -mtune=generic -march=x86-64 -g -O0 -fpre-include=/usr/include/finclude/math-vector-fortran.h
REM seed 435322885 -32895039 -1029013841 -1299800462 804393801 -2073049172 730834380 -2088950553 602602756 363341360 1452467616 246720671 -1749381598 61966889 -2104847131 566391421 -1951219972 1966934545 -444700099 -2146303495 -1127538275 1100422171 1907870530 -1903463439 -1650982666 1689060633 -1290473737 365458201 1606773398 167469637 -1959594706 234824904 1314164639
REM
CELL 1.54180   50.00000   50.00000   50.00000   90.00000   90.00000   90.00000
LATT -1
SFAC C  
C      1  0.4588610000000  0.5458420000000  0.5420390000000 1.0
C      1  0.4134490000000  0.4800210000000  0.5159850000000 1.0
C      1  0.5381890000000  0.5135880000000  0.4752320000000 1.0
C      1  0.4219610000000  0.4992430000000  0.5368590000000 1.0
C      1  0.4324320000000  0.5255170000000  0.5086420000000 1.0
C      1  0.5307090000000  0.5657940000000  0.5383240000000 1.0
C      1  0.5833160000000  0.5473100000000  0.4825880000000 1.0
C      1  0.4603740000000  0.4592740000000  0.5081710000000 1.0
C      1  0.4571340000000  0.4813290000000  0.5413560000000 1.0
C      1  0.5274210000000  0.5786350000000  0.4518200000000 1.0
C      1  0.5360980000000  0.4856260000000  0.4638640000000 1.0
C      1  0.4832820000000  0.5416870000000  0.4636350000000 1.0
C      1  0.5378940000000  0.4649860000000  0.4863690000000 1.0
C      1  0.5143970000000  0.4311980000000  0.5172440000000 1.0
C      1  0.4954820000000  0.5183760000000  0.5050020000000 1.0
C      1  0.4875270000000  0.4674620000000  0.4909450000000 1.0
C      1  0.6007480000000  0.5593690000000  0.4659640000000 1.0
C      1  0.4898680000000  0.5619320000000  0.4902770000000 1.0
C      1  0.5156820000000  0.5620620000000  0.5079580000000 1.0
C      1  0.4291040000000  0.4651800000000  0.5008880000000 1.0
C      1  0.4927060000000  0.5034700000000  0.5710780000000 1.0
C      1  0.4506940000000  0.4657660000000  0.4761930000000 1.0
C      1  0.4488030000000  0.4987280000000  0.5159860000000 1.0
C      1  0.5341200000000  0.5364610000000  0.5174240000000 1.0
C      1  0.5600790000000  0.5544430000000  0.5254930000000 1.0
C      1  0.5050820000000  0.3945180000000  0.4757480000000 1.0
C      1  0.4137800000000  0.5119700000000  0.5589320000000 1.0
C      1  0.5082400000000  0.5442330000000  0.5468300000000 1.0
C      1  0.4870860000000  0.5401790000000  0.5252740000000 1.0
C      1  0.4995870000000  0.3728550000000  0.4620570000000 1.0
C      1  0.4658650000000  0.5614250000000  0.5093220000000 1.0
C      1  0.5160580000000  0.5632070000000  0.4686260000000 1.0
C      1  0.4382990000000  0.5499380000000  0.5075000000000 1.0
C      1  0.5370440000000  0.4816410000000  0.5133250000000 1.0
C      1  0.4817560000000  0.4807540000000  0.5594980000000 1.0
C      1  0.4679480000000  0.4666950000000  0.4474740000000 1.0
C      1  0.5067920000000  0.5264060000000  0.5668790000000 1.0
C      1  0.5656350000000  0.5273000000000  0.4740240000000 1.0
C      1  0.4663100000000  0.5224970000000  0.4544160000000 1.0
C      1  0.5172300000000  0.4467410000000  0.5401320000000 1.0
C      1  0.4935590000000  0.4528150000000  0.5538540000000 1.0
C      1  0.5113960000000  0.5308380000000  0.4776520000000 1.0
C      1  0.4660080000000  0.4946780000000  0.4669430000000 1.0
C      1  0.5362690000000  0.4674940000000  0.5364100000000 1.0
C      1  0.5112550000000  0.4499890000000  0.4904720000000 1.0
C      1  0.5604660000000  0.4483050000000  0.4838760000000 1.0
C      1  0.5814920000000  0.5540310000000  0.5099750000000 1.0
C      1  0.5080860000000  0.4167320000000  0.4901170000000 1.0
C      1  0.5275590000000  0.4740710000000  0.4129610000000 1.0
C      1  0.5282410000000  0.5093410000000  0.5064810000000 1.0
C      1  0.5236320000000  0.4703090000000  0.3873230000000 1.0
C      1  0.5331500000000  0.4798300000000  0.4383540000000 1.0
C      1  0.4672870000000  0.4509920000000  0.5372920000000 1.0
C      1  0.4745570000000  0.4969140000000  0.4989170000000 1.0
END
