TITL C-2848496-4490-173 -0.0010324008923611 125000 -995.776824534624 0 0 183 (C1) n - 1
REM
REM in /home/bkarasulu/work/CARBON/AIRSS/Generating-Clusters/AIREBO/with-SteepDescent/Only-C1/SD-CG-opt/Try1-1.4A-POS3A/HFTN-CG
REM
REM
REM
REM
REM
REM ./C.cell (11c1c37f851c82e70ff6c80c92926a4b)
REM
REM compiler GCC version 9.2.1 20190827 (Red Hat 9.2.1-1)
REM options -cpp -mtune=generic -march=x86-64 -g -O0 -fpre-include=/usr/include/finclude/math-vector-fortran.h
REM seed 436398557 -1418217765 1660269956 1619367226 1937077718 -1085994064 1863209744 363539851 315282534 1417227861 1521560154 -1615387790 -21317290 -1906773425 -103809508 1666233853 -855318618 1851302270 -936569430 127002329 1456870645 -1183286868 -1257176721 710970865 17686815 1639108926 729326632 1688966067 -1090899378 -1054040306 -877331372 -228445987 1676916425
REM
CELL 1.54180   50.00000   50.00000   50.00000   90.00000   90.00000   90.00000
LATT -1
SFAC C  
C      1  0.5947780000000  0.4422530000000  0.4471850000000 1.0
C      1  0.5047370000000  0.4222840000000  0.4067510000000 1.0
C      1  0.4936740000000  0.6105980000000  0.5231330000000 1.0
C      1  0.5496810000000  0.5153040000000  0.4759690000000 1.0
C      1  0.4798020000000  0.4391830000000  0.4227340000000 1.0
C      1  0.5530910000000  0.3992040000000  0.5094740000000 1.0
C      1  0.4376350000000  0.4332340000000  0.4465360000000 1.0
C      1  0.5544460000000  0.5576590000000  0.4475170000000 1.0
C      1  0.5408720000000  0.4254390000000  0.4604290000000 1.0
C      1  0.4715030000000  0.5257680000000  0.4201620000000 1.0
C      1  0.3920660000000  0.5287240000000  0.4976460000000 1.0
C      1  0.4719340000000  0.4690950000000  0.4777110000000 1.0
C      1  0.4496420000000  0.4922170000000  0.3862300000000 1.0
C      1  0.4603400000000  0.5643190000000  0.5177760000000 1.0
C      1  0.4928320000000  0.5392660000000  0.4737890000000 1.0
C      1  0.4867570000000  0.4035100000000  0.4635830000000 1.0
C      1  0.4665620000000  0.4966710000000  0.4128160000000 1.0
C      1  0.4949630000000  0.5135270000000  0.5640010000000 1.0
C      1  0.5489940000000  0.4442260000000  0.4262470000000 1.0
C      1  0.4941560000000  0.5204140000000  0.5187470000000 1.0
C      1  0.5609090000000  0.5718310000000  0.5696000000000 1.0
C      1  0.4345740000000  0.4616210000000  0.4310290000000 1.0
C      1  0.5195540000000  0.4155840000000  0.4927760000000 1.0
C      1  0.5164910000000  0.4152120000000  0.5798340000000 1.0
C      1  0.5474870000000  0.4349060000000  0.4910720000000 1.0
C      1  0.4951310000000  0.4437510000000  0.3861150000000 1.0
C      1  0.5984790000000  0.4917290000000  0.4690080000000 1.0
C      1  0.5412970000000  0.5000200000000  0.5504290000000 1.0
C      1  0.5527520000000  0.5795470000000  0.4734870000000 1.0
C      1  0.5744030000000  0.5373100000000  0.4838050000000 1.0
C      1  0.5425900000000  0.4462640000000  0.5654970000000 1.0
C      1  0.4605010000000  0.4222420000000  0.4932370000000 1.0
C      1  0.5965790000000  0.5435880000000  0.5298820000000 1.0
C      1  0.3968400000000  0.5085370000000  0.5320800000000 1.0
C      1  0.4657890000000  0.5191010000000  0.4780890000000 1.0
C      1  0.5947180000000  0.4781600000000  0.5281620000000 1.0
C      1  0.4754930000000  0.3900420000000  0.5106440000000 1.0
C      1  0.5083260000000  0.5638730000000  0.4036360000000 1.0
C      1  0.4997860000000  0.4035080000000  0.5131660000000 1.0
C      1  0.3929790000000  0.5426560000000  0.4742700000000 1.0
C      1  0.5748860000000  0.5178410000000  0.5621190000000 1.0
C      1  0.4766100000000  0.5975070000000  0.4409410000000 1.0
C      1  0.5150420000000  0.4564450000000  0.4992470000000 1.0
C      1  0.6085570000000  0.5106030000000  0.4923540000000 1.0
C      1  0.5847960000000  0.4937370000000  0.4195820000000 1.0
C      1  0.5393050000000  0.5213790000000  0.5240370000000 1.0
C      1  0.4672260000000  0.5191920000000  0.5832890000000 1.0
C      1  0.5203320000000  0.5263190000000  0.4892350000000 1.0
C      1  0.5925920000000  0.4508620000000  0.5092170000000 1.0
C      1  0.4618260000000  0.4784910000000  0.5247730000000 1.0
C      1  0.5697750000000  0.4384500000000  0.5375530000000 1.0
C      1  0.5114410000000  0.4978930000000  0.5057460000000 1.0
C      1  0.5047030000000  0.5059710000000  0.4556970000000 1.0
C      1  0.4123940000000  0.4562010000000  0.5174610000000 1.0
C      1  0.5236920000000  0.5842550000000  0.4471960000000 1.0
C      1  0.5415350000000  0.5679330000000  0.5419320000000 1.0
C      1  0.5795750000000  0.5767470000000  0.4871660000000 1.0
C      1  0.5512810000000  0.5380910000000  0.5508590000000 1.0
C      1  0.4833220000000  0.4473030000000  0.5935470000000 1.0
C      1  0.4306460000000  0.4845190000000  0.5932670000000 1.0
C      1  0.5038970000000  0.5598940000000  0.5852360000000 1.0
C      1  0.5350350000000  0.5932290000000  0.5622720000000 1.0
C      1  0.5245620000000  0.5152790000000  0.4012400000000 1.0
C      1  0.5069500000000  0.5907830000000  0.5793140000000 1.0
C      1  0.4905840000000  0.4802000000000  0.4290920000000 1.0
C      1  0.5898280000000  0.5030670000000  0.5440390000000 1.0
C      1  0.4414330000000  0.4386880000000  0.4784010000000 1.0
C      1  0.4689400000000  0.4258280000000  0.5831230000000 1.0
C      1  0.4672120000000  0.5915990000000  0.4894990000000 1.0
C      1  0.4022240000000  0.4566540000000  0.4723360000000 1.0
C      1  0.5052490000000  0.4893530000000  0.6032410000000 1.0
C      1  0.4018740000000  0.4857520000000  0.4666170000000 1.0
C      1  0.5980510000000  0.5557780000000  0.4677910000000 1.0
C      1  0.5288830000000  0.4545410000000  0.4513390000000 1.0
C      1  0.5367340000000  0.5528680000000  0.5846500000000 1.0
C      1  0.5598780000000  0.4749130000000  0.4364740000000 1.0
C      1  0.5613430000000  0.5730560000000  0.5156300000000 1.0
C      1  0.5601740000000  0.4580560000000  0.5874470000000 1.0
C      1  0.5096980000000  0.4480130000000  0.5739540000000 1.0
C      1  0.4288740000000  0.4680180000000  0.4901530000000 1.0
C      1  0.5161450000000  0.5586090000000  0.4363050000000 1.0
C      1  0.5580620000000  0.4173580000000  0.5559040000000 1.0
C      1  0.5209050000000  0.4028780000000  0.5543400000000 1.0
C      1  0.4665190000000  0.3901170000000  0.4817120000000 1.0
C      1  0.4713490000000  0.5243940000000  0.5420750000000 1.0
C      1  0.4683440000000  0.4488360000000  0.3857660000000 1.0
C      1  0.5026830000000  0.4148720000000  0.5373690000000 1.0
C      1  0.5446400000000  0.4573690000000  0.5334110000000 1.0
C      1  0.4576000000000  0.4915060000000  0.5998520000000 1.0
C      1  0.4440840000000  0.5398400000000  0.5886830000000 1.0
C      1  0.5855880000000  0.5148760000000  0.5152570000000 1.0
C      1  0.4739270000000  0.4991190000000  0.4519270000000 1.0
C      1  0.5570610000000  0.4993660000000  0.5050910000000 1.0
C      1  0.4450370000000  0.5402420000000  0.4307350000000 1.0
C      1  0.5190860000000  0.4011810000000  0.4555910000000 1.0
C      1  0.5116840000000  0.4656130000000  0.3865290000000 1.0
C      1  0.5127780000000  0.5160550000000  0.6070070000000 1.0
C      1  0.5245260000000  0.4770440000000  0.5475550000000 1.0
C      1  0.4979840000000  0.4666790000000  0.4585720000000 1.0
C      1  0.4475370000000  0.5604960000000  0.4524490000000 1.0
C      1  0.5925560000000  0.4735300000000  0.4458020000000 1.0
C      1  0.5551520000000  0.5916760000000  0.4418130000000 1.0
C      1  0.4861530000000  0.4363190000000  0.4546600000000 1.0
C      1  0.5537190000000  0.5054110000000  0.5816190000000 1.0
C      1  0.4916990000000  0.4345350000000  0.4881630000000 1.0
C      1  0.5623110000000  0.5498710000000  0.4164860000000 1.0
C      1  0.4420900000000  0.5398100000000  0.4760550000000 1.0
C      1  0.4256670000000  0.4955920000000  0.5444830000000 1.0
C      1  0.4795160000000  0.4736340000000  0.6042650000000 1.0
C      1  0.5393260000000  0.6223040000000  0.5060760000000 1.0
C      1  0.5460190000000  0.4674350000000  0.5009530000000 1.0
C      1  0.4547770000000  0.4112900000000  0.5249190000000 1.0
C      1  0.5405630000000  0.4978310000000  0.4241760000000 1.0
C      1  0.5003070000000  0.5629580000000  0.5515210000000 1.0
C      1  0.4584140000000  0.4636610000000  0.4127470000000 1.0
C      1  0.5053310000000  0.5960950000000  0.5457930000000 1.0
C      1  0.5356470000000  0.4250890000000  0.4065610000000 1.0
C      1  0.5145610000000  0.4808500000000  0.4109420000000 1.0
C      1  0.5473890000000  0.4760580000000  0.4680880000000 1.0
C      1  0.4942100000000  0.4443360000000  0.5439040000000 1.0
C      1  0.4918920000000  0.6026900000000  0.4699890000000 1.0
C      1  0.4199220000000  0.5316060000000  0.5761940000000 1.0
C      1  0.5395390000000  0.3917120000000  0.4813850000000 1.0
C      1  0.4482510000000  0.5664620000000  0.5837390000000 1.0
C      1  0.4706790000000  0.5556560000000  0.5457600000000 1.0
C      1  0.4296380000000  0.5743000000000  0.5148780000000 1.0
C      1  0.4757930000000  0.4592490000000  0.5056300000000 1.0
C      1  0.5207450000000  0.5310250000000  0.5640520000000 1.0
C      1  0.5560630000000  0.6060230000000  0.5151850000000 1.0
C      1  0.5707080000000  0.4290920000000  0.4455360000000 1.0
C      1  0.5835180000000  0.4801260000000  0.4957440000000 1.0
C      1  0.4465710000000  0.4855960000000  0.4670230000000 1.0
C      1  0.5809290000000  0.5653470000000  0.5423460000000 1.0
C      1  0.4458330000000  0.4499270000000  0.5615880000000 1.0
C      1  0.4422260000000  0.5723580000000  0.5524900000000 1.0
C      1  0.5418930000000  0.5597250000000  0.3998630000000 1.0
C      1  0.4156070000000  0.5373800000000  0.4584910000000 1.0
C      1  0.4294030000000  0.5443860000000  0.5029210000000 1.0
C      1  0.4701690000000  0.4733400000000  0.5575520000000 1.0
C      1  0.4946840000000  0.4035170000000  0.4313430000000 1.0
C      1  0.4342740000000  0.4646480000000  0.5372030000000 1.0
C      1  0.6012510000000  0.5486490000000  0.5013460000000 1.0
C      1  0.4437160000000  0.5978280000000  0.5311510000000 1.0
C      1  0.5490290000000  0.5241940000000  0.4439350000000 1.0
C      1  0.4282830000000  0.4567370000000  0.5862440000000 1.0
C      1  0.5112110000000  0.6139210000000  0.4991950000000 1.0
C      1  0.5172320000000  0.5263690000000  0.4396580000000 1.0
C      1  0.4162460000000  0.5502880000000  0.5535860000000 1.0
C      1  0.4550960000000  0.5009190000000  0.5572970000000 1.0
C      1  0.4573760000000  0.5853230000000  0.4597210000000 1.0
C      1  0.3920390000000  0.4799410000000  0.5169040000000 1.0
C      1  0.4430750000000  0.5232770000000  0.5217060000000 1.0
C      1  0.4227860000000  0.5204000000000  0.4356740000000 1.0
C      1  0.5007400000000  0.4806730000000  0.5706760000000 1.0
C      1  0.4168340000000  0.5029100000000  0.5752200000000 1.0
C      1  0.4669080000000  0.5055810000000  0.5072080000000 1.0
C      1  0.4787940000000  0.5611430000000  0.4935410000000 1.0
C      1  0.4654990000000  0.4269090000000  0.5492960000000 1.0
C      1  0.5460200000000  0.3956860000000  0.5384070000000 1.0
C      1  0.5720640000000  0.4261930000000  0.5084520000000 1.0
C      1  0.4666090000000  0.6053580000000  0.5163040000000 1.0
C      1  0.4839490000000  0.5770560000000  0.4236520000000 1.0
C      1  0.4060120000000  0.5391180000000  0.5267570000000 1.0
C      1  0.5185130000000  0.4887170000000  0.4762540000000 1.0
C      1  0.5137230000000  0.5436450000000  0.5267520000000 1.0
C      1  0.4240470000000  0.4910630000000  0.4444120000000 1.0
C      1  0.5096490000000  0.5630760000000  0.5006410000000 1.0
C      1  0.4927600000000  0.5347120000000  0.5993440000000 1.0
C      1  0.4614610000000  0.4130010000000  0.4343170000000 1.0
C      1  0.5011980000000  0.4714970000000  0.5246200000000 1.0
C      1  0.5385850000000  0.5242950000000  0.5989240000000 1.0
C      1  0.5792810000000  0.5229410000000  0.4284650000000 1.0
C      1  0.5015590000000  0.5330060000000  0.4096430000000 1.0
C      1  0.5467740000000  0.5457250000000  0.5015010000000 1.0
C      1  0.5197870000000  0.5865750000000  0.4808920000000 1.0
C      1  0.5646380000000  0.4809530000000  0.5955690000000 1.0
C      1  0.4842180000000  0.5484430000000  0.4420880000000 1.0
C      1  0.4005700000000  0.5003270000000  0.4931590000000 1.0
C      1  0.4239280000000  0.4081370000000  0.5253770000000 1.0
C      1  0.4072100000000  0.4341880000000  0.4582290000000 1.0
C      1  0.4284880000000  0.4952150000000  0.5105840000000 1.0
C      1  0.5919480000000  0.5232640000000  0.4582800000000 1.0
C      1  0.4075020000000  0.4261640000000  0.5196280000000 1.0
END
