TITL C-2848496-4490-531 0.00100087214763539 125000 -945.444231221445 0 0 177 (C1) n - 1
REM
REM in /home/bkarasulu/work/CARBON/AIRSS/Generating-Clusters/AIREBO/with-SteepDescent/Only-C1/SD-CG-opt/Try1-1.4A-POS3A/HFTN-CG
REM
REM
REM
REM
REM
REM ./C.cell (11c1c37f851c82e70ff6c80c92926a4b)
REM
REM compiler GCC version 9.2.1 20190827 (Red Hat 9.2.1-1)
REM options -cpp -mtune=generic -march=x86-64 -g -O0 -fpre-include=/usr/include/finclude/math-vector-fortran.h
REM seed -1161499075 -1736520149 1158831214 -1260910630 -1778818890 -1884433669 -1747367827 244999752 -998249562 -2040390009 -1140919362 1332144019 -357694962 2121143140 -666822290 -902760466 1942834403 -930593993 66324401 498835937 -834048891 -2027718710 759776368 1473209413 1617002207 -1553221502 1175293381 1389634392 1215736297 -1761001503 -2085420363 -1024062926 1138526849
REM
CELL 1.54180   50.00000   50.00000   50.00000   90.00000   90.00000   90.00000
LATT -1
SFAC C  
C      1  0.5416000000000  0.5482010000000  0.4062590000000 1.0
C      1  0.5339390000000  0.4813770000000  0.4112790000000 1.0
C      1  0.4453790000000  0.4829720000000  0.5118550000000 1.0
C      1  0.4326150000000  0.4593240000000  0.4909640000000 1.0
C      1  0.4586570000000  0.5636730000000  0.4530190000000 1.0
C      1  0.4270990000000  0.5760690000000  0.4740740000000 1.0
C      1  0.5113510000000  0.4684390000000  0.5828160000000 1.0
C      1  0.5489300000000  0.5290080000000  0.5297470000000 1.0
C      1  0.5296110000000  0.4524450000000  0.5168810000000 1.0
C      1  0.5323630000000  0.5546080000000  0.5752130000000 1.0
C      1  0.4185010000000  0.5310240000000  0.5420910000000 1.0
C      1  0.5309610000000  0.4447400000000  0.5680700000000 1.0
C      1  0.4528730000000  0.4836220000000  0.4190270000000 1.0
C      1  0.4649540000000  0.5343430000000  0.4055110000000 1.0
C      1  0.5629360000000  0.4900160000000  0.5213880000000 1.0
C      1  0.3880210000000  0.5117810000000  0.4547410000000 1.0
C      1  0.4884740000000  0.5901040000000  0.5336870000000 1.0
C      1  0.5509590000000  0.4260770000000  0.4241260000000 1.0
C      1  0.4850190000000  0.5465060000000  0.5725910000000 1.0
C      1  0.5348900000000  0.4880550000000  0.5558570000000 1.0
C      1  0.3982100000000  0.5112780000000  0.5275760000000 1.0
C      1  0.4825360000000  0.4819150000000  0.4353310000000 1.0
C      1  0.5169720000000  0.5613140000000  0.4091230000000 1.0
C      1  0.4499030000000  0.5033270000000  0.4437400000000 1.0
C      1  0.4502230000000  0.4536120000000  0.4234020000000 1.0
C      1  0.5156530000000  0.4625930000000  0.5434940000000 1.0
C      1  0.5631290000000  0.4246340000000  0.4779860000000 1.0
C      1  0.5325100000000  0.5241980000000  0.4482340000000 1.0
C      1  0.5750930000000  0.5572630000000  0.4454020000000 1.0
C      1  0.4944240000000  0.4042650000000  0.5016830000000 1.0
C      1  0.4371410000000  0.4281970000000  0.5225370000000 1.0
C      1  0.5536700000000  0.5456480000000  0.4323500000000 1.0
C      1  0.5594250000000  0.4692210000000  0.5990950000000 1.0
C      1  0.4584900000000  0.5582010000000  0.5290710000000 1.0
C      1  0.5120740000000  0.4861120000000  0.6112120000000 1.0
C      1  0.4436520000000  0.4917600000000  0.3883060000000 1.0
C      1  0.4481110000000  0.5271600000000  0.5343180000000 1.0
C      1  0.5585980000000  0.5062850000000  0.4360510000000 1.0
C      1  0.5955390000000  0.5284110000000  0.4936310000000 1.0
C      1  0.5384200000000  0.4222980000000  0.5436010000000 1.0
C      1  0.5549120000000  0.4522320000000  0.4859440000000 1.0
C      1  0.5819420000000  0.5183550000000  0.4515350000000 1.0
C      1  0.4909520000000  0.4871920000000  0.4032440000000 1.0
C      1  0.5382160000000  0.5129240000000  0.5788350000000 1.0
C      1  0.4512610000000  0.5346180000000  0.5889460000000 1.0
C      1  0.4015840000000  0.4955410000000  0.4333280000000 1.0
C      1  0.5168320000000  0.5401930000000  0.5308070000000 1.0
C      1  0.4948500000000  0.5159210000000  0.5215940000000 1.0
C      1  0.4802350000000  0.5375320000000  0.6049530000000 1.0
C      1  0.5151380000000  0.4000910000000  0.5533310000000 1.0
C      1  0.5077850000000  0.4348070000000  0.5013880000000 1.0
C      1  0.4673310000000  0.4665590000000  0.5604380000000 1.0
C      1  0.4692260000000  0.5064060000000  0.3907460000000 1.0
C      1  0.4085380000000  0.4699770000000  0.4438250000000 1.0
C      1  0.4064370000000  0.4731270000000  0.4742130000000 1.0
C      1  0.4201810000000  0.4886200000000  0.5586890000000 1.0
C      1  0.5887160000000  0.4453820000000  0.5270720000000 1.0
C      1  0.4109590000000  0.4383120000000  0.5066570000000 1.0
C      1  0.5626060000000  0.4549620000000  0.5707880000000 1.0
C      1  0.5789060000000  0.4995270000000  0.4861230000000 1.0
C      1  0.5682230000000  0.4496570000000  0.4202890000000 1.0
C      1  0.6116700000000  0.4762360000000  0.4863700000000 1.0
C      1  0.5764300000000  0.5308500000000  0.5448510000000 1.0
C      1  0.6131550000000  0.4552190000000  0.4472340000000 1.0
C      1  0.4567850000000  0.4613730000000  0.5326800000000 1.0
C      1  0.3985220000000  0.5441190000000  0.5185990000000 1.0
C      1  0.5698770000000  0.5217430000000  0.5829290000000 1.0
C      1  0.5113890000000  0.4803970000000  0.4627610000000 1.0
C      1  0.5328830000000  0.4023300000000  0.4909580000000 1.0
C      1  0.4970510000000  0.4380470000000  0.5881320000000 1.0
C      1  0.5612670000000  0.5331650000000  0.4741240000000 1.0
C      1  0.5508740000000  0.5132590000000  0.4996710000000 1.0
C      1  0.4945950000000  0.4193570000000  0.5627700000000 1.0
C      1  0.5274830000000  0.4247410000000  0.5945710000000 1.0
C      1  0.4932510000000  0.4877750000000  0.5389870000000 1.0
C      1  0.4294240000000  0.5753370000000  0.4401570000000 1.0
C      1  0.5983340000000  0.4900850000000  0.4598450000000 1.0
C      1  0.4621080000000  0.4911010000000  0.4706730000000 1.0
C      1  0.5627820000000  0.5083400000000  0.4049900000000 1.0
C      1  0.5389140000000  0.4796980000000  0.4439320000000 1.0
C      1  0.5934260000000  0.4976320000000  0.5310720000000 1.0
C      1  0.6017310000000  0.5274700000000  0.5240520000000 1.0
C      1  0.5031430000000  0.6104970000000  0.5158870000000 1.0
C      1  0.4994250000000  0.5981590000000  0.4550700000000 1.0
C      1  0.4399970000000  0.4501570000000  0.5843920000000 1.0
C      1  0.5111940000000  0.5513270000000  0.6021700000000 1.0
C      1  0.5270910000000  0.4479250000000  0.4466040000000 1.0
C      1  0.4844700000000  0.5782480000000  0.4412640000000 1.0
C      1  0.5286640000000  0.5929320000000  0.5063420000000 1.0
C      1  0.4547300000000  0.5919960000000  0.5295080000000 1.0
C      1  0.6019740000000  0.4628810000000  0.5046020000000 1.0
C      1  0.4910950000000  0.5588940000000  0.4864750000000 1.0
C      1  0.4241460000000  0.4617120000000  0.5397370000000 1.0
C      1  0.4977230000000  0.4539960000000  0.4065710000000 1.0
C      1  0.4370530000000  0.5596950000000  0.5025760000000 1.0
C      1  0.4790050000000  0.4583530000000  0.4551400000000 1.0
C      1  0.5979910000000  0.5448740000000  0.4644880000000 1.0
C      1  0.5240290000000  0.4300990000000  0.4734500000000 1.0
C      1  0.5167190000000  0.5476940000000  0.4670820000000 1.0
C      1  0.4169770000000  0.5481410000000  0.4563280000000 1.0
C      1  0.5314800000000  0.5306490000000  0.6070580000000 1.0
C      1  0.4898410000000  0.4406850000000  0.5402190000000 1.0
C      1  0.5626600000000  0.4754120000000  0.4678870000000 1.0
C      1  0.5285710000000  0.5948300000000  0.4503410000000 1.0
C      1  0.5403080000000  0.4881030000000  0.6019800000000 1.0
C      1  0.5599810000000  0.5569570000000  0.5574990000000 1.0
C      1  0.4379290000000  0.5481220000000  0.4217450000000 1.0
C      1  0.5866210000000  0.5039520000000  0.5629820000000 1.0
C      1  0.5665670000000  0.5646920000000  0.5264650000000 1.0
C      1  0.4746150000000  0.4403820000000  0.4198230000000 1.0
C      1  0.4925220000000  0.5052770000000  0.4762290000000 1.0
C      1  0.3949280000000  0.4791770000000  0.5379660000000 1.0
C      1  0.5613230000000  0.4592180000000  0.5161990000000 1.0
C      1  0.5069020000000  0.5882360000000  0.4831830000000 1.0
C      1  0.4150440000000  0.4936210000000  0.5070800000000 1.0
C      1  0.4659460000000  0.4619930000000  0.4847740000000 1.0
C      1  0.4731390000000  0.4956330000000  0.5625960000000 1.0
C      1  0.5571210000000  0.5951880000000  0.4926560000000 1.0
C      1  0.4168080000000  0.4069070000000  0.5082850000000 1.0
C      1  0.5656830000000  0.4809020000000  0.5540680000000 1.0
C      1  0.5018900000000  0.5536410000000  0.4370460000000 1.0
C      1  0.5415120000000  0.5226580000000  0.3942340000000 1.0
C      1  0.5256020000000  0.4680570000000  0.4884190000000 1.0
C      1  0.5204010000000  0.4985110000000  0.4964390000000 1.0
C      1  0.4913240000000  0.5601670000000  0.5204530000000 1.0
C      1  0.5004530000000  0.5006740000000  0.5759760000000 1.0
C      1  0.4275800000000  0.4755400000000  0.5871770000000 1.0
C      1  0.4096960000000  0.5443960000000  0.4893740000000 1.0
C      1  0.5015020000000  0.5903230000000  0.5600580000000 1.0
C      1  0.4968970000000  0.4324500000000  0.4443020000000 1.0
C      1  0.5226550000000  0.4989560000000  0.5284080000000 1.0
C      1  0.5130870000000  0.5294400000000  0.5628990000000 1.0
C      1  0.4040800000000  0.5162870000000  0.4762220000000 1.0
C      1  0.4660630000000  0.5813030000000  0.4811440000000 1.0
C      1  0.4517840000000  0.5444600000000  0.4792320000000 1.0
C      1  0.5221360000000  0.4030500000000  0.5209480000000 1.0
C      1  0.4628580000000  0.5104290000000  0.5133650000000 1.0
C      1  0.4614070000000  0.6020310000000  0.4996870000000 1.0
C      1  0.5668360000000  0.5665840000000  0.4770430000000 1.0
C      1  0.4468220000000  0.5086160000000  0.5590070000000 1.0
C      1  0.4872710000000  0.5778010000000  0.5791710000000 1.0
C      1  0.5164450000000  0.5067230000000  0.4018460000000 1.0
C      1  0.5194030000000  0.3931490000000  0.4611250000000 1.0
C      1  0.5341070000000  0.5694560000000  0.5289500000000 1.0
C      1  0.4314330000000  0.5784440000000  0.5500110000000 1.0
C      1  0.5456400000000  0.4132450000000  0.4530980000000 1.0
C      1  0.5827250000000  0.5580900000000  0.5042610000000 1.0
C      1  0.5220530000000  0.4412000000000  0.4145160000000 1.0
C      1  0.5271090000000  0.5375310000000  0.4979230000000 1.0
C      1  0.4906310000000  0.4090810000000  0.4682040000000 1.0
C      1  0.3964640000000  0.4663430000000  0.5064120000000 1.0
C      1  0.4611580000000  0.5325930000000  0.4391820000000 1.0
C      1  0.4744090000000  0.3975040000000  0.5218360000000 1.0
C      1  0.4538380000000  0.5563270000000  0.5628610000000 1.0
C      1  0.5638490000000  0.4059840000000  0.5029560000000 1.0
C      1  0.5555590000000  0.4672200000000  0.4011910000000 1.0
C      1  0.4826390000000  0.6213340000000  0.5008300000000 1.0
C      1  0.5829510000000  0.4646350000000  0.4432930000000 1.0
C      1  0.4364440000000  0.4377590000000  0.4649510000000 1.0
C      1  0.5030370000000  0.5076550000000  0.4439590000000 1.0
C      1  0.4228060000000  0.5215870000000  0.4377970000000 1.0
C      1  0.4790310000000  0.4503700000000  0.5094700000000 1.0
C      1  0.5275760000000  0.5802390000000  0.5574820000000 1.0
C      1  0.4758730000000  0.5287090000000  0.4890690000000 1.0
C      1  0.4341480000000  0.5082680000000  0.5903570000000 1.0
C      1  0.4944840000000  0.5272700000000  0.4180070000000 1.0
C      1  0.5805070000000  0.4343760000000  0.5573580000000 1.0
C      1  0.4634380000000  0.4282450000000  0.4638470000000 1.0
C      1  0.4376440000000  0.4346130000000  0.5552210000000 1.0
C      1  0.4075430000000  0.5691940000000  0.5392050000000 1.0
C      1  0.4303680000000  0.4970070000000  0.4778380000000 1.0
C      1  0.4695830000000  0.4505540000000  0.5853120000000 1.0
C      1  0.5377850000000  0.5725800000000  0.4627570000000 1.0
C      1  0.4634390000000  0.4193480000000  0.5377710000000 1.0
C      1  0.5668450000000  0.4202890000000  0.5294700000000 1.0
C      1  0.4279550000000  0.4489350000000  0.4401090000000 1.0
C      1  0.4961260000000  0.5109730000000  0.6067600000000 1.0
END
