TITL C-2847947-6848-720 -0.0025835865505921 125000 -706.103460547435 0 0 129 (C1) n - 1
REM
REM in /home/bkarasulu/work/CARBON/AIRSS/Generating-Clusters/AIREBO/with-SteepDescent/Only-C1/SD-CG-opt/Try1-1.4A-POS3A/HFTN-CG
REM
REM
REM
REM
REM
REM ./C.cell (11c1c37f851c82e70ff6c80c92926a4b)
REM
REM compiler GCC version 9.2.1 20190827 (Red Hat 9.2.1-1)
REM options -cpp -mtune=generic -march=x86-64 -g -O0 -fpre-include=/usr/include/finclude/math-vector-fortran.h
REM seed 1194025996 1631937190 -1814838981 -1901223616 527289871 -1988583703 678199326 781292132 -1933151735 -514685109 -23383410 -2020930731 -318416029 887082100 -159657984 -1757347973 11379077 -710942230 1508748138 -157687740 -570601926 1087792398 1922138857 837934929 1173822396 1949586537 -2030296273 244274685 -543517367 1660153559 -1237292041 1228518651 -1004241693
REM
CELL 1.54180   50.00000   50.00000   50.00000   90.00000   90.00000   90.00000
LATT -1
SFAC C  
C      1  0.5454150000000  0.5672120000000  0.4463750000000 1.0
C      1  0.5231930000000  0.4419710000000  0.4239200000000 1.0
C      1  0.4964090000000  0.4271210000000  0.5522230000000 1.0
C      1  0.4343300000000  0.4963980000000  0.5221370000000 1.0
C      1  0.4493520000000  0.5109270000000  0.5902000000000 1.0
C      1  0.4215340000000  0.4607680000000  0.4609570000000 1.0
C      1  0.5144990000000  0.4692410000000  0.4112900000000 1.0
C      1  0.5326990000000  0.5363450000000  0.4528460000000 1.0
C      1  0.5231210000000  0.4125560000000  0.4998950000000 1.0
C      1  0.5808760000000  0.5698410000000  0.5180720000000 1.0
C      1  0.4617310000000  0.4338180000000  0.4462100000000 1.0
C      1  0.5151010000000  0.5588310000000  0.5946170000000 1.0
C      1  0.4786430000000  0.4681760000000  0.4635680000000 1.0
C      1  0.5059910000000  0.5374400000000  0.4082350000000 1.0
C      1  0.4656880000000  0.5853650000000  0.5249890000000 1.0
C      1  0.4700030000000  0.4916410000000  0.5049820000000 1.0
C      1  0.4977410000000  0.4776360000000  0.5048800000000 1.0
C      1  0.5766750000000  0.4693440000000  0.4311980000000 1.0
C      1  0.4856550000000  0.5619780000000  0.4177150000000 1.0
C      1  0.5539990000000  0.4712800000000  0.5788050000000 1.0
C      1  0.5673360000000  0.4748740000000  0.5309400000000 1.0
C      1  0.5163850000000  0.5825690000000  0.4551890000000 1.0
C      1  0.5244000000000  0.4331180000000  0.5494240000000 1.0
C      1  0.4943910000000  0.5853650000000  0.4781510000000 1.0
C      1  0.5595840000000  0.4886670000000  0.5555520000000 1.0
C      1  0.5356200000000  0.4138270000000  0.4681980000000 1.0
C      1  0.5550820000000  0.5428780000000  0.5037780000000 1.0
C      1  0.4616870000000  0.5806190000000  0.4727160000000 1.0
C      1  0.5662910000000  0.4972900000000  0.4419290000000 1.0
C      1  0.4117390000000  0.4577360000000  0.5287100000000 1.0
C      1  0.4627670000000  0.4149490000000  0.4998980000000 1.0
C      1  0.4085260000000  0.4734050000000  0.5512310000000 1.0
C      1  0.4480640000000  0.4877310000000  0.4835480000000 1.0
C      1  0.5309100000000  0.4386270000000  0.5202850000000 1.0
C      1  0.5628940000000  0.5535150000000  0.4721480000000 1.0
C      1  0.4279510000000  0.4945410000000  0.5694590000000 1.0
C      1  0.5859090000000  0.5120610000000  0.4593860000000 1.0
C      1  0.4883980000000  0.5200380000000  0.4775770000000 1.0
C      1  0.4814660000000  0.4469820000000  0.4852430000000 1.0
C      1  0.5043790000000  0.5499040000000  0.5178690000000 1.0
C      1  0.5030720000000  0.5808210000000  0.5548810000000 1.0
C      1  0.4558370000000  0.5450430000000  0.4993070000000 1.0
C      1  0.4553160000000  0.5185670000000  0.4793870000000 1.0
C      1  0.4322980000000  0.5411130000000  0.4675600000000 1.0
C      1  0.5350060000000  0.4836650000000  0.4423760000000 1.0
C      1  0.5937790000000  0.4823220000000  0.4856760000000 1.0
C      1  0.5385180000000  0.5010380000000  0.4704520000000 1.0
C      1  0.4793110000000  0.4185100000000  0.4704080000000 1.0
C      1  0.4840560000000  0.5115940000000  0.5278270000000 1.0
C      1  0.4961270000000  0.5484450000000  0.4632430000000 1.0
C      1  0.4740180000000  0.5273960000000  0.5946820000000 1.0
C      1  0.5756610000000  0.4577710000000  0.4777520000000 1.0
C      1  0.4881500000000  0.5288540000000  0.5548170000000 1.0
C      1  0.4525970000000  0.5773550000000  0.5016690000000 1.0
C      1  0.4539210000000  0.4409360000000  0.5521000000000 1.0
C      1  0.5672770000000  0.5414840000000  0.5694520000000 1.0
C      1  0.5168750000000  0.5630330000000  0.4278850000000 1.0
C      1  0.5030410000000  0.4652480000000  0.5347040000000 1.0
C      1  0.5476470000000  0.4718340000000  0.4838690000000 1.0
C      1  0.4674710000000  0.4525650000000  0.5125880000000 1.0
C      1  0.4710690000000  0.4748730000000  0.5345510000000 1.0
C      1  0.4491720000000  0.5474130000000  0.5385220000000 1.0
C      1  0.4496160000000  0.5625140000000  0.4538100000000 1.0
C      1  0.4343590000000  0.4343040000000  0.4650360000000 1.0
C      1  0.4938810000000  0.5951010000000  0.5295060000000 1.0
C      1  0.5452750000000  0.5126300000000  0.5532310000000 1.0
C      1  0.4855090000000  0.5564400000000  0.4936810000000 1.0
C      1  0.4089050000000  0.5049780000000  0.5430230000000 1.0
C      1  0.5057510000000  0.4635010000000  0.5670170000000 1.0
C      1  0.5711930000000  0.4484950000000  0.4486760000000 1.0
C      1  0.4365170000000  0.4335030000000  0.4969010000000 1.0
C      1  0.5237000000000  0.5582650000000  0.4778160000000 1.0
C      1  0.4281930000000  0.5269770000000  0.5074550000000 1.0
C      1  0.3929240000000  0.4904760000000  0.4947230000000 1.0
C      1  0.4951240000000  0.4054990000000  0.5046780000000 1.0
C      1  0.4540600000000  0.4729830000000  0.5639310000000 1.0
C      1  0.4444480000000  0.5058790000000  0.4368660000000 1.0
C      1  0.4110460000000  0.4711820000000  0.4853540000000 1.0
C      1  0.5725970000000  0.5203350000000  0.5850460000000 1.0
C      1  0.4839720000000  0.4768060000000  0.4200310000000 1.0
C      1  0.5349140000000  0.4517480000000  0.5726290000000 1.0
C      1  0.5103540000000  0.5123270000000  0.4550560000000 1.0
C      1  0.5106930000000  0.4931620000000  0.5511130000000 1.0
C      1  0.5214110000000  0.4969490000000  0.5188490000000 1.0
C      1  0.5429040000000  0.4359170000000  0.4469570000000 1.0
C      1  0.5491540000000  0.5661210000000  0.5577780000000 1.0
C      1  0.4141480000000  0.5533820000000  0.4912640000000 1.0
C      1  0.5411490000000  0.4696640000000  0.5141020000000 1.0
C      1  0.4232550000000  0.5202290000000  0.4462080000000 1.0
C      1  0.5889460000000  0.5434240000000  0.5068790000000 1.0
C      1  0.5569790000000  0.5372410000000  0.5373210000000 1.0
C      1  0.5168840000000  0.5192030000000  0.5673330000000 1.0
C      1  0.5166170000000  0.5346430000000  0.3802360000000 1.0
C      1  0.4486470000000  0.4780470000000  0.4509590000000 1.0
C      1  0.4647800000000  0.5502730000000  0.4321360000000 1.0
C      1  0.5022710000000  0.5212460000000  0.5047140000000 1.0
C      1  0.4804880000000  0.4446420000000  0.5730030000000 1.0
C      1  0.5752250000000  0.4360980000000  0.4993940000000 1.0
C      1  0.5039010000000  0.4047850000000  0.4656980000000 1.0
C      1  0.4614050000000  0.4608590000000  0.5948430000000 1.0
C      1  0.4807250000000  0.4247110000000  0.5269170000000 1.0
C      1  0.4659910000000  0.5048050000000  0.5627670000000 1.0
C      1  0.5810390000000  0.4468080000000  0.5241520000000 1.0
C      1  0.5558270000000  0.5761330000000  0.5286830000000 1.0
C      1  0.5849340000000  0.5407770000000  0.4617280000000 1.0
C      1  0.4906100000000  0.4458560000000  0.4328300000000 1.0
C      1  0.5915030000000  0.5157430000000  0.4921480000000 1.0
C      1  0.5080600000000  0.4682920000000  0.4507010000000 1.0
C      1  0.3985440000000  0.5108910000000  0.5117380000000 1.0
C      1  0.5099640000000  0.5926620000000  0.5064780000000 1.0
C      1  0.5462420000000  0.5193610000000  0.4299030000000 1.0
C      1  0.5726250000000  0.4946760000000  0.5084860000000 1.0
C      1  0.4366800000000  0.4659690000000  0.5070960000000 1.0
C      1  0.5462970000000  0.5102570000000  0.4998690000000 1.0
C      1  0.4971590000000  0.5085170000000  0.4238260000000 1.0
C      1  0.4810450000000  0.5590430000000  0.5408520000000 1.0
C      1  0.5659770000000  0.4949110000000  0.5944600000000 1.0
C      1  0.5019940000000  0.5333960000000  0.5919260000000 1.0
C      1  0.4535760000000  0.5175360000000  0.5368280000000 1.0
C      1  0.5565760000000  0.4159350000000  0.4948630000000 1.0
C      1  0.4656350000000  0.5211650000000  0.4276750000000 1.0
C      1  0.4401360000000  0.4297700000000  0.5305380000000 1.0
C      1  0.5277670000000  0.4986630000000  0.4127320000000 1.0
C      1  0.5278610000000  0.4530310000000  0.4693420000000 1.0
C      1  0.5233020000000  0.5727900000000  0.5711600000000 1.0
C      1  0.4554210000000  0.4587230000000  0.4239040000000 1.0
C      1  0.5307790000000  0.5663160000000  0.5078930000000 1.0
C      1  0.5115670000000  0.4504200000000  0.4954090000000 1.0
C      1  0.4243200000000  0.5565530000000  0.5237970000000 1.0
END
