TITL C-2848509-3138-395 0.00124690892138446 125000 -709.879865683193 0 0 135 (C1) n - 1
REM
REM in /home/bkarasulu/work/CARBON/AIRSS/Generating-Clusters/AIREBO/with-SteepDescent/Only-C1/SD-CG-opt/Try1-1.4A-POS3A/HFTN-CG
REM
REM
REM
REM
REM
REM ./C.cell (11c1c37f851c82e70ff6c80c92926a4b)
REM
REM compiler GCC version 9.2.1 20190827 (Red Hat 9.2.1-1)
REM options -cpp -mtune=generic -march=x86-64 -g -O0 -fpre-include=/usr/include/finclude/math-vector-fortran.h
REM seed 1189467647 -205710552 -1402681346 1005220413 1432797408 -485260492 -690590895 1707810024 -1922419793 -42653812 1429301966 1654739173 1118178345 449752367 -1085783306 61496655 991565872 1285978241 383610168 -580467328 -1149645798 367340900 -35163448 1306399846 1179016670 -976697514 -828949651 -145646523 1483856835 -1604964723 611440595 -1588505241 -1710572066
REM
CELL 1.54180   50.00000   50.00000   50.00000   90.00000   90.00000   90.00000
LATT -1
SFAC C  
C      1  0.4965100000000  0.4663300000000  0.4810390000000 1.0
C      1  0.5800760000000  0.4436000000000  0.5180500000000 1.0
C      1  0.5229790000000  0.5877610000000  0.5105700000000 1.0
C      1  0.4656850000000  0.4579570000000  0.5645780000000 1.0
C      1  0.5667180000000  0.4731180000000  0.4417920000000 1.0
C      1  0.4758710000000  0.4956960000000  0.5987560000000 1.0
C      1  0.5663550000000  0.5228740000000  0.6107600000000 1.0
C      1  0.4001530000000  0.5185570000000  0.4629890000000 1.0
C      1  0.5263650000000  0.5463170000000  0.4367550000000 1.0
C      1  0.4260440000000  0.5713070000000  0.5279900000000 1.0
C      1  0.4302210000000  0.4651980000000  0.5353740000000 1.0
C      1  0.4708390000000  0.4818070000000  0.5242130000000 1.0
C      1  0.5472030000000  0.5009350000000  0.4403690000000 1.0
C      1  0.4739230000000  0.5139710000000  0.4521460000000 1.0
C      1  0.4227870000000  0.4978640000000  0.5722940000000 1.0
C      1  0.5527230000000  0.5175310000000  0.5879910000000 1.0
C      1  0.5477190000000  0.5221750000000  0.5345360000000 1.0
C      1  0.4576930000000  0.4660660000000  0.4723420000000 1.0
C      1  0.5386600000000  0.5255520000000  0.4581100000000 1.0
C      1  0.4266290000000  0.4696460000000  0.4675700000000 1.0
C      1  0.5513970000000  0.4299210000000  0.4660150000000 1.0
C      1  0.6001770000000  0.4772330000000  0.5112990000000 1.0
C      1  0.4969030000000  0.5823020000000  0.5200430000000 1.0
C      1  0.4578590000000  0.4452970000000  0.5339790000000 1.0
C      1  0.5071980000000  0.5023120000000  0.3930250000000 1.0
C      1  0.4712470000000  0.4685090000000  0.5964240000000 1.0
C      1  0.4118980000000  0.4912880000000  0.4482770000000 1.0
C      1  0.4887300000000  0.4905990000000  0.4994350000000 1.0
C      1  0.4702020000000  0.5387980000000  0.5956230000000 1.0
C      1  0.4929130000000  0.5444550000000  0.5317240000000 1.0
C      1  0.5065720000000  0.5163620000000  0.5563300000000 1.0
C      1  0.4417110000000  0.5672550000000  0.5566850000000 1.0
C      1  0.5372680000000  0.5516660000000  0.4788820000000 1.0
C      1  0.5034370000000  0.5881870000000  0.4637990000000 1.0
C      1  0.5756730000000  0.5013230000000  0.4589680000000 1.0
C      1  0.5682480000000  0.4677020000000  0.5668460000000 1.0
C      1  0.5264560000000  0.5028700000000  0.4971990000000 1.0
C      1  0.5573700000000  0.4087880000000  0.5342610000000 1.0
C      1  0.5965590000000  0.5796520000000  0.5323090000000 1.0
C      1  0.5291160000000  0.5904590000000  0.4830660000000 1.0
C      1  0.4670910000000  0.5386000000000  0.5165810000000 1.0
C      1  0.4711370000000  0.4629060000000  0.4260160000000 1.0
C      1  0.4125630000000  0.5527150000000  0.5517200000000 1.0
C      1  0.4976970000000  0.4321100000000  0.5076590000000 1.0
C      1  0.4805590000000  0.5217750000000  0.4907940000000 1.0
C      1  0.4026500000000  0.5330510000000  0.4859180000000 1.0
C      1  0.5298700000000  0.4604720000000  0.4800680000000 1.0
C      1  0.4379960000000  0.5630700000000  0.5041800000000 1.0
C      1  0.4660340000000  0.4205000000000  0.5121390000000 1.0
C      1  0.4731250000000  0.4819490000000  0.4487190000000 1.0
C      1  0.5828390000000  0.5195590000000  0.4935750000000 1.0
C      1  0.5547180000000  0.5765730000000  0.4687460000000 1.0
C      1  0.4245770000000  0.4777540000000  0.4970520000000 1.0
C      1  0.4313130000000  0.4394850000000  0.5049250000000 1.0
C      1  0.5378380000000  0.4676090000000  0.5516340000000 1.0
C      1  0.4607410000000  0.4904420000000  0.5623210000000 1.0
C      1  0.5033500000000  0.4246780000000  0.5566510000000 1.0
C      1  0.5236950000000  0.4274640000000  0.4855850000000 1.0
C      1  0.4516270000000  0.4142060000000  0.4817220000000 1.0
C      1  0.4575380000000  0.4866080000000  0.3970230000000 1.0
C      1  0.4590960000000  0.4583470000000  0.5025810000000 1.0
C      1  0.5629130000000  0.4670660000000  0.4750430000000 1.0
C      1  0.5320930000000  0.5763330000000  0.5608860000000 1.0
C      1  0.4811590000000  0.4448270000000  0.4598900000000 1.0
C      1  0.4342670000000  0.4090130000000  0.5082400000000 1.0
C      1  0.4540100000000  0.4286430000000  0.4588940000000 1.0
C      1  0.5101630000000  0.5226550000000  0.4745790000000 1.0
C      1  0.3798900000000  0.4527030000000  0.5163010000000 1.0
C      1  0.5863950000000  0.4876680000000  0.4885310000000 1.0
C      1  0.5097840000000  0.4518820000000  0.5280510000000 1.0
C      1  0.4471570000000  0.5157070000000  0.5319130000000 1.0
C      1  0.5395730000000  0.5734540000000  0.4210580000000 1.0
C      1  0.5164590000000  0.4805630000000  0.5702030000000 1.0
C      1  0.4400410000000  0.4359780000000  0.4351980000000 1.0
C      1  0.5451000000000  0.4483360000000  0.4448050000000 1.0
C      1  0.5472400000000  0.5750360000000  0.5307190000000 1.0
C      1  0.4420550000000  0.4629280000000  0.4137710000000 1.0
C      1  0.5087030000000  0.5744500000000  0.4343900000000 1.0
C      1  0.4713560000000  0.5694040000000  0.5024320000000 1.0
C      1  0.4501650000000  0.4338640000000  0.5772230000000 1.0
C      1  0.4925520000000  0.4704280000000  0.5478670000000 1.0
C      1  0.5648490000000  0.4389330000000  0.5481010000000 1.0
C      1  0.5731900000000  0.5944310000000  0.5291790000000 1.0
C      1  0.4182540000000  0.4616560000000  0.4362870000000 1.0
C      1  0.4755510000000  0.5939010000000  0.4792180000000 1.0
C      1  0.5488620000000  0.4444140000000  0.5112590000000 1.0
C      1  0.4478390000000  0.4964930000000  0.5038690000000 1.0
C      1  0.4301250000000  0.5183390000000  0.4490410000000 1.0
C      1  0.4800400000000  0.4242110000000  0.5488320000000 1.0
C      1  0.5470590000000  0.4908180000000  0.5812010000000 1.0
C      1  0.4559200000000  0.5631440000000  0.4532680000000 1.0
C      1  0.4299830000000  0.5395080000000  0.4917470000000 1.0
C      1  0.5457630000000  0.5388830000000  0.5707480000000 1.0
C      1  0.5313100000000  0.4358530000000  0.5476040000000 1.0
C      1  0.4773700000000  0.5118860000000  0.5468430000000 1.0
C      1  0.4950630000000  0.5703660000000  0.5475900000000 1.0
C      1  0.5065380000000  0.4044330000000  0.4673840000000 1.0
C      1  0.4254380000000  0.4927450000000  0.5444740000000 1.0
C      1  0.5389360000000  0.5508670000000  0.5082930000000 1.0
C      1  0.4931290000000  0.5475790000000  0.5916110000000 1.0
C      1  0.5432690000000  0.4140080000000  0.5099140000000 1.0
C      1  0.4752760000000  0.5509640000000  0.4741370000000 1.0
C      1  0.5554680000000  0.5293650000000  0.4135410000000 1.0
C      1  0.5910990000000  0.5518420000000  0.5332750000000 1.0
C      1  0.5006270000000  0.5029750000000  0.5870170000000 1.0
C      1  0.5567920000000  0.4894850000000  0.5355070000000 1.0
C      1  0.5078530000000  0.4376360000000  0.4055120000000 1.0
C      1  0.4936220000000  0.5212060000000  0.4252910000000 1.0
C      1  0.5823230000000  0.5333270000000  0.4645460000000 1.0
C      1  0.5066100000000  0.5561290000000  0.4697350000000 1.0
C      1  0.4385100000000  0.5429750000000  0.4355730000000 1.0
C      1  0.4502020000000  0.5164750000000  0.4764250000000 1.0
C      1  0.4899880000000  0.5518010000000  0.4210510000000 1.0
C      1  0.5711940000000  0.5557910000000  0.4531050000000 1.0
C      1  0.5634720000000  0.5546540000000  0.4252750000000 1.0
C      1  0.5567330000000  0.5071970000000  0.5067660000000 1.0
C      1  0.5189180000000  0.5328380000000  0.5223600000000 1.0
C      1  0.4947620000000  0.4107090000000  0.4444140000000 1.0
C      1  0.5769540000000  0.4383670000000  0.4845820000000 1.0
C      1  0.5074450000000  0.5021590000000  0.5253860000000 1.0
C      1  0.4911010000000  0.4386450000000  0.4279050000000 1.0
C      1  0.5838600000000  0.4719290000000  0.5364720000000 1.0
C      1  0.4630090000000  0.5587490000000  0.4227790000000 1.0
C      1  0.4065240000000  0.4568360000000  0.5149210000000 1.0
C      1  0.5026120000000  0.4959250000000  0.4549530000000 1.0
C      1  0.5626530000000  0.5479170000000  0.5442960000000 1.0
C      1  0.5134650000000  0.5483000000000  0.5657870000000 1.0
C      1  0.5297120000000  0.4721000000000  0.5113610000000 1.0
C      1  0.4794570000000  0.5009890000000  0.4018460000000 1.0
C      1  0.4958100000000  0.4005840000000  0.4950630000000 1.0
C      1  0.5266600000000  0.5123180000000  0.4158030000000 1.0
C      1  0.4502070000000  0.5133780000000  0.5851230000000 1.0
C      1  0.4394850000000  0.5334770000000  0.5598700000000 1.0
C      1  0.5264210000000  0.4768710000000  0.4504820000000 1.0
C      1  0.5994720000000  0.5335630000000  0.5153630000000 1.0
END
