TITL C-2848504-8560-158 -0.00124199826433886 125000 -664.71474575699 0 0 124 (C1) n - 1
REM
REM in /home/bkarasulu/work/CARBON/AIRSS/Generating-Clusters/AIREBO/with-SteepDescent/Only-C1/SD-CG-opt/Try1-1.4A-POS3A/HFTN-CG
REM
REM
REM
REM
REM
REM ./C.cell (11c1c37f851c82e70ff6c80c92926a4b)
REM
REM compiler GCC version 9.2.1 20190827 (Red Hat 9.2.1-1)
REM options -cpp -mtune=generic -march=x86-64 -g -O0 -fpre-include=/usr/include/finclude/math-vector-fortran.h
REM seed -246076429 -2081880227 891451168 1660056861 -1857036958 -453734329 921578350 1170602056 -1500643028 97414934 -1555583326 -1713903605 1384346817 2047858670 2115001341 -106199722 1878485102 1794400587 1063544627 -1909775885 -1661689865 -481515084 -1108630047 907488517 -1353275491 443885237 638751590 -2112350656 739906874 -888143389 1005950934 -831743559 485133349
REM
CELL 1.54180   50.00000   50.00000   50.00000   90.00000   90.00000   90.00000
LATT -1
SFAC C  
C      1  0.5214980000000  0.4194080000000  0.5397320000000 1.0
C      1  0.5659170000000  0.4437330000000  0.5237310000000 1.0
C      1  0.4722070000000  0.4433260000000  0.5202180000000 1.0
C      1  0.4837220000000  0.5280920000000  0.5949910000000 1.0
C      1  0.4396270000000  0.5061160000000  0.4574000000000 1.0
C      1  0.4174730000000  0.5412070000000  0.5576430000000 1.0
C      1  0.5332180000000  0.4930900000000  0.5277200000000 1.0
C      1  0.4831470000000  0.4194950000000  0.5029220000000 1.0
C      1  0.5191590000000  0.4040690000000  0.4575880000000 1.0
C      1  0.5083520000000  0.5079870000000  0.4628170000000 1.0
C      1  0.4217720000000  0.4713070000000  0.5480270000000 1.0
C      1  0.4764890000000  0.5053230000000  0.5620480000000 1.0
C      1  0.5076770000000  0.5185760000000  0.5648240000000 1.0
C      1  0.5421460000000  0.4648060000000  0.5331120000000 1.0
C      1  0.5008170000000  0.4169110000000  0.4407110000000 1.0
C      1  0.4835090000000  0.5598010000000  0.4335810000000 1.0
C      1  0.5110930000000  0.4680250000000  0.5958570000000 1.0
C      1  0.5466130000000  0.5461020000000  0.4339780000000 1.0
C      1  0.5539020000000  0.5151210000000  0.5416220000000 1.0
C      1  0.4294860000000  0.5384840000000  0.4604070000000 1.0
C      1  0.4405880000000  0.5635030000000  0.4805410000000 1.0
C      1  0.4895810000000  0.5175510000000  0.3952360000000 1.0
C      1  0.5979330000000  0.5239210000000  0.4925610000000 1.0
C      1  0.4985750000000  0.4318530000000  0.4776420000000 1.0
C      1  0.4883390000000  0.4056210000000  0.4191300000000 1.0
C      1  0.4826210000000  0.5242530000000  0.5344510000000 1.0
C      1  0.5052220000000  0.5733260000000  0.4211030000000 1.0
C      1  0.5667380000000  0.4761000000000  0.5140600000000 1.0
C      1  0.5632370000000  0.5221430000000  0.4951790000000 1.0
C      1  0.5968250000000  0.4702840000000  0.4887350000000 1.0
C      1  0.4514800000000  0.5250330000000  0.5381290000000 1.0
C      1  0.4133540000000  0.5421950000000  0.5105840000000 1.0
C      1  0.5637040000000  0.5613280000000  0.4876310000000 1.0
C      1  0.4368120000000  0.5843000000000  0.4325720000000 1.0
C      1  0.4193530000000  0.5226680000000  0.4876350000000 1.0
C      1  0.4823480000000  0.4714680000000  0.3970730000000 1.0
C      1  0.5036850000000  0.5748430000000  0.5650200000000 1.0
C      1  0.4562410000000  0.5146680000000  0.6045060000000 1.0
C      1  0.4993470000000  0.4953690000000  0.5308700000000 1.0
C      1  0.4568950000000  0.4415640000000  0.5459720000000 1.0
C      1  0.5163400000000  0.4146350000000  0.5084910000000 1.0
C      1  0.4685820000000  0.4534760000000  0.5682550000000 1.0
C      1  0.4112030000000  0.5278130000000  0.5344320000000 1.0
C      1  0.4418300000000  0.4990700000000  0.5913030000000 1.0
C      1  0.4777670000000  0.5552650000000  0.5751320000000 1.0
C      1  0.4486040000000  0.4453330000000  0.4635980000000 1.0
C      1  0.5568210000000  0.4913630000000  0.4891300000000 1.0
C      1  0.5247610000000  0.4439010000000  0.4930670000000 1.0
C      1  0.4740730000000  0.5247090000000  0.4220340000000 1.0
C      1  0.4549480000000  0.5674980000000  0.4499740000000 1.0
C      1  0.5771070000000  0.4512050000000  0.4725040000000 1.0
C      1  0.5083690000000  0.4561510000000  0.5664660000000 1.0
C      1  0.4671890000000  0.5831140000000  0.5079100000000 1.0
C      1  0.4440150000000  0.4138440000000  0.4741980000000 1.0
C      1  0.4937370000000  0.4465260000000  0.4490070000000 1.0
C      1  0.4310690000000  0.5637190000000  0.5067450000000 1.0
C      1  0.5819760000000  0.5458570000000  0.5107500000000 1.0
C      1  0.4757200000000  0.4641190000000  0.4718690000000 1.0
C      1  0.4297510000000  0.4998650000000  0.5309590000000 1.0
C      1  0.5264980000000  0.4914800000000  0.4152340000000 1.0
C      1  0.5513370000000  0.4491330000000  0.4242300000000 1.0
C      1  0.5736950000000  0.5414890000000  0.5404860000000 1.0
C      1  0.5015830000000  0.4928760000000  0.3959940000000 1.0
C      1  0.5399270000000  0.5481200000000  0.5989680000000 1.0
C      1  0.4226920000000  0.6005080000000  0.4188160000000 1.0
C      1  0.4762380000000  0.4764020000000  0.5784710000000 1.0
C      1  0.5639620000000  0.4196310000000  0.4756990000000 1.0
C      1  0.5456250000000  0.5726180000000  0.5141430000000 1.0
C      1  0.4600480000000  0.4025800000000  0.4920390000000 1.0
C      1  0.4818770000000  0.4928930000000  0.4307470000000 1.0
C      1  0.5716860000000  0.4987220000000  0.4392650000000 1.0
C      1  0.5338580000000  0.5750530000000  0.5492290000000 1.0
C      1  0.5703600000000  0.4669300000000  0.4468820000000 1.0
C      1  0.4728610000000  0.4949280000000  0.5095450000000 1.0
C      1  0.5326920000000  0.5278390000000  0.4577360000000 1.0
C      1  0.5248160000000  0.5287660000000  0.5418770000000 1.0
C      1  0.5174990000000  0.5246270000000  0.5968160000000 1.0
C      1  0.5688370000000  0.5449360000000  0.4582870000000 1.0
C      1  0.4339300000000  0.4874190000000  0.4995810000000 1.0
C      1  0.5261030000000  0.4138660000000  0.5670600000000 1.0
C      1  0.4381220000000  0.4705470000000  0.4343760000000 1.0
C      1  0.5851180000000  0.5214970000000  0.4548200000000 1.0
C      1  0.5847490000000  0.5109800000000  0.5300910000000 1.0
C      1  0.4944840000000  0.5308140000000  0.4465760000000 1.0
C      1  0.5349330000000  0.4074030000000  0.4808280000000 1.0
C      1  0.4483290000000  0.5508860000000  0.5582820000000 1.0
C      1  0.4348570000000  0.4749470000000  0.4679490000000 1.0
C      1  0.4860020000000  0.5624630000000  0.4922810000000 1.0
C      1  0.4499590000000  0.5168210000000  0.4972040000000 1.0
C      1  0.5979270000000  0.4837900000000  0.5200200000000 1.0
C      1  0.5310410000000  0.4850550000000  0.4722480000000 1.0
C      1  0.4448120000000  0.4929120000000  0.5606440000000 1.0
C      1  0.4792160000000  0.5709690000000  0.5439440000000 1.0
C      1  0.5205640000000  0.4929580000000  0.6209160000000 1.0
C      1  0.5051730000000  0.4695950000000  0.4879950000000 1.0
C      1  0.5174160000000  0.4504440000000  0.5388800000000 1.0
C      1  0.4753050000000  0.5478940000000  0.4688810000000 1.0
C      1  0.4977910000000  0.4644680000000  0.5190430000000 1.0
C      1  0.4597220000000  0.4726560000000  0.4181730000000 1.0
C      1  0.4291690000000  0.4456940000000  0.5450090000000 1.0
C      1  0.6179770000000  0.4736540000000  0.5362600000000 1.0
C      1  0.5188400000000  0.4352500000000  0.5868230000000 1.0
C      1  0.4475170000000  0.5738010000000  0.5331380000000 1.0
C      1  0.4694550000000  0.4926100000000  0.4585760000000 1.0
C      1  0.5617690000000  0.5662560000000  0.5558720000000 1.0
C      1  0.5875380000000  0.4974540000000  0.4758690000000 1.0
C      1  0.5173480000000  0.5495310000000  0.5751770000000 1.0
C      1  0.4453220000000  0.5283290000000  0.4325560000000 1.0
C      1  0.5298740000000  0.5668260000000  0.4198580000000 1.0
C      1  0.4917670000000  0.5523750000000  0.5228590000000 1.0
C      1  0.5223980000000  0.5196260000000  0.5092150000000 1.0
C      1  0.4993210000000  0.5087940000000  0.4932830000000 1.0
C      1  0.4018670000000  0.4951430000000  0.4911440000000 1.0
C      1  0.4908780000000  0.4951680000000  0.6002620000000 1.0
C      1  0.5215590000000  0.5554940000000  0.5268180000000 1.0
C      1  0.4225140000000  0.4253790000000  0.4544690000000 1.0
C      1  0.5365240000000  0.5408520000000  0.4866990000000 1.0
C      1  0.5454820000000  0.5119270000000  0.4305950000000 1.0
C      1  0.5048150000000  0.4706510000000  0.4336180000000 1.0
C      1  0.5374510000000  0.4742680000000  0.4424470000000 1.0
C      1  0.4615940000000  0.4668570000000  0.5024280000000 1.0
C      1  0.4723700000000  0.5178630000000  0.4770600000000 1.0
C      1  0.5166980000000  0.5638790000000  0.4880660000000 1.0
C      1  0.5537440000000  0.4439720000000  0.4942600000000 1.0
END
