TITL C-2847946-5639-668 0.00222251598107063 125000 -296.362673065902 0 0 54 (C1) n - 1
REM
REM in /home/bkarasulu/work/CARBON/AIRSS/Generating-Clusters/AIREBO/with-SteepDescent/Only-C1/SD-CG-opt/Try1-1.4A-POS3A/HFTN-CG
REM
REM
REM
REM
REM
REM ./C.cell (11c1c37f851c82e70ff6c80c92926a4b)
REM
REM compiler GCC version 9.2.1 20190827 (Red Hat 9.2.1-1)
REM options -cpp -mtune=generic -march=x86-64 -g -O0 -fpre-include=/usr/include/finclude/math-vector-fortran.h
REM seed 978029664 -1715754840 -1717809225 256841014 319635696 -1739743216 574219082 1604073745 -677115599 -1544803027 -552430998 1247335570 572403287 -1433112666 1266150793 1921082363 -1200306909 454616299 -1026027190 -1945002989 1673896636 -1804000139 77808126 806686715 -772172062 -2127340503 -1156486406 1251252562 691097709 795372634 1102313935 574117350 -403225833
REM
CELL 1.54180   50.00000   50.00000   50.00000   90.00000   90.00000   90.00000
LATT -1
SFAC C  
C      1  0.4681100000000  0.4289470000000  0.5180800000000 1.0
C      1  0.5458560000000  0.4747970000000  0.4970640000000 1.0
C      1  0.5485600000000  0.5534140000000  0.4483300000000 1.0
C      1  0.4940510000000  0.5894480000000  0.4913830000000 1.0
C      1  0.4434490000000  0.5079810000000  0.4772930000000 1.0
C      1  0.4488900000000  0.5427920000000  0.5273170000000 1.0
C      1  0.5090790000000  0.5213470000000  0.4568470000000 1.0
C      1  0.4899100000000  0.5820830000000  0.4649490000000 1.0
C      1  0.4310640000000  0.5380320000000  0.4828600000000 1.0
C      1  0.4407700000000  0.4830460000000  0.5129750000000 1.0
C      1  0.5099830000000  0.4449940000000  0.4600660000000 1.0
C      1  0.5361060000000  0.4798880000000  0.5974480000000 1.0
C      1  0.5075490000000  0.5030440000000  0.4804820000000 1.0
C      1  0.5476880000000  0.4897250000000  0.5453260000000 1.0
C      1  0.4741640000000  0.4885920000000  0.5796630000000 1.0
C      1  0.5265490000000  0.5139810000000  0.4286440000000 1.0
C      1  0.5244520000000  0.4676950000000  0.4422730000000 1.0
C      1  0.5204360000000  0.4613010000000  0.5483030000000 1.0
C      1  0.5253190000000  0.5079720000000  0.5058410000000 1.0
C      1  0.4296130000000  0.5483430000000  0.5085660000000 1.0
C      1  0.5408430000000  0.5134930000000  0.5333220000000 1.0
C      1  0.4795370000000  0.4788210000000  0.5216510000000 1.0
C      1  0.4556290000000  0.5346070000000  0.4633540000000 1.0
C      1  0.5344010000000  0.4783060000000  0.5705070000000 1.0
C      1  0.5279120000000  0.5483990000000  0.4923560000000 1.0
C      1  0.4655260000000  0.4533260000000  0.5040000000000 1.0
C      1  0.5455650000000  0.4624620000000  0.5253580000000 1.0
C      1  0.5438020000000  0.5409280000000  0.5391700000000 1.0
C      1  0.5055940000000  0.5743240000000  0.5118100000000 1.0
C      1  0.4588930000000  0.4828320000000  0.4389940000000 1.0
C      1  0.5568280000000  0.5069790000000  0.4973680000000 1.0
C      1  0.5263250000000  0.4682240000000  0.4765000000000 1.0
C      1  0.5086150000000  0.4908480000000  0.4311570000000 1.0
C      1  0.4733330000000  0.5333190000000  0.5272750000000 1.0
C      1  0.4402870000000  0.4633620000000  0.4872320000000 1.0
C      1  0.5627860000000  0.4404040000000  0.5275790000000 1.0
C      1  0.4438280000000  0.4808650000000  0.5394020000000 1.0
C      1  0.5358880000000  0.4832060000000  0.6234460000000 1.0
C      1  0.4438200000000  0.4801500000000  0.4630390000000 1.0
C      1  0.4940560000000  0.5083280000000  0.5176220000000 1.0
C      1  0.4971790000000  0.5588780000000  0.4529030000000 1.0
C      1  0.4933980000000  0.4736290000000  0.4830960000000 1.0
C      1  0.4791180000000  0.5312660000000  0.4460520000000 1.0
C      1  0.5001420000000  0.5410520000000  0.5105890000000 1.0
C      1  0.4846690000000  0.4410000000000  0.4719220000000 1.0
C      1  0.5768500000000  0.4850620000000  0.4866340000000 1.0
C      1  0.4726800000000  0.4768630000000  0.5547120000000 1.0
C      1  0.5334320000000  0.5600840000000  0.5213850000000 1.0
C      1  0.4833510000000  0.4294110000000  0.5411050000000 1.0
C      1  0.5452770000000  0.4585700000000  0.4261490000000 1.0
C      1  0.4668850000000  0.4923510000000  0.4932670000000 1.0
C      1  0.5256350000000  0.5480530000000  0.4630770000000 1.0
C      1  0.4821130000000  0.4992220000000  0.4349750000000 1.0
C      1  0.4942050000000  0.4539550000000  0.5492820000000 1.0
END
