TITL C-2847950-6905-215 -0.000783890550236418 125000 -599.77242285406 0 0 111 (C1) n - 1
REM
REM in /home/bkarasulu/work/CARBON/AIRSS/Generating-Clusters/AIREBO/with-SteepDescent/Only-C1/SD-CG-opt/Try1-1.4A-POS3A/HFTN-CG
REM
REM
REM
REM
REM
REM ./C.cell (11c1c37f851c82e70ff6c80c92926a4b)
REM
REM compiler GCC version 9.2.1 20190827 (Red Hat 9.2.1-1)
REM options -cpp -mtune=generic -march=x86-64 -g -O0 -fpre-include=/usr/include/finclude/math-vector-fortran.h
REM seed 1333055635 -1733151294 2070783596 1095229588 964472352 211460527 -658192619 582067989 -2020164842 -1641437912 406565306 -1203075013 -1548894525 -655872991 -1426418198 628187746 533697428 -2121198172 -1636903872 -1236164076 19384651 -206604527 855624634 405500895 -242082080 -1524915937 -1220761253 997053198 655941154 1486799134 -744174815 -2026562170 -1506716629
REM
CELL 1.54180   50.00000   50.00000   50.00000   90.00000   90.00000   90.00000
LATT -1
SFAC C  
C      1  0.5524680000000  0.5555310000000  0.5281550000000 1.0
C      1  0.5319630000000  0.5013410000000  0.4044340000000 1.0
C      1  0.5394880000000  0.4982400000000  0.5253870000000 1.0
C      1  0.4697820000000  0.4902390000000  0.5035310000000 1.0
C      1  0.5883600000000  0.5592950000000  0.4484940000000 1.0
C      1  0.4856960000000  0.5140810000000  0.5744850000000 1.0
C      1  0.4730050000000  0.5193570000000  0.4048180000000 1.0
C      1  0.5209260000000  0.5596770000000  0.5927400000000 1.0
C      1  0.4820550000000  0.4642460000000  0.4562040000000 1.0
C      1  0.4941230000000  0.5471780000000  0.5438680000000 1.0
C      1  0.5120750000000  0.4134350000000  0.4647630000000 1.0
C      1  0.5632860000000  0.5206460000000  0.4442230000000 1.0
C      1  0.4337070000000  0.5288500000000  0.4470320000000 1.0
C      1  0.4832300000000  0.5816170000000  0.4548330000000 1.0
C      1  0.4857650000000  0.5430320000000  0.4206480000000 1.0
C      1  0.4675680000000  0.4936720000000  0.4503920000000 1.0
C      1  0.4110890000000  0.4733590000000  0.5013540000000 1.0
C      1  0.4863580000000  0.5178800000000  0.4651200000000 1.0
C      1  0.5552800000000  0.3870660000000  0.4814880000000 1.0
C      1  0.4984420000000  0.4633850000000  0.5067690000000 1.0
C      1  0.4983440000000  0.5722450000000  0.4323950000000 1.0
C      1  0.5177610000000  0.4776330000000  0.4030520000000 1.0
C      1  0.5577370000000  0.5613190000000  0.4664370000000 1.0
C      1  0.4562640000000  0.4767260000000  0.5700810000000 1.0
C      1  0.5372510000000  0.5381710000000  0.4563060000000 1.0
C      1  0.4228540000000  0.5100560000000  0.5773490000000 1.0
C      1  0.5212490000000  0.4521260000000  0.6082150000000 1.0
C      1  0.5004510000000  0.5137590000000  0.5438360000000 1.0
C      1  0.4978490000000  0.4398010000000  0.5625860000000 1.0
C      1  0.5016390000000  0.4345580000000  0.4253840000000 1.0
C      1  0.4747300000000  0.4337550000000  0.4943680000000 1.0
C      1  0.5677500000000  0.4896240000000  0.5276980000000 1.0
C      1  0.4894060000000  0.5931590000000  0.5294680000000 1.0
C      1  0.4645310000000  0.4649570000000  0.4853590000000 1.0
C      1  0.4708990000000  0.4507400000000  0.5221940000000 1.0
C      1  0.5769320000000  0.5545150000000  0.5008250000000 1.0
C      1  0.4755160000000  0.5244860000000  0.5233310000000 1.0
C      1  0.4440730000000  0.4972860000000  0.4690710000000 1.0
C      1  0.5347170000000  0.4646190000000  0.5234000000000 1.0
C      1  0.4822300000000  0.4670920000000  0.5496280000000 1.0
C      1  0.5748550000000  0.4643410000000  0.4464560000000 1.0
C      1  0.4711030000000  0.5430170000000  0.5762620000000 1.0
C      1  0.4108650000000  0.4578920000000  0.5243560000000 1.0
C      1  0.5428510000000  0.4709560000000  0.5664160000000 1.0
C      1  0.5147870000000  0.4767870000000  0.5481240000000 1.0
C      1  0.5356500000000  0.4331670000000  0.5334360000000 1.0
C      1  0.4253240000000  0.4492220000000  0.5467240000000 1.0
C      1  0.5176640000000  0.5859050000000  0.5312410000000 1.0
C      1  0.5395490000000  0.5213830000000  0.4206350000000 1.0
C      1  0.5781610000000  0.4908200000000  0.4458910000000 1.0
C      1  0.5138160000000  0.4483320000000  0.4045980000000 1.0
C      1  0.4382820000000  0.5282390000000  0.4819360000000 1.0
C      1  0.4697430000000  0.4955580000000  0.4177900000000 1.0
C      1  0.4119000000000  0.4846040000000  0.5798240000000 1.0
C      1  0.5038150000000  0.5439270000000  0.4773860000000 1.0
C      1  0.4922450000000  0.4748140000000  0.4253460000000 1.0
C      1  0.4474450000000  0.5652360000000  0.5336980000000 1.0
C      1  0.5654050000000  0.4528780000000  0.4699240000000 1.0
C      1  0.5817530000000  0.5386470000000  0.4746880000000 1.0
C      1  0.5110040000000  0.4943750000000  0.4686500000000 1.0
C      1  0.4326030000000  0.4673320000000  0.4802300000000 1.0
C      1  0.4665260000000  0.5376590000000  0.4458320000000 1.0
C      1  0.4495600000000  0.4337480000000  0.5411560000000 1.0
C      1  0.5143470000000  0.4654600000000  0.4796910000000 1.0
C      1  0.5232110000000  0.5207960000000  0.5117660000000 1.0
C      1  0.5419720000000  0.4615970000000  0.4927090000000 1.0
C      1  0.5344520000000  0.3998560000000  0.4720250000000 1.0
C      1  0.4535430000000  0.5098150000000  0.5627040000000 1.0
C      1  0.5645040000000  0.4414850000000  0.5365340000000 1.0
C      1  0.5461870000000  0.5679460000000  0.4971760000000 1.0
C      1  0.4124050000000  0.5061740000000  0.4607660000000 1.0
C      1  0.4923150000000  0.4173270000000  0.5188710000000 1.0
C      1  0.4177290000000  0.4740820000000  0.4504090000000 1.0
C      1  0.5192580000000  0.5530660000000  0.5225320000000 1.0
C      1  0.5178840000000  0.4866020000000  0.4417530000000 1.0
C      1  0.3998190000000  0.4976240000000  0.4916040000000 1.0
C      1  0.4858000000000  0.4036370000000  0.4558130000000 1.0
C      1  0.4469760000000  0.5604310000000  0.4828590000000 1.0
C      1  0.4845680000000  0.4117970000000  0.4281930000000 1.0
C      1  0.4768250000000  0.5937080000000  0.5036260000000 1.0
C      1  0.4622170000000  0.5645220000000  0.4600980000000 1.0
C      1  0.4107780000000  0.5239690000000  0.4965400000000 1.0
C      1  0.4511270000000  0.5425760000000  0.5538940000000 1.0
C      1  0.4648030000000  0.4103420000000  0.5252120000000 1.0
C      1  0.5458560000000  0.5913040000000  0.4586360000000 1.0
C      1  0.5185040000000  0.5449750000000  0.4295660000000 1.0
C      1  0.4658470000000  0.4122370000000  0.4738960000000 1.0
C      1  0.5312320000000  0.4772190000000  0.6155040000000 1.0
C      1  0.4298140000000  0.4654810000000  0.5690160000000 1.0
C      1  0.5825000000000  0.4939020000000  0.5007220000000 1.0
C      1  0.5751650000000  0.4651810000000  0.4969710000000 1.0
C      1  0.4975110000000  0.5915160000000  0.4800960000000 1.0
C      1  0.5992340000000  0.5633130000000  0.5217000000000 1.0
C      1  0.4668350000000  0.4940200000000  0.5356860000000 1.0
C      1  0.5259230000000  0.6023740000000  0.4692750000000 1.0
C      1  0.5666760000000  0.4680460000000  0.5473390000000 1.0
C      1  0.4755350000000  0.5723470000000  0.5432900000000 1.0
C      1  0.4535550000000  0.5755170000000  0.5051880000000 1.0
C      1  0.5091050000000  0.4440720000000  0.4563160000000 1.0
C      1  0.4680880000000  0.5195890000000  0.4925210000000 1.0
C      1  0.5790670000000  0.5624690000000  0.5404190000000 1.0
C      1  0.5104910000000  0.4235290000000  0.5391690000000 1.0
C      1  0.5170930000000  0.5009610000000  0.5705940000000 1.0
C      1  0.5012610000000  0.4950600000000  0.5154450000000 1.0
C      1  0.5739080000000  0.5073930000000  0.4740540000000 1.0
C      1  0.4677560000000  0.4298650000000  0.5675470000000 1.0
C      1  0.5136840000000  0.5672820000000  0.4920510000000 1.0
C      1  0.5370170000000  0.4916460000000  0.5928960000000 1.0
C      1  0.5015640000000  0.5507240000000  0.5765940000000 1.0
C      1  0.5201670000000  0.4498150000000  0.5807750000000 1.0
C      1  0.5241340000000  0.5197570000000  0.4796350000000 1.0
END
