TITL C-2848507-1641-235 -0.00156132520385822 125000 -680.090044929578 0 0 126 (C1) n - 1
REM
REM in /home/bkarasulu/work/CARBON/AIRSS/Generating-Clusters/AIREBO/with-SteepDescent/Only-C1/SD-CG-opt/Try1-1.4A-POS3A/HFTN-CG
REM
REM
REM
REM
REM
REM ./C.cell (11c1c37f851c82e70ff6c80c92926a4b)
REM
REM compiler GCC version 9.2.1 20190827 (Red Hat 9.2.1-1)
REM options -cpp -mtune=generic -march=x86-64 -g -O0 -fpre-include=/usr/include/finclude/math-vector-fortran.h
REM seed -171905031 489810940 -1897442878 -2043553079 -1796133266 1412090640 1638268581 719831725 -821061862 -564525194 -701315815 -87959458 -33705451 -240897188 456518188 1004070959 -163940330 -2142530983 -1031374371 -219639482 594286829 915391965 -745367998 -402616623 -711107726 1541331751 -629412118 -1706256765 1237334213 -853949216 -1953934884 833410397 -18640706
REM
CELL 1.54180   50.00000   50.00000   50.00000   90.00000   90.00000   90.00000
LATT -1
SFAC C  
C      1  0.5109360000000  0.4499820000000  0.5637440000000 1.0
C      1  0.5033410000000  0.4970940000000  0.5421390000000 1.0
C      1  0.5727610000000  0.4940100000000  0.5788730000000 1.0
C      1  0.4156250000000  0.5300970000000  0.4601790000000 1.0
C      1  0.4325550000000  0.5023030000000  0.4503130000000 1.0
C      1  0.5009620000000  0.4065870000000  0.5180880000000 1.0
C      1  0.4949500000000  0.5284560000000  0.4379510000000 1.0
C      1  0.4796850000000  0.4276510000000  0.5019520000000 1.0
C      1  0.4051020000000  0.5299950000000  0.5314790000000 1.0
C      1  0.5372690000000  0.5918190000000  0.5161490000000 1.0
C      1  0.4072990000000  0.4653660000000  0.5205040000000 1.0
C      1  0.5215590000000  0.5047610000000  0.4921850000000 1.0
C      1  0.4834740000000  0.4698700000000  0.5429610000000 1.0
C      1  0.4793270000000  0.4190840000000  0.4451020000000 1.0
C      1  0.5760710000000  0.4787910000000  0.5314380000000 1.0
C      1  0.4965580000000  0.4859120000000  0.4942610000000 1.0
C      1  0.4556150000000  0.4935760000000  0.4706840000000 1.0
C      1  0.5555900000000  0.4819690000000  0.4566050000000 1.0
C      1  0.5603150000000  0.5278900000000  0.4125670000000 1.0
C      1  0.5147800000000  0.5506230000000  0.4114670000000 1.0
C      1  0.4690960000000  0.4934550000000  0.5621780000000 1.0
C      1  0.5132710000000  0.4339840000000  0.4919890000000 1.0
C      1  0.4579700000000  0.4541110000000  0.5588190000000 1.0
C      1  0.4625910000000  0.4240630000000  0.5311280000000 1.0
C      1  0.5200120000000  0.4462210000000  0.4649330000000 1.0
C      1  0.4448110000000  0.5473020000000  0.4223970000000 1.0
C      1  0.5520930000000  0.5510660000000  0.4831380000000 1.0
C      1  0.4329540000000  0.5400670000000  0.5388460000000 1.0
C      1  0.5116780000000  0.4506090000000  0.4199170000000 1.0
C      1  0.5849780000000  0.4946450000000  0.4567700000000 1.0
C      1  0.5468050000000  0.4843350000000  0.5830640000000 1.0
C      1  0.4957690000000  0.5443450000000  0.5266530000000 1.0
C      1  0.4794870000000  0.5177370000000  0.5402140000000 1.0
C      1  0.5359040000000  0.5027940000000  0.5195030000000 1.0
C      1  0.5776740000000  0.5059570000000  0.5499370000000 1.0
C      1  0.4828460000000  0.5503730000000  0.4109570000000 1.0
C      1  0.4574940000000  0.4421300000000  0.4533080000000 1.0
C      1  0.5481630000000  0.5607730000000  0.5113800000000 1.0
C      1  0.5092260000000  0.4266870000000  0.4399780000000 1.0
C      1  0.5617100000000  0.4201770000000  0.5009620000000 1.0
C      1  0.5340790000000  0.4949730000000  0.4371690000000 1.0
C      1  0.4515250000000  0.4824390000000  0.5229790000000 1.0
C      1  0.5810400000000  0.5370040000000  0.5587380000000 1.0
C      1  0.5241820000000  0.5244050000000  0.4470280000000 1.0
C      1  0.5267840000000  0.5293360000000  0.4765240000000 1.0
C      1  0.5232410000000  0.4732150000000  0.5430560000000 1.0
C      1  0.5405560000000  0.4807730000000  0.4865300000000 1.0
C      1  0.4485370000000  0.4774870000000  0.4332460000000 1.0
C      1  0.6028050000000  0.4908030000000  0.5141560000000 1.0
C      1  0.5098820000000  0.4693660000000  0.3971510000000 1.0
C      1  0.5066020000000  0.4785850000000  0.4359240000000 1.0
C      1  0.5237950000000  0.5828480000000  0.5594910000000 1.0
C      1  0.5596470000000  0.5242080000000  0.5275830000000 1.0
C      1  0.4873380000000  0.5362800000000  0.4946580000000 1.0
C      1  0.4983570000000  0.5212370000000  0.4057750000000 1.0
C      1  0.5276250000000  0.5152280000000  0.5493260000000 1.0
C      1  0.5788340000000  0.5166060000000  0.5038370000000 1.0
C      1  0.5010970000000  0.4711510000000  0.4650670000000 1.0
C      1  0.4480000000000  0.5641210000000  0.4709960000000 1.0
C      1  0.4038340000000  0.5197820000000  0.5063280000000 1.0
C      1  0.5661240000000  0.4497150000000  0.5460410000000 1.0
C      1  0.4353630000000  0.4222030000000  0.5273290000000 1.0
C      1  0.4435170000000  0.5527160000000  0.5012400000000 1.0
C      1  0.4512300000000  0.5282020000000  0.4410180000000 1.0
C      1  0.4325120000000  0.4631490000000  0.4595960000000 1.0
C      1  0.5703320000000  0.4887190000000  0.4931520000000 1.0
C      1  0.5071370000000  0.4033490000000  0.4860490000000 1.0
C      1  0.5125340000000  0.5780760000000  0.5058880000000 1.0
C      1  0.4966940000000  0.4712790000000  0.5859290000000 1.0
C      1  0.4968570000000  0.4607570000000  0.5162220000000 1.0
C      1  0.4092310000000  0.4838600000000  0.4668140000000 1.0
C      1  0.5512030000000  0.4497650000000  0.4636900000000 1.0
C      1  0.5023030000000  0.5951850000000  0.5475850000000 1.0
C      1  0.4634790000000  0.5696830000000  0.4238720000000 1.0
C      1  0.5404800000000  0.4280280000000  0.5496630000000 1.0
C      1  0.5116320000000  0.4351750000000  0.5331170000000 1.0
C      1  0.4099350000000  0.4797690000000  0.5511900000000 1.0
C      1  0.5436760000000  0.4546310000000  0.5716970000000 1.0
C      1  0.5642280000000  0.4214860000000  0.4734630000000 1.0
C      1  0.5585480000000  0.5511900000000  0.5626280000000 1.0
C      1  0.4801200000000  0.5957250000000  0.4746440000000 1.0
C      1  0.4666310000000  0.4172080000000  0.4751400000000 1.0
C      1  0.4926500000000  0.4924900000000  0.4013120000000 1.0
C      1  0.4774590000000  0.5695400000000  0.4548680000000 1.0
C      1  0.4756010000000  0.5066030000000  0.5022400000000 1.0
C      1  0.4708390000000  0.4672000000000  0.4702330000000 1.0
C      1  0.5722070000000  0.4570180000000  0.4897430000000 1.0
C      1  0.5497920000000  0.5745250000000  0.5426090000000 1.0
C      1  0.4106990000000  0.4899640000000  0.4991120000000 1.0
C      1  0.4923750000000  0.5498150000000  0.5600530000000 1.0
C      1  0.4444650000000  0.5258520000000  0.5667260000000 1.0
C      1  0.5263190000000  0.5091640000000  0.5800620000000 1.0
C      1  0.6015740000000  0.4827110000000  0.4811550000000 1.0
C      1  0.5370500000000  0.5622280000000  0.4564490000000 1.0
C      1  0.5375880000000  0.4385260000000  0.5114060000000 1.0
C      1  0.4349180000000  0.4602950000000  0.5398510000000 1.0
C      1  0.5364560000000  0.5415800000000  0.5779060000000 1.0
C      1  0.5770430000000  0.4421570000000  0.5160870000000 1.0
C      1  0.4378020000000  0.4985410000000  0.5498960000000 1.0
C      1  0.4848540000000  0.5765510000000  0.5253960000000 1.0
C      1  0.4763580000000  0.5364000000000  0.4624380000000 1.0
C      1  0.4210820000000  0.4391040000000  0.5090410000000 1.0
C      1  0.5457300000000  0.4702580000000  0.5185230000000 1.0
C      1  0.4259640000000  0.5575980000000  0.4558810000000 1.0
C      1  0.4606230000000  0.5557500000000  0.5624080000000 1.0
C      1  0.4571510000000  0.5288670000000  0.5194890000000 1.0
C      1  0.4163750000000  0.5369340000000  0.4886950000000 1.0
C      1  0.4657100000000  0.4586590000000  0.5027420000000 1.0
C      1  0.4765410000000  0.5967490000000  0.4993350000000 1.0
C      1  0.5105730000000  0.3987710000000  0.4593720000000 1.0
C      1  0.4377690000000  0.4477320000000  0.4875620000000 1.0
C      1  0.4828880000000  0.4324000000000  0.5559090000000 1.0
C      1  0.5135950000000  0.5544010000000  0.4923500000000 1.0
C      1  0.5159250000000  0.5599870000000  0.5733620000000 1.0
C      1  0.5088460000000  0.5657000000000  0.4414220000000 1.0
C      1  0.4745660000000  0.4827490000000  0.4244340000000 1.0
C      1  0.4943640000000  0.5022730000000  0.5831700000000 1.0
C      1  0.4527330000000  0.5666570000000  0.5311720000000 1.0
C      1  0.5296450000000  0.5407370000000  0.5290540000000 1.0
C      1  0.5533640000000  0.5032420000000  0.4128460000000 1.0
C      1  0.5864440000000  0.5233700000000  0.4577320000000 1.0
C      1  0.5410780000000  0.5459010000000  0.4284830000000 1.0
C      1  0.5778300000000  0.5353870000000  0.4809700000000 1.0
C      1  0.4568120000000  0.4716870000000  0.5852540000000 1.0
C      1  0.4756850000000  0.5290380000000  0.5789200000000 1.0
C      1  0.4428250000000  0.4985060000000  0.4980850000000 1.0
END
