TITL C-2848497-6229-634 -0.00097846024017072 125000 -117.36158437827 0 0 22 (C1) n - 1
REM
REM in /home/bkarasulu/work/CARBON/AIRSS/Generating-Clusters/AIREBO/with-SteepDescent/Only-C1/SD-CG-opt/Try1-1.4A-POS3A/HFTN-CG
REM
REM
REM
REM
REM
REM ./C.cell (11c1c37f851c82e70ff6c80c92926a4b)
REM
REM compiler GCC version 9.2.1 20190827 (Red Hat 9.2.1-1)
REM options -cpp -mtune=generic -march=x86-64 -g -O0 -fpre-include=/usr/include/finclude/math-vector-fortran.h
REM seed -1815735561 1427169178 -165072999 385201888 -26428519 -742225093 280738794 -1548110106 1631536574 -444070045 1653286306 -1885406942 1027022184 135791098 -1283639550 -1918819361 -1406711294 251040882 -1412735801 -681281359 -1781462855 306964486 1779826608 -148414712 -1532394477 2135448331 2125878675 -1340565667 1001193164 -428817522 787830499 1373626439 -814567601
REM
CELL 1.54180   50.00000   50.00000   50.00000   90.00000   90.00000   90.00000
LATT -1
SFAC C  
C      1  0.4780310000000  0.5365180000000  0.4697420000000 1.0
C      1  0.4440350000000  0.5251840000000  0.5047040000000 1.0
C      1  0.4591030000000  0.4792550000000  0.5217820000000 1.0
C      1  0.4218400000000  0.5388880000000  0.4981190000000 1.0
C      1  0.5349080000000  0.4476130000000  0.5118590000000 1.0
C      1  0.4895740000000  0.4764370000000  0.5222590000000 1.0
C      1  0.5236680000000  0.5350770000000  0.4368480000000 1.0
C      1  0.5355680000000  0.5295120000000  0.4652090000000 1.0
C      1  0.5484990000000  0.5187180000000  0.4869500000000 1.0
C      1  0.4997450000000  0.5396340000000  0.5354590000000 1.0
C      1  0.5385100000000  0.4962220000000  0.5003860000000 1.0
C      1  0.5025600000000  0.4989620000000  0.5070100000000 1.0
C      1  0.5066130000000  0.4951000000000  0.4763750000000 1.0
C      1  0.4437780000000  0.5014990000000  0.5198420000000 1.0
C      1  0.5342500000000  0.4519170000000  0.5427810000000 1.0
C      1  0.5039300000000  0.4465850000000  0.5177560000000 1.0
C      1  0.5422370000000  0.4669890000000  0.4928040000000 1.0
C      1  0.5049890000000  0.4611850000000  0.5482950000000 1.0
C      1  0.5234100000000  0.4743900000000  0.4704870000000 1.0
C      1  0.5031790000000  0.5215240000000  0.4605720000000 1.0
C      1  0.4915090000000  0.5255790000000  0.5140380000000 1.0
C      1  0.4700640000000  0.5332110000000  0.4967230000000 1.0
END
