TITL C-2848494-1720-455 0.00383915010891119 125000 -119.372952141379 0 0 23 (C1) n - 1
REM
REM in /home/bkarasulu/work/CARBON/AIRSS/Generating-Clusters/AIREBO/with-SteepDescent/Only-C1/SD-CG-opt/Try1-1.4A-POS3A/HFTN-CG
REM
REM
REM
REM
REM
REM ./C.cell (11c1c37f851c82e70ff6c80c92926a4b)
REM
REM compiler GCC version 9.2.1 20190827 (Red Hat 9.2.1-1)
REM options -cpp -mtune=generic -march=x86-64 -g -O0 -fpre-include=/usr/include/finclude/math-vector-fortran.h
REM seed -2043207433 293002351 568496631 -1772435100 618687480 5502699 54667690 -1162943089 1421880436 1910736197 1405271186 -1166113121 1172577078 1218282386 -2035946023 1181520668 -1336464929 1216935314 580294057 -1026892291 1067877492 1347384093 -694605740 -907921356 1551715091 -1030003781 -326983485 -833700068 -2045033965 856349602 -89270595 -196984712 -79353433
REM
CELL 1.54180   50.00000   50.00000   50.00000   90.00000   90.00000   90.00000
LATT -1
SFAC C  
C      1  0.4843480000000  0.4677310000000  0.5471490000000 1.0
C      1  0.5059310000000  0.4596110000000  0.4634170000000 1.0
C      1  0.5358610000000  0.4737680000000  0.5344240000000 1.0
C      1  0.4526830000000  0.5850160000000  0.4793990000000 1.0
C      1  0.4848210000000  0.4650500000000  0.4851390000000 1.0
C      1  0.5455040000000  0.5272590000000  0.5240280000000 1.0
C      1  0.5660200000000  0.4634360000000  0.4861810000000 1.0
C      1  0.4678720000000  0.5326240000000  0.4853670000000 1.0
C      1  0.4932010000000  0.5104250000000  0.4806350000000 1.0
C      1  0.5234150000000  0.5407940000000  0.5152500000000 1.0
C      1  0.5064370000000  0.5365070000000  0.4946790000000 1.0
C      1  0.5404860000000  0.5003140000000  0.4641880000000 1.0
C      1  0.5148440000000  0.4899300000000  0.4766280000000 1.0
C      1  0.4591310000000  0.5603700000000  0.4810000000000 1.0
C      1  0.5473090000000  0.4740550000000  0.5026280000000 1.0
C      1  0.4647540000000  0.5073720000000  0.4622660000000 1.0
C      1  0.4639540000000  0.4823790000000  0.4825460000000 1.0
C      1  0.4566600000000  0.5054720000000  0.5009970000000 1.0
C      1  0.5489380000000  0.5002930000000  0.5235710000000 1.0
C      1  0.5081640000000  0.4648450000000  0.5341950000000 1.0
C      1  0.5140010000000  0.4670190000000  0.5017420000000 1.0
C      1  0.4510900000000  0.4992710000000  0.5273470000000 1.0
C      1  0.4645760000000  0.4864600000000  0.5472250000000 1.0
END
