TITL C-2848502-4955-427 -0.00261117574389041 125000 -828.240124662298 0 0 148 (C1) n - 1
REM
REM in /home/bkarasulu/work/CARBON/AIRSS/Generating-Clusters/AIREBO/with-SteepDescent/Only-C1/SD-CG-opt/Try1-1.4A-POS3A/HFTN-CG
REM
REM
REM
REM
REM
REM ./C.cell (11c1c37f851c82e70ff6c80c92926a4b)
REM
REM compiler GCC version 9.2.1 20190827 (Red Hat 9.2.1-1)
REM options -cpp -mtune=generic -march=x86-64 -g -O0 -fpre-include=/usr/include/finclude/math-vector-fortran.h
REM seed -1510428490 -400834734 -1568583042 -208058327 1826037307 -682372838 -1048208352 714507189 -1085645245 -1414357278 -791019100 -597826657 -565776180 -1847758049 1511740532 -859292923 -1764795107 584829775 -186274669 1204235864 -1668972232 1202542695 -475590271 761307359 1188804782 867300078 -831317229 -1611745084 -604861486 -1661741657 1075192033 -212262467 -1044739965
REM
CELL 1.54180   50.00000   50.00000   50.00000   90.00000   90.00000   90.00000
LATT -1
SFAC C  
C      1  0.4685770000000  0.5039140000000  0.4522080000000 1.0
C      1  0.5111080000000  0.4090400000000  0.4932610000000 1.0
C      1  0.4944900000000  0.5501020000000  0.5276440000000 1.0
C      1  0.5445960000000  0.4806520000000  0.5197780000000 1.0
C      1  0.4453380000000  0.4088180000000  0.4813270000000 1.0
C      1  0.4882820000000  0.5193200000000  0.5059830000000 1.0
C      1  0.5309440000000  0.4838260000000  0.5862390000000 1.0
C      1  0.4258570000000  0.4985000000000  0.5701640000000 1.0
C      1  0.4595420000000  0.4794370000000  0.4127510000000 1.0
C      1  0.4665240000000  0.4305240000000  0.5808240000000 1.0
C      1  0.5731060000000  0.4609830000000  0.5000840000000 1.0
C      1  0.4421720000000  0.4897250000000  0.4371560000000 1.0
C      1  0.6123400000000  0.4869260000000  0.5445550000000 1.0
C      1  0.4034940000000  0.5061210000000  0.4693470000000 1.0
C      1  0.5312220000000  0.5645380000000  0.5077240000000 1.0
C      1  0.4723610000000  0.5370220000000  0.4454350000000 1.0
C      1  0.5820850000000  0.5366130000000  0.4363820000000 1.0
C      1  0.4266170000000  0.5603340000000  0.5284460000000 1.0
C      1  0.5395190000000  0.4507120000000  0.4131870000000 1.0
C      1  0.4970340000000  0.4679270000000  0.4962780000000 1.0
C      1  0.4819860000000  0.4770170000000  0.5950620000000 1.0
C      1  0.5247350000000  0.4909270000000  0.4447530000000 1.0
C      1  0.4232020000000  0.4261150000000  0.4630790000000 1.0
C      1  0.4290340000000  0.4595380000000  0.4286460000000 1.0
C      1  0.4354120000000  0.5267540000000  0.4817030000000 1.0
C      1  0.5183970000000  0.4346440000000  0.4267780000000 1.0
C      1  0.4288580000000  0.4151080000000  0.5381310000000 1.0
C      1  0.4632910000000  0.4149540000000  0.5056370000000 1.0
C      1  0.5915030000000  0.5153020000000  0.5134670000000 1.0
C      1  0.4028420000000  0.5328220000000  0.4893550000000 1.0
C      1  0.5436360000000  0.5264780000000  0.4350090000000 1.0
C      1  0.5473230000000  0.4095310000000  0.5005990000000 1.0
C      1  0.4473340000000  0.4335020000000  0.5266770000000 1.0
C      1  0.4525920000000  0.5243330000000  0.3976310000000 1.0
C      1  0.4964960000000  0.5069810000000  0.4047760000000 1.0
C      1  0.4439630000000  0.5411190000000  0.4176270000000 1.0
C      1  0.5187150000000  0.5026380000000  0.5489250000000 1.0
C      1  0.5077510000000  0.5861050000000  0.5364500000000 1.0
C      1  0.4894550000000  0.4083580000000  0.5139720000000 1.0
C      1  0.5231670000000  0.5451770000000  0.4187540000000 1.0
C      1  0.5090570000000  0.4653470000000  0.5936250000000 1.0
C      1  0.4581330000000  0.5341790000000  0.5035410000000 1.0
C      1  0.5285600000000  0.4347820000000  0.4980550000000 1.0
C      1  0.5007470000000  0.6035390000000  0.4641230000000 1.0
C      1  0.5096530000000  0.5049440000000  0.4885120000000 1.0
C      1  0.5550400000000  0.5465430000000  0.5240720000000 1.0
C      1  0.4697260000000  0.5015700000000  0.3985400000000 1.0
C      1  0.5154530000000  0.5776690000000  0.4567230000000 1.0
C      1  0.4991530000000  0.4184510000000  0.4403620000000 1.0
C      1  0.4654650000000  0.5068930000000  0.5496800000000 1.0
C      1  0.4744290000000  0.6061620000000  0.4532600000000 1.0
C      1  0.5116730000000  0.4890750000000  0.5185290000000 1.0
C      1  0.4495820000000  0.4893440000000  0.5858720000000 1.0
C      1  0.5368580000000  0.5657440000000  0.4377890000000 1.0
C      1  0.4770200000000  0.5948220000000  0.5029610000000 1.0
C      1  0.4805480000000  0.4837290000000  0.4713550000000 1.0
C      1  0.5409890000000  0.4379200000000  0.5751050000000 1.0
C      1  0.5181850000000  0.5288090000000  0.5190220000000 1.0
C      1  0.5872700000000  0.5294580000000  0.6090710000000 1.0
C      1  0.4355810000000  0.5704650000000  0.4808560000000 1.0
C      1  0.4745550000000  0.4566140000000  0.4192970000000 1.0
C      1  0.5897940000000  0.4861070000000  0.4573580000000 1.0
C      1  0.4113330000000  0.4906620000000  0.5201820000000 1.0
C      1  0.5527050000000  0.5758960000000  0.5383660000000 1.0
C      1  0.4203140000000  0.5191540000000  0.5364300000000 1.0
C      1  0.4203620000000  0.5586980000000  0.5003690000000 1.0
C      1  0.5254700000000  0.5972150000000  0.5099870000000 1.0
C      1  0.5794830000000  0.5082760000000  0.4748230000000 1.0
C      1  0.5516290000000  0.4713200000000  0.4758090000000 1.0
C      1  0.5544220000000  0.4561030000000  0.5513640000000 1.0
C      1  0.4974450000000  0.5267860000000  0.6012320000000 1.0
C      1  0.5008530000000  0.6066770000000  0.4921760000000 1.0
C      1  0.4648010000000  0.5579390000000  0.4686980000000 1.0
C      1  0.4766980000000  0.5626390000000  0.5628100000000 1.0
C      1  0.5710430000000  0.4939260000000  0.5029990000000 1.0
C      1  0.5042410000000  0.4693000000000  0.4570240000000 1.0
C      1  0.4585020000000  0.4784520000000  0.4967570000000 1.0
C      1  0.5588980000000  0.5599550000000  0.4619330000000 1.0
C      1  0.4697780000000  0.4311780000000  0.4395090000000 1.0
C      1  0.5153460000000  0.4394340000000  0.5848580000000 1.0
C      1  0.5339090000000  0.5365070000000  0.4916730000000 1.0
C      1  0.4559550000000  0.5895690000000  0.4656370000000 1.0
C      1  0.5072420000000  0.5654490000000  0.4864490000000 1.0
C      1  0.4115490000000  0.5260280000000  0.5663900000000 1.0
C      1  0.5336230000000  0.5875410000000  0.5839940000000 1.0
C      1  0.4128660000000  0.4518780000000  0.4799440000000 1.0
C      1  0.4717180000000  0.4978870000000  0.5194810000000 1.0
C      1  0.5057610000000  0.4050090000000  0.4636060000000 1.0
C      1  0.4166470000000  0.4764670000000  0.5494780000000 1.0
C      1  0.4786380000000  0.5610220000000  0.4996080000000 1.0
C      1  0.5826110000000  0.5412060000000  0.5117500000000 1.0
C      1  0.4213980000000  0.5087450000000  0.4488590000000 1.0
C      1  0.3955490000000  0.4605940000000  0.5590430000000 1.0
C      1  0.5455230000000  0.5181220000000  0.5359300000000 1.0
C      1  0.3936300000000  0.5200220000000  0.5153750000000 1.0
C      1  0.5154320000000  0.4857620000000  0.4063960000000 1.0
C      1  0.5087520000000  0.4436980000000  0.5457360000000 1.0
C      1  0.5708080000000  0.5148170000000  0.5948810000000 1.0
C      1  0.5770230000000  0.4469830000000  0.5295520000000 1.0
C      1  0.5036300000000  0.4630170000000  0.4254990000000 1.0
C      1  0.4111260000000  0.5543870000000  0.5525250000000 1.0
C      1  0.5028940000000  0.5137420000000  0.4560770000000 1.0
C      1  0.4486140000000  0.5273900000000  0.5333780000000 1.0
C      1  0.5551960000000  0.4975290000000  0.5809430000000 1.0
C      1  0.4421100000000  0.4614030000000  0.5406080000000 1.0
C      1  0.5660610000000  0.5109120000000  0.4208050000000 1.0
C      1  0.4337600000000  0.4982240000000  0.4966060000000 1.0
C      1  0.6150620000000  0.5062580000000  0.5253080000000 1.0
C      1  0.5054460000000  0.5227110000000  0.5681670000000 1.0
C      1  0.4606590000000  0.4577660000000  0.5798600000000 1.0
C      1  0.5592390000000  0.5924620000000  0.5093980000000 1.0
C      1  0.4987860000000  0.5285950000000  0.4257670000000 1.0
C      1  0.5785130000000  0.4148990000000  0.4899430000000 1.0
C      1  0.5909760000000  0.4533820000000  0.4567890000000 1.0
C      1  0.4776350000000  0.5079400000000  0.5810180000000 1.0
C      1  0.5522300000000  0.5269620000000  0.4667600000000 1.0
C      1  0.5909660000000  0.5362830000000  0.4649310000000 1.0
C      1  0.5587160000000  0.4897840000000  0.5493520000000 1.0
C      1  0.5726680000000  0.4172690000000  0.5210420000000 1.0
C      1  0.5051290000000  0.5525020000000  0.5579800000000 1.0
C      1  0.3950700000000  0.4805060000000  0.4748620000000 1.0
C      1  0.4912850000000  0.4670610000000  0.5357440000000 1.0
C      1  0.5240250000000  0.5539470000000  0.3898320000000 1.0
C      1  0.4947990000000  0.4180060000000  0.5737860000000 1.0
C      1  0.4986540000000  0.3926460000000  0.5859820000000 1.0
C      1  0.4671870000000  0.4750300000000  0.5518980000000 1.0
C      1  0.4969240000000  0.4154230000000  0.5403900000000 1.0
C      1  0.3961070000000  0.4684670000000  0.5040610000000 1.0
C      1  0.5247940000000  0.4702260000000  0.5572320000000 1.0
C      1  0.5696760000000  0.5637170000000  0.4299680000000 1.0
C      1  0.5282440000000  0.5764010000000  0.5592150000000 1.0
C      1  0.4792000000000  0.5861020000000  0.5307510000000 1.0
C      1  0.4364580000000  0.4352790000000  0.4390810000000 1.0
C      1  0.5855050000000  0.4402320000000  0.4802090000000 1.0
C      1  0.5646170000000  0.4687490000000  0.4444860000000 1.0
C      1  0.4584990000000  0.5598240000000  0.5360140000000 1.0
C      1  0.5460880000000  0.4831780000000  0.4209270000000 1.0
C      1  0.4392950000000  0.5342580000000  0.4493570000000 1.0
C      1  0.4447410000000  0.4549270000000  0.4804010000000 1.0
C      1  0.5158790000000  0.5436620000000  0.4637140000000 1.0
C      1  0.5237390000000  0.4568570000000  0.4782150000000 1.0
C      1  0.5361780000000  0.4993270000000  0.4728530000000 1.0
C      1  0.4724180000000  0.4528070000000  0.5142150000000 1.0
C      1  0.5278540000000  0.4527280000000  0.5216970000000 1.0
C      1  0.5698560000000  0.5788750000000  0.4864790000000 1.0
C      1  0.5886620000000  0.5548410000000  0.4878170000000 1.0
C      1  0.5890360000000  0.4740920000000  0.5452690000000 1.0
C      1  0.4614660000000  0.4338950000000  0.4701660000000 1.0
END
