TITL C-2848509-3138-25 -0.000528862239785333 125000 -761.514251524987 0 0 144 (C1) n - 1
REM
REM in /home/bkarasulu/work/CARBON/AIRSS/Generating-Clusters/AIREBO/with-SteepDescent/Only-C1/SD-CG-opt/Try1-1.4A-POS3A/HFTN-CG
REM
REM
REM
REM
REM
REM ./C.cell (11c1c37f851c82e70ff6c80c92926a4b)
REM
REM compiler GCC version 9.2.1 20190827 (Red Hat 9.2.1-1)
REM options -cpp -mtune=generic -march=x86-64 -g -O0 -fpre-include=/usr/include/finclude/math-vector-fortran.h
REM seed -286558442 -1062708769 2077026568 -679965216 501539571 -1097315547 1052311102 1996398432 -766758802 -1265375254 -683658985 1926965177 614642683 -1948647696 -59460307 1494275826 1994566463 -1182249384 1953945246 -1436589243 -1775044649 -1149580579 1291125382 -137780563 -291704977 -1422760549 -1332937755 667147588 -1651774491 205828883 1455215170 1399124069 1686162300
REM
CELL 1.54180   50.00000   50.00000   50.00000   90.00000   90.00000   90.00000
LATT -1
SFAC C  
C      1  0.5628200000000  0.4819810000000  0.4583690000000 1.0
C      1  0.4673190000000  0.5450810000000  0.4379700000000 1.0
C      1  0.4337320000000  0.4049570000000  0.5242960000000 1.0
C      1  0.6082900000000  0.5063890000000  0.4743470000000 1.0
C      1  0.5451100000000  0.4038930000000  0.5124570000000 1.0
C      1  0.4505050000000  0.4509560000000  0.5062320000000 1.0
C      1  0.4753490000000  0.4798350000000  0.5172980000000 1.0
C      1  0.4445870000000  0.5122020000000  0.4375360000000 1.0
C      1  0.4717820000000  0.4907730000000  0.5471900000000 1.0
C      1  0.5797540000000  0.5372350000000  0.5858290000000 1.0
C      1  0.5041530000000  0.4656340000000  0.4527810000000 1.0
C      1  0.5523940000000  0.5800600000000  0.4391120000000 1.0
C      1  0.5464090000000  0.4877780000000  0.5019680000000 1.0
C      1  0.5756260000000  0.5321910000000  0.5260450000000 1.0
C      1  0.4145960000000  0.4821080000000  0.5164890000000 1.0
C      1  0.4121320000000  0.5092020000000  0.5193830000000 1.0
C      1  0.4150870000000  0.5326500000000  0.4772940000000 1.0
C      1  0.5619350000000  0.5136690000000  0.4596680000000 1.0
C      1  0.6080040000000  0.4542030000000  0.5244620000000 1.0
C      1  0.4824110000000  0.3898570000000  0.4990310000000 1.0
C      1  0.4479860000000  0.5057830000000  0.5961640000000 1.0
C      1  0.4089170000000  0.4867680000000  0.4446950000000 1.0
C      1  0.5528370000000  0.5497730000000  0.4236620000000 1.0
C      1  0.4293060000000  0.5383280000000  0.5560840000000 1.0
C      1  0.4444820000000  0.5855620000000  0.4431090000000 1.0
C      1  0.5423930000000  0.5959480000000  0.4935990000000 1.0
C      1  0.4982490000000  0.4754530000000  0.4848540000000 1.0
C      1  0.4437320000000  0.5306480000000  0.4643520000000 1.0
C      1  0.4347860000000  0.5141350000000  0.5715490000000 1.0
C      1  0.5243040000000  0.5550280000000  0.5629340000000 1.0
C      1  0.4690910000000  0.4128580000000  0.4991700000000 1.0
C      1  0.4985200000000  0.5061980000000  0.4244090000000 1.0
C      1  0.4495960000000  0.4052970000000  0.5442910000000 1.0
C      1  0.4500060000000  0.4264660000000  0.4748790000000 1.0
C      1  0.4979840000000  0.5645230000000  0.5344470000000 1.0
C      1  0.6120820000000  0.4878130000000  0.4521510000000 1.0
C      1  0.4166580000000  0.5976190000000  0.4898730000000 1.0
C      1  0.5345080000000  0.4342780000000  0.5647000000000 1.0
C      1  0.4210150000000  0.4637660000000  0.5574190000000 1.0
C      1  0.4690060000000  0.5764430000000  0.5433050000000 1.0
C      1  0.4723400000000  0.4454670000000  0.4407720000000 1.0
C      1  0.5481460000000  0.5646990000000  0.4697000000000 1.0
C      1  0.6154440000000  0.5016010000000  0.5293350000000 1.0
C      1  0.3965950000000  0.5468330000000  0.4605160000000 1.0
C      1  0.4208540000000  0.5511310000000  0.5041510000000 1.0
C      1  0.4840250000000  0.5306690000000  0.4125140000000 1.0
C      1  0.4326740000000  0.5777630000000  0.4963850000000 1.0
C      1  0.4349100000000  0.4991980000000  0.4866480000000 1.0
C      1  0.5290270000000  0.4947120000000  0.4224600000000 1.0
C      1  0.4614000000000  0.5954320000000  0.5249700000000 1.0
C      1  0.5652090000000  0.4500650000000  0.4468850000000 1.0
C      1  0.4476160000000  0.4581480000000  0.4370830000000 1.0
C      1  0.4661900000000  0.5831390000000  0.4936320000000 1.0
C      1  0.4913800000000  0.4699280000000  0.6031230000000 1.0
C      1  0.5571890000000  0.5241990000000  0.5703110000000 1.0
C      1  0.4067260000000  0.4712090000000  0.4902940000000 1.0
C      1  0.4311790000000  0.4246550000000  0.5031390000000 1.0
C      1  0.5422140000000  0.4407450000000  0.4276780000000 1.0
C      1  0.4842710000000  0.4828190000000  0.4077880000000 1.0
C      1  0.5726830000000  0.5658280000000  0.5220380000000 1.0
C      1  0.5351780000000  0.4837420000000  0.5495540000000 1.0
C      1  0.5276790000000  0.5513530000000  0.4460560000000 1.0
C      1  0.5196180000000  0.5841740000000  0.4498680000000 1.0
C      1  0.5477870000000  0.5417930000000  0.5427410000000 1.0
C      1  0.5332290000000  0.4150140000000  0.4365700000000 1.0
C      1  0.4531190000000  0.5541690000000  0.5476490000000 1.0
C      1  0.4908690000000  0.5667240000000  0.4486810000000 1.0
C      1  0.4654080000000  0.4676900000000  0.4806460000000 1.0
C      1  0.5216400000000  0.4822720000000  0.5216010000000 1.0
C      1  0.5697400000000  0.4445850000000  0.5490250000000 1.0
C      1  0.4585200000000  0.4579460000000  0.5841430000000 1.0
C      1  0.5073230000000  0.3805450000000  0.4930730000000 1.0
C      1  0.4778900000000  0.4644630000000  0.5609590000000 1.0
C      1  0.5117800000000  0.4380330000000  0.4876320000000 1.0
C      1  0.5032550000000  0.6092570000000  0.5193590000000 1.0
C      1  0.5184030000000  0.5250290000000  0.4561360000000 1.0
C      1  0.4365640000000  0.4447300000000  0.5694900000000 1.0
C      1  0.5827190000000  0.5042910000000  0.5344860000000 1.0
C      1  0.4647000000000  0.4343060000000  0.5524150000000 1.0
C      1  0.5201350000000  0.5802270000000  0.5139500000000 1.0
C      1  0.4381610000000  0.4910910000000  0.5526260000000 1.0
C      1  0.5913920000000  0.4724130000000  0.4435880000000 1.0
C      1  0.5373640000000  0.4429270000000  0.5094890000000 1.0
C      1  0.4660520000000  0.5849510000000  0.4604560000000 1.0
C      1  0.5326140000000  0.4783800000000  0.4496450000000 1.0
C      1  0.4921250000000  0.4290650000000  0.5724970000000 1.0
C      1  0.5220760000000  0.5564610000000  0.4897080000000 1.0
C      1  0.4812520000000  0.5550980000000  0.5063490000000 1.0
C      1  0.4656510000000  0.4988420000000  0.4943300000000 1.0
C      1  0.4939890000000  0.5253200000000  0.5167520000000 1.0
C      1  0.4980110000000  0.5449120000000  0.4718670000000 1.0
C      1  0.5264900000000  0.4610950000000  0.4146380000000 1.0
C      1  0.4431260000000  0.4827910000000  0.4221610000000 1.0
C      1  0.4710690000000  0.5309980000000  0.4845700000000 1.0
C      1  0.4394140000000  0.5250160000000  0.5083280000000 1.0
C      1  0.5501920000000  0.5199190000000  0.4310210000000 1.0
C      1  0.4929150000000  0.4414820000000  0.5971990000000 1.0
C      1  0.4636260000000  0.4904350000000  0.4554270000000 1.0
C      1  0.4945290000000  0.6018950000000  0.4922470000000 1.0
C      1  0.4977440000000  0.5586140000000  0.4162020000000 1.0
C      1  0.5036150000000  0.5084600000000  0.4887740000000 1.0
C      1  0.5173750000000  0.5973820000000  0.4768080000000 1.0
C      1  0.4324500000000  0.4777500000000  0.4603700000000 1.0
C      1  0.4897660000000  0.5074220000000  0.4572890000000 1.0
C      1  0.4719810000000  0.5221480000000  0.5594820000000 1.0
C      1  0.4983150000000  0.5394230000000  0.5574090000000 1.0
C      1  0.5179090000000  0.5847960000000  0.5535530000000 1.0
C      1  0.5804270000000  0.5444870000000  0.4954850000000 1.0
C      1  0.5456690000000  0.5750070000000  0.5357850000000 1.0
C      1  0.5083470000000  0.5102450000000  0.5690850000000 1.0
C      1  0.5686390000000  0.5762780000000  0.4912790000000 1.0
C      1  0.4619840000000  0.5278060000000  0.5280330000000 1.0
C      1  0.5579180000000  0.4658610000000  0.5252780000000 1.0
C      1  0.5767400000000  0.4684390000000  0.4849320000000 1.0
C      1  0.5366700000000  0.5112050000000  0.4812620000000 1.0
C      1  0.4439010000000  0.5645980000000  0.4248760000000 1.0
C      1  0.4495180000000  0.5330560000000  0.4127630000000 1.0
C      1  0.5634380000000  0.4970940000000  0.5565050000000 1.0
C      1  0.5030670000000  0.5015610000000  0.5393230000000 1.0
C      1  0.6129690000000  0.4964610000000  0.4999320000000 1.0
C      1  0.4025320000000  0.5013070000000  0.4813690000000 1.0
C      1  0.5250340000000  0.5391670000000  0.5175140000000 1.0
C      1  0.5865350000000  0.5249680000000  0.4732630000000 1.0
C      1  0.5003330000000  0.4570660000000  0.5134210000000 1.0
C      1  0.5316480000000  0.4715900000000  0.4810430000000 1.0
C      1  0.5464970000000  0.4257700000000  0.5360910000000 1.0
C      1  0.5398040000000  0.4419530000000  0.4687240000000 1.0
C      1  0.5983660000000  0.4378360000000  0.5412580000000 1.0
C      1  0.4243670000000  0.4487750000000  0.4762230000000 1.0
C      1  0.4948980000000  0.4582190000000  0.4226160000000 1.0
C      1  0.5336040000000  0.4101020000000  0.4661690000000 1.0
C      1  0.4821310000000  0.4836050000000  0.3817320000000 1.0
C      1  0.5677180000000  0.4696290000000  0.5683930000000 1.0
C      1  0.5019580000000  0.4483530000000  0.5462710000000 1.0
C      1  0.4814740000000  0.4390250000000  0.4718490000000 1.0
C      1  0.5874620000000  0.4779440000000  0.5135150000000 1.0
C      1  0.5308760000000  0.3956580000000  0.4895920000000 1.0
C      1  0.5347770000000  0.5113860000000  0.5872800000000 1.0
C      1  0.5236000000000  0.4623010000000  0.5684800000000 1.0
C      1  0.5136350000000  0.4846590000000  0.5888200000000 1.0
C      1  0.4110610000000  0.5367350000000  0.5337140000000 1.0
C      1  0.4746690000000  0.4357190000000  0.5199270000000 1.0
C      1  0.4624920000000  0.4816220000000  0.6030340000000 1.0
C      1  0.4429640000000  0.4735060000000  0.5255180000000 1.0
END
