TITL C-2847956-8218-629 -0.00539058622034047 125000 -508.055381886786 0 0 92 (C1) n - 1
REM
REM in /home/bkarasulu/work/CARBON/AIRSS/Generating-Clusters/AIREBO/with-SteepDescent/Only-C1/SD-CG-opt/Try1-1.4A-POS3A/HFTN-CG
REM
REM
REM
REM
REM
REM ./C.cell (11c1c37f851c82e70ff6c80c92926a4b)
REM
REM compiler GCC version 9.2.1 20190827 (Red Hat 9.2.1-1)
REM options -cpp -mtune=generic -march=x86-64 -g -O0 -fpre-include=/usr/include/finclude/math-vector-fortran.h
REM seed -215935994 1452941060 1221222391 1499470756 1847487130 1190843922 -2078299941 -1622748186 1530313610 361249790 722774727 -314348948 459123122 -1049478915 -1603012421 -458855902 -2074337074 1828037070 -1543868891 1017515473 -1503392677 928310921 262534171 -2013994346 862740014 -1662705730 -1371220675 1135683956 -1668759177 206278500 1811442498 -213739179 2004533367
REM
CELL 1.54180   50.00000   50.00000   50.00000   90.00000   90.00000   90.00000
LATT -1
SFAC C  
C      1  0.4769880000000  0.5563010000000  0.5778870000000 1.0
C      1  0.5104900000000  0.5704310000000  0.5442540000000 1.0
C      1  0.4447500000000  0.5581550000000  0.4631490000000 1.0
C      1  0.5490110000000  0.4600710000000  0.5231460000000 1.0
C      1  0.5102310000000  0.4238740000000  0.4712400000000 1.0
C      1  0.4393020000000  0.4636170000000  0.5440130000000 1.0
C      1  0.5523700000000  0.4939770000000  0.5277820000000 1.0
C      1  0.4766750000000  0.5690710000000  0.4846220000000 1.0
C      1  0.5861070000000  0.4928210000000  0.5318540000000 1.0
C      1  0.5771630000000  0.4660290000000  0.5412690000000 1.0
C      1  0.5080340000000  0.4165500000000  0.5007890000000 1.0
C      1  0.4591010000000  0.4739780000000  0.5776150000000 1.0
C      1  0.5076280000000  0.4455910000000  0.5618460000000 1.0
C      1  0.4728450000000  0.5647920000000  0.4543490000000 1.0
C      1  0.5217560000000  0.5528190000000  0.4954450000000 1.0
C      1  0.4543230000000  0.5442560000000  0.5756190000000 1.0
C      1  0.5190820000000  0.5842020000000  0.5082650000000 1.0
C      1  0.4904610000000  0.5827740000000  0.5255720000000 1.0
C      1  0.5287340000000  0.5512840000000  0.4566070000000 1.0
C      1  0.4921860000000  0.5140050000000  0.5007450000000 1.0
C      1  0.5306430000000  0.5346780000000  0.5655460000000 1.0
C      1  0.5288530000000  0.4836990000000  0.5502120000000 1.0
C      1  0.4614810000000  0.5162980000000  0.4685560000000 1.0
C      1  0.4991670000000  0.5439150000000  0.5565860000000 1.0
C      1  0.4430150000000  0.5344150000000  0.4789000000000 1.0
C      1  0.4215700000000  0.4834620000000  0.4880190000000 1.0
C      1  0.4739220000000  0.4427450000000  0.4377020000000 1.0
C      1  0.4714500000000  0.5678760000000  0.5114480000000 1.0
C      1  0.4924010000000  0.4421110000000  0.4102090000000 1.0
C      1  0.4441300000000  0.4714230000000  0.4439330000000 1.0
C      1  0.5399710000000  0.5669510000000  0.5280690000000 1.0
C      1  0.4345050000000  0.5300560000000  0.5055580000000 1.0
C      1  0.4541010000000  0.5425120000000  0.5260450000000 1.0
C      1  0.4390430000000  0.4935430000000  0.5602190000000 1.0
C      1  0.5543560000000  0.4663700000000  0.4645160000000 1.0
C      1  0.6030580000000  0.5036550000000  0.5132020000000 1.0
C      1  0.4831910000000  0.4670800000000  0.5669170000000 1.0
C      1  0.5104110000000  0.5108560000000  0.4509360000000 1.0
C      1  0.5198400000000  0.4740560000000  0.4829820000000 1.0
C      1  0.5066630000000  0.4800830000000  0.4545740000000 1.0
C      1  0.4880020000000  0.5123750000000  0.5626450000000 1.0
C      1  0.5430660000000  0.5178580000000  0.5078480000000 1.0
C      1  0.4110800000000  0.4632820000000  0.5305920000000 1.0
C      1  0.5209380000000  0.5023620000000  0.5964060000000 1.0
C      1  0.5566760000000  0.4993400000000  0.4564920000000 1.0
C      1  0.4503520000000  0.4834800000000  0.5036750000000 1.0
C      1  0.4189080000000  0.5072860000000  0.5102820000000 1.0
C      1  0.4761200000000  0.4715140000000  0.4556980000000 1.0
C      1  0.5367090000000  0.4824970000000  0.4116470000000 1.0
C      1  0.5118940000000  0.5242830000000  0.4807140000000 1.0
C      1  0.4747040000000  0.4894440000000  0.4090690000000 1.0
C      1  0.4963880000000  0.4690350000000  0.5013450000000 1.0
C      1  0.5437270000000  0.4556120000000  0.4949710000000 1.0
C      1  0.4556370000000  0.5021470000000  0.5249030000000 1.0
C      1  0.4850020000000  0.5338160000000  0.5273570000000 1.0
C      1  0.4973730000000  0.5477340000000  0.4429980000000 1.0
C      1  0.4607830000000  0.4336760000000  0.4899060000000 1.0
C      1  0.5977560000000  0.5170550000000  0.4902250000000 1.0
C      1  0.5076200000000  0.5730730000000  0.4720150000000 1.0
C      1  0.4750230000000  0.4895090000000  0.4845720000000 1.0
C      1  0.5355610000000  0.5009170000000  0.4801620000000 1.0
C      1  0.4826390000000  0.4287140000000  0.5556670000000 1.0
C      1  0.5171520000000  0.4553930000000  0.4097700000000 1.0
C      1  0.5443090000000  0.4165300000000  0.5508810000000 1.0
C      1  0.5545120000000  0.4660350000000  0.5617810000000 1.0
C      1  0.5795780000000  0.5432130000000  0.4830200000000 1.0
C      1  0.5346330000000  0.4430600000000  0.5493970000000 1.0
C      1  0.5689560000000  0.5728120000000  0.5203470000000 1.0
C      1  0.5809680000000  0.5155460000000  0.4631020000000 1.0
C      1  0.5244230000000  0.5323530000000  0.4292790000000 1.0
C      1  0.5335290000000  0.5357760000000  0.5337190000000 1.0
C      1  0.5489670000000  0.5384720000000  0.4809590000000 1.0
C      1  0.4155800000000  0.4941820000000  0.5356110000000 1.0
C      1  0.4897990000000  0.4395540000000  0.5016560000000 1.0
C      1  0.4863050000000  0.5059010000000  0.4274490000000 1.0
C      1  0.5098510000000  0.4964990000000  0.5717610000000 1.0
C      1  0.4286400000000  0.4347850000000  0.4952040000000 1.0
C      1  0.5099170000000  0.5117220000000  0.5292090000000 1.0
C      1  0.4823540000000  0.4291800000000  0.4638930000000 1.0
C      1  0.5199900000000  0.6030690000000  0.4806580000000 1.0
C      1  0.5037030000000  0.4789980000000  0.5299310000000 1.0
C      1  0.4614530000000  0.4672040000000  0.4187940000000 1.0
C      1  0.5432860000000  0.5059190000000  0.4288230000000 1.0
C      1  0.4739870000000  0.5257990000000  0.4457130000000 1.0
C      1  0.4230140000000  0.4789450000000  0.4579300000000 1.0
C      1  0.5828270000000  0.5682730000000  0.4999290000000 1.0
C      1  0.4141010000000  0.4566670000000  0.5028170000000 1.0
C      1  0.5274430000000  0.4658530000000  0.4376920000000 1.0
C      1  0.4560900000000  0.4554830000000  0.5155840000000 1.0
C      1  0.5336130000000  0.4394040000000  0.4668440000000 1.0
C      1  0.4793220000000  0.4563690000000  0.5361030000000 1.0
C      1  0.4567280000000  0.5216130000000  0.5527590000000 1.0
END
