TITL C-2847956-8218-532 -0.000530229600153002 125000 -1039.75824050269 0 0 199 (C1) n - 1
REM
REM in /home/bkarasulu/work/CARBON/AIRSS/Generating-Clusters/AIREBO/with-SteepDescent/Only-C1/SD-CG-opt/Try1-1.4A-POS3A/HFTN-CG
REM
REM
REM
REM
REM
REM ./C.cell (11c1c37f851c82e70ff6c80c92926a4b)
REM
REM compiler GCC version 9.2.1 20190827 (Red Hat 9.2.1-1)
REM options -cpp -mtune=generic -march=x86-64 -g -O0 -fpre-include=/usr/include/finclude/math-vector-fortran.h
REM seed 1522116793 1331125642 -1744561104 667155461 245044312 -1955628422 377388933 -578781546 883978649 1553482468 1267245698 1964265106 1300192308 -1854720593 -672699675 -384033739 -637084329 2129072795 -287967463 903559537 1950106015 800238449 438711280 -1971239521 358052765 1704658822 2142408971 393937239 -842988020 -1746091062 -2093270569 -1794316635 1913223159
REM
CELL 1.54180   50.00000   50.00000   50.00000   90.00000   90.00000   90.00000
LATT -1
SFAC C  
C      1  0.5347990000000  0.4531100000000  0.4946580000000 1.0
C      1  0.4203990000000  0.4975390000000  0.4491640000000 1.0
C      1  0.4641920000000  0.5585000000000  0.5838330000000 1.0
C      1  0.5112060000000  0.4525810000000  0.5937830000000 1.0
C      1  0.4755380000000  0.5440180000000  0.4703460000000 1.0
C      1  0.4653570000000  0.4959730000000  0.4823230000000 1.0
C      1  0.5089540000000  0.4060350000000  0.5758440000000 1.0
C      1  0.4683320000000  0.5246180000000  0.5472590000000 1.0
C      1  0.4223180000000  0.4059230000000  0.4989450000000 1.0
C      1  0.4857470000000  0.4619520000000  0.5867130000000 1.0
C      1  0.4487330000000  0.5456740000000  0.3971460000000 1.0
C      1  0.4851480000000  0.4945460000000  0.5830550000000 1.0
C      1  0.5647090000000  0.5087090000000  0.4535320000000 1.0
C      1  0.5678310000000  0.4844280000000  0.5334110000000 1.0
C      1  0.5395420000000  0.5122300000000  0.6128670000000 1.0
C      1  0.5116320000000  0.4315590000000  0.5203930000000 1.0
C      1  0.5210720000000  0.5449330000000  0.5580490000000 1.0
C      1  0.4919560000000  0.4921740000000  0.5498080000000 1.0
C      1  0.4222300000000  0.4885950000000  0.4103890000000 1.0
C      1  0.4487350000000  0.4744280000000  0.5563710000000 1.0
C      1  0.4761840000000  0.4727620000000  0.4206510000000 1.0
C      1  0.4084210000000  0.4571430000000  0.4825120000000 1.0
C      1  0.4284440000000  0.5117970000000  0.4933070000000 1.0
C      1  0.5357850000000  0.4724710000000  0.5812720000000 1.0
C      1  0.4334890000000  0.5760700000000  0.4810650000000 1.0
C      1  0.4129340000000  0.4917320000000  0.5526130000000 1.0
C      1  0.5526100000000  0.4554550000000  0.5301860000000 1.0
C      1  0.5131420000000  0.3824730000000  0.4441590000000 1.0
C      1  0.4909050000000  0.5665210000000  0.3857220000000 1.0
C      1  0.4893770000000  0.5040900000000  0.4220010000000 1.0
C      1  0.4130680000000  0.4302840000000  0.5460280000000 1.0
C      1  0.5013540000000  0.5226480000000  0.4764890000000 1.0
C      1  0.4354310000000  0.4929890000000  0.5780720000000 1.0
C      1  0.4844710000000  0.3913210000000  0.5732260000000 1.0
C      1  0.4718050000000  0.4628680000000  0.4788130000000 1.0
C      1  0.4251430000000  0.4676870000000  0.5172530000000 1.0
C      1  0.5299150000000  0.4817820000000  0.4055280000000 1.0
C      1  0.3980750000000  0.4839960000000  0.5230230000000 1.0
C      1  0.5645540000000  0.6030420000000  0.5980810000000 1.0
C      1  0.4751000000000  0.4876650000000  0.3836220000000 1.0
C      1  0.5181320000000  0.4139890000000  0.4046600000000 1.0
C      1  0.4555840000000  0.4414220000000  0.5079450000000 1.0
C      1  0.4681120000000  0.5759950000000  0.4612660000000 1.0
C      1  0.4300510000000  0.5216870000000  0.4629290000000 1.0
C      1  0.4503950000000  0.5634000000000  0.5548750000000 1.0
C      1  0.4351440000000  0.4079950000000  0.4669120000000 1.0
C      1  0.5008180000000  0.4922390000000  0.5169710000000 1.0
C      1  0.4341670000000  0.5992600000000  0.5069390000000 1.0
C      1  0.4526310000000  0.4967030000000  0.6255530000000 1.0
C      1  0.5347400000000  0.3990800000000  0.4637730000000 1.0
C      1  0.4565890000000  0.6010200000000  0.4811990000000 1.0
C      1  0.4745200000000  0.3996650000000  0.5486810000000 1.0
C      1  0.4841010000000  0.5626230000000  0.4188240000000 1.0
C      1  0.4647490000000  0.3707290000000  0.4963530000000 1.0
C      1  0.4997660000000  0.4766820000000  0.4888700000000 1.0
C      1  0.3821240000000  0.5203340000000  0.4690660000000 1.0
C      1  0.5245310000000  0.5494200000000  0.5878070000000 1.0
C      1  0.6178940000000  0.4551230000000  0.4807750000000 1.0
C      1  0.5354310000000  0.4182380000000  0.4915110000000 1.0
C      1  0.3947930000000  0.5065690000000  0.4975180000000 1.0
C      1  0.5037370000000  0.6146650000000  0.4871940000000 1.0
C      1  0.3927730000000  0.4860290000000  0.4517420000000 1.0
C      1  0.4899090000000  0.4624210000000  0.4500300000000 1.0
C      1  0.5583720000000  0.5604910000000  0.5696060000000 1.0
C      1  0.5552840000000  0.5660710000000  0.4415680000000 1.0
C      1  0.4068240000000  0.4245440000000  0.4758640000000 1.0
C      1  0.4399180000000  0.5736840000000  0.4435600000000 1.0
C      1  0.5526610000000  0.5916010000000  0.5763030000000 1.0
C      1  0.4360390000000  0.5168240000000  0.5546180000000 1.0
C      1  0.4390220000000  0.4767800000000  0.4378090000000 1.0
C      1  0.5749200000000  0.4305680000000  0.4814280000000 1.0
C      1  0.5132930000000  0.4663050000000  0.5564970000000 1.0
C      1  0.5963810000000  0.5695730000000  0.5012610000000 1.0
C      1  0.5842910000000  0.5548260000000  0.4759900000000 1.0
C      1  0.4656850000000  0.4877040000000  0.4493440000000 1.0
C      1  0.5683660000000  0.5302830000000  0.5200430000000 1.0
C      1  0.4506630000000  0.4819260000000  0.4001150000000 1.0
C      1  0.5837240000000  0.4572590000000  0.5205400000000 1.0
C      1  0.6166900000000  0.4910560000000  0.5121020000000 1.0
C      1  0.3941140000000  0.4959160000000  0.4198050000000 1.0
C      1  0.4409430000000  0.4562150000000  0.4827480000000 1.0
C      1  0.5513550000000  0.4143970000000  0.4383650000000 1.0
C      1  0.4841290000000  0.5930430000000  0.4027050000000 1.0
C      1  0.5284010000000  0.5479980000000  0.5112250000000 1.0
C      1  0.5453080000000  0.4269080000000  0.5228710000000 1.0
C      1  0.4955240000000  0.3940340000000  0.5258410000000 1.0
C      1  0.5862980000000  0.5777270000000  0.5605130000000 1.0
C      1  0.6159950000000  0.5284890000000  0.5416250000000 1.0
C      1  0.3909520000000  0.4788670000000  0.4781650000000 1.0
C      1  0.5154450000000  0.4936830000000  0.4656020000000 1.0
C      1  0.4749620000000  0.5549820000000  0.5328850000000 1.0
C      1  0.4030780000000  0.5420550000000  0.5422770000000 1.0
C      1  0.5487680000000  0.5340180000000  0.5978430000000 1.0
C      1  0.4630360000000  0.4421160000000  0.4273920000000 1.0
C      1  0.4652980000000  0.4230340000000  0.4623130000000 1.0
C      1  0.4812840000000  0.5348150000000  0.4320860000000 1.0
C      1  0.5548840000000  0.5021550000000  0.5064420000000 1.0
C      1  0.5401170000000  0.5247250000000  0.4617460000000 1.0
C      1  0.5856650000000  0.4902490000000  0.4981820000000 1.0
C      1  0.4761940000000  0.4254880000000  0.4921630000000 1.0
C      1  0.5375470000000  0.6030100000000  0.5571380000000 1.0
C      1  0.5440660000000  0.5552870000000  0.5391990000000 1.0
C      1  0.5853930000000  0.5242110000000  0.5470440000000 1.0
C      1  0.4614630000000  0.5808200000000  0.5153650000000 1.0
C      1  0.5026820000000  0.6082800000000  0.5187190000000 1.0
C      1  0.5383850000000  0.4290620000000  0.4173160000000 1.0
C      1  0.4416080000000  0.4466750000000  0.5383250000000 1.0
C      1  0.5667000000000  0.5276530000000  0.5725830000000 1.0
C      1  0.5726050000000  0.4162190000000  0.5053760000000 1.0
C      1  0.5175860000000  0.4101110000000  0.5461120000000 1.0
C      1  0.4010160000000  0.4602460000000  0.5478460000000 1.0
C      1  0.6046950000000  0.5494530000000  0.5227590000000 1.0
C      1  0.4190060000000  0.4287720000000  0.4371100000000 1.0
C      1  0.4840340000000  0.3949520000000  0.4969660000000 1.0
C      1  0.5760370000000  0.5602960000000  0.5341320000000 1.0
C      1  0.6084220000000  0.5060130000000  0.4825250000000 1.0
C      1  0.4516710000000  0.5359730000000  0.4487510000000 1.0
C      1  0.4966750000000  0.4181640000000  0.4501440000000 1.0
C      1  0.5100790000000  0.5616070000000  0.4784740000000 1.0
C      1  0.4792210000000  0.4447240000000  0.3997240000000 1.0
C      1  0.5578330000000  0.5008290000000  0.4094300000000 1.0
C      1  0.5592020000000  0.5551230000000  0.4987040000000 1.0
C      1  0.4023110000000  0.5503310000000  0.4984920000000 1.0
C      1  0.4758250000000  0.6043520000000  0.5302270000000 1.0
C      1  0.4239280000000  0.5673870000000  0.5125170000000 1.0
C      1  0.5080190000000  0.4891630000000  0.3901390000000 1.0
C      1  0.5321420000000  0.4789770000000  0.5165930000000 1.0
C      1  0.5245690000000  0.3953920000000  0.5096850000000 1.0
C      1  0.5586510000000  0.4984910000000  0.5613940000000 1.0
C      1  0.5951270000000  0.4870620000000  0.5617690000000 1.0
C      1  0.5734520000000  0.5409510000000  0.4471140000000 1.0
C      1  0.4660470000000  0.4520470000000  0.5695070000000 1.0
C      1  0.5330570000000  0.6158040000000  0.5039960000000 1.0
C      1  0.5175160000000  0.4440200000000  0.4575250000000 1.0
C      1  0.4743100000000  0.5421550000000  0.3858910000000 1.0
C      1  0.4686420000000  0.4286300000000  0.5487770000000 1.0
C      1  0.5693070000000  0.3951270000000  0.5262560000000 1.0
C      1  0.6390690000000  0.4738750000000  0.5076350000000 1.0
C      1  0.5314630000000  0.5619160000000  0.4295340000000 1.0
C      1  0.5157350000000  0.4250180000000  0.5949330000000 1.0
C      1  0.4158210000000  0.4374840000000  0.5071040000000 1.0
C      1  0.5235910000000  0.5888440000000  0.5326410000000 1.0
C      1  0.5047770000000  0.4430420000000  0.4890960000000 1.0
C      1  0.4481680000000  0.4113800000000  0.4353470000000 1.0
C      1  0.5317020000000  0.4932710000000  0.5474500000000 1.0
C      1  0.4949650000000  0.5486320000000  0.5061060000000 1.0
C      1  0.5336780000000  0.5208070000000  0.4119380000000 1.0
C      1  0.4884620000000  0.5171480000000  0.3906220000000 1.0
C      1  0.4741310000000  0.6230680000000  0.4795420000000 1.0
C      1  0.5032990000000  0.5680700000000  0.5466900000000 1.0
C      1  0.4466950000000  0.4888740000000  0.5095920000000 1.0
C      1  0.4359300000000  0.5424800000000  0.5323050000000 1.0
C      1  0.5156900000000  0.5160080000000  0.4399360000000 1.0
C      1  0.5310180000000  0.4575530000000  0.4293670000000 1.0
C      1  0.5811410000000  0.5914700000000  0.5090170000000 1.0
C      1  0.5548900000000  0.4808630000000  0.4366460000000 1.0
C      1  0.5831100000000  0.5201300000000  0.4214540000000 1.0
C      1  0.4431540000000  0.4470950000000  0.4523100000000 1.0
C      1  0.4698810000000  0.5911570000000  0.5758610000000 1.0
C      1  0.5052500000000  0.5257480000000  0.5973750000000 1.0
C      1  0.5021130000000  0.4005790000000  0.4235100000000 1.0
C      1  0.5435660000000  0.4816590000000  0.4784010000000 1.0
C      1  0.4663030000000  0.6094210000000  0.5551380000000 1.0
C      1  0.4858120000000  0.5906950000000  0.4362230000000 1.0
C      1  0.4506230000000  0.5286070000000  0.5084380000000 1.0
C      1  0.5700520000000  0.4742930000000  0.5809510000000 1.0
C      1  0.4556050000000  0.4947250000000  0.5998920000000 1.0
C      1  0.5160380000000  0.4950840000000  0.5972750000000 1.0
C      1  0.5338970000000  0.5472050000000  0.4054830000000 1.0
C      1  0.4821870000000  0.5172810000000  0.5028030000000 1.0
C      1  0.4419320000000  0.5530880000000  0.4227870000000 1.0
C      1  0.4617420000000  0.4934510000000  0.5353360000000 1.0
C      1  0.4973560000000  0.5783740000000  0.5758550000000 1.0
C      1  0.5476720000000  0.5854790000000  0.5088540000000 1.0
C      1  0.6090160000000  0.5380450000000  0.4646280000000 1.0
C      1  0.6149630000000  0.4976640000000  0.5447830000000 1.0
C      1  0.5084840000000  0.5485390000000  0.4471830000000 1.0
C      1  0.5804970000000  0.4600700000000  0.6054530000000 1.0
C      1  0.3775730000000  0.5195030000000  0.4379150000000 1.0
C      1  0.4100460000000  0.4059300000000  0.5306920000000 1.0
C      1  0.5503700000000  0.4354400000000  0.4602760000000 1.0
C      1  0.5343360000000  0.5794760000000  0.4790230000000 1.0
C      1  0.4937210000000  0.5567810000000  0.6006080000000 1.0
C      1  0.4167300000000  0.5638190000000  0.5597110000000 1.0
C      1  0.5475250000000  0.4006720000000  0.5443850000000 1.0
C      1  0.4966480000000  0.4441260000000  0.5441350000000 1.0
C      1  0.5897360000000  0.4581870000000  0.4876000000000 1.0
C      1  0.4979320000000  0.5911240000000  0.4679900000000 1.0
C      1  0.4775270000000  0.5276710000000  0.5785070000000 1.0
C      1  0.5320030000000  0.5223610000000  0.4914340000000 1.0
C      1  0.5893750000000  0.4459390000000  0.6247590000000 1.0
C      1  0.4050320000000  0.5380600000000  0.4745130000000 1.0
C      1  0.4575030000000  0.5558390000000  0.4941170000000 1.0
C      1  0.5985180000000  0.5103800000000  0.4502610000000 1.0
C      1  0.5717730000000  0.4710920000000  0.4644990000000 1.0
C      1  0.3894770000000  0.5329670000000  0.5183370000000 1.0
C      1  0.5131580000000  0.5182770000000  0.5513470000000 1.0
C      1  0.5862970000000  0.4672890000000  0.4339900000000 1.0
C      1  0.5032060000000  0.3914900000000  0.4744380000000 1.0
END
