TITL C-2847959-7740-201 -0.00682800373240971 125000 -943.53265995809 0 0 183 (C1) n - 1
REM
REM in /home/bkarasulu/work/CARBON/AIRSS/Generating-Clusters/AIREBO/with-SteepDescent/Only-C1/SD-CG-opt/Try1-1.4A-POS3A/HFTN-CG
REM
REM
REM
REM
REM
REM ./C.cell (11c1c37f851c82e70ff6c80c92926a4b)
REM
REM compiler GCC version 9.2.1 20190827 (Red Hat 9.2.1-1)
REM options -cpp -mtune=generic -march=x86-64 -g -O0 -fpre-include=/usr/include/finclude/math-vector-fortran.h
REM seed -412202833 1907712162 -851590699 -1553460988 -130438842 -778133688 -1635570318 502573586 1825391699 390827878 1408749338 -1460677386 -1070131725 31539394 26343651 1951429918 -2001253225 -6753492 -1112379487 -1782426869 1407742096 -97306427 -1719294372 -1774815863 -1690786832 418870496 2080838736 -1264828082 -1960972757 94957668 1435398419 1457197781 1776655685
REM
CELL 1.54180   50.00000   50.00000   50.00000   90.00000   90.00000   90.00000
LATT -1
SFAC C  
C      1  0.5650420000000  0.4408140000000  0.4976340000000 1.0
C      1  0.4064470000000  0.5238400000000  0.5017730000000 1.0
C      1  0.4717260000000  0.5273470000000  0.5203920000000 1.0
C      1  0.5857170000000  0.5474120000000  0.5607330000000 1.0
C      1  0.5131850000000  0.6009720000000  0.5488240000000 1.0
C      1  0.3790040000000  0.5127330000000  0.4598020000000 1.0
C      1  0.5463580000000  0.4810060000000  0.4557960000000 1.0
C      1  0.5596840000000  0.4629160000000  0.5804360000000 1.0
C      1  0.4985170000000  0.4152980000000  0.4238470000000 1.0
C      1  0.4256760000000  0.5960280000000  0.5150480000000 1.0
C      1  0.5375840000000  0.4838420000000  0.4945930000000 1.0
C      1  0.5261480000000  0.4111430000000  0.5640040000000 1.0
C      1  0.5410430000000  0.4553510000000  0.5401850000000 1.0
C      1  0.5340060000000  0.6029920000000  0.5671360000000 1.0
C      1  0.5879910000000  0.5005750000000  0.4424610000000 1.0
C      1  0.4267800000000  0.4582760000000  0.4195280000000 1.0
C      1  0.5473810000000  0.5742330000000  0.5696750000000 1.0
C      1  0.5457360000000  0.4550250000000  0.4777330000000 1.0
C      1  0.5959810000000  0.5373460000000  0.4813990000000 1.0
C      1  0.4210760000000  0.5068340000000  0.5761380000000 1.0
C      1  0.4150130000000  0.5368270000000  0.5415550000000 1.0
C      1  0.5017830000000  0.4692060000000  0.6102430000000 1.0
C      1  0.4460440000000  0.4117890000000  0.4473970000000 1.0
C      1  0.4856650000000  0.5491950000000  0.5008710000000 1.0
C      1  0.4168750000000  0.4420930000000  0.5259750000000 1.0
C      1  0.4021570000000  0.4998230000000  0.5487670000000 1.0
C      1  0.5091590000000  0.5707320000000  0.4667230000000 1.0
C      1  0.4503830000000  0.4830160000000  0.5391510000000 1.0
C      1  0.4395430000000  0.5781070000000  0.4424030000000 1.0
C      1  0.5445650000000  0.4058970000000  0.4804440000000 1.0
C      1  0.4736570000000  0.4289450000000  0.4520160000000 1.0
C      1  0.5152180000000  0.5701040000000  0.5799380000000 1.0
C      1  0.4971560000000  0.3975130000000  0.5244360000000 1.0
C      1  0.5127720000000  0.5644670000000  0.4126400000000 1.0
C      1  0.4145450000000  0.4745610000000  0.5672080000000 1.0
C      1  0.4951800000000  0.5943120000000  0.5046610000000 1.0
C      1  0.3903090000000  0.4924990000000  0.4831170000000 1.0
C      1  0.5504210000000  0.4316430000000  0.5573140000000 1.0
C      1  0.5308410000000  0.5538470000000  0.4466930000000 1.0
C      1  0.5237570000000  0.5492060000000  0.4886790000000 1.0
C      1  0.4897740000000  0.4095990000000  0.4748870000000 1.0
C      1  0.5272180000000  0.5161760000000  0.4967350000000 1.0
C      1  0.5679290000000  0.5612400000000  0.4286100000000 1.0
C      1  0.4771450000000  0.4757480000000  0.4732930000000 1.0
C      1  0.5273690000000  0.5080880000000  0.4636970000000 1.0
C      1  0.5564760000000  0.4897800000000  0.3917030000000 1.0
C      1  0.4401220000000  0.5014790000000  0.4078270000000 1.0
C      1  0.5079750000000  0.5156250000000  0.4144980000000 1.0
C      1  0.4429850000000  0.5125370000000  0.5985890000000 1.0
C      1  0.4178180000000  0.5155870000000  0.4293130000000 1.0
C      1  0.5440780000000  0.5976960000000  0.4981310000000 1.0
C      1  0.5664030000000  0.5131040000000  0.5542450000000 1.0
C      1  0.5820980000000  0.4647640000000  0.5632420000000 1.0
C      1  0.5106340000000  0.5069750000000  0.5680960000000 1.0
C      1  0.4951250000000  0.5339680000000  0.5437330000000 1.0
C      1  0.4475720000000  0.4180840000000  0.5346220000000 1.0
C      1  0.5511370000000  0.5648330000000  0.4952220000000 1.0
C      1  0.4459090000000  0.5197490000000  0.4435570000000 1.0
C      1  0.5658840000000  0.5533640000000  0.5791940000000 1.0
C      1  0.4782640000000  0.4970610000000  0.5661550000000 1.0
C      1  0.4465580000000  0.4673360000000  0.4643070000000 1.0
C      1  0.4788300000000  0.5252490000000  0.4778610000000 1.0
C      1  0.4607330000000  0.4759250000000  0.4167190000000 1.0
C      1  0.5752930000000  0.4889820000000  0.4717940000000 1.0
C      1  0.3877650000000  0.5223690000000  0.5295290000000 1.0
C      1  0.6006060000000  0.4759820000000  0.4920830000000 1.0
C      1  0.5162490000000  0.5275590000000  0.4447310000000 1.0
C      1  0.4694280000000  0.5128350000000  0.4042460000000 1.0
C      1  0.4726040000000  0.4394170000000  0.5840940000000 1.0
C      1  0.4273800000000  0.5569600000000  0.5213700000000 1.0
C      1  0.4592040000000  0.4918740000000  0.6071630000000 1.0
C      1  0.5442180000000  0.4880810000000  0.5803130000000 1.0
C      1  0.4856770000000  0.5191990000000  0.4474410000000 1.0
C      1  0.4931550000000  0.4489140000000  0.4696210000000 1.0
C      1  0.5063540000000  0.4775060000000  0.5002340000000 1.0
C      1  0.3705570000000  0.4759620000000  0.4935350000000 1.0
C      1  0.5133100000000  0.4495830000000  0.5276270000000 1.0
C      1  0.5888770000000  0.4304170000000  0.4790500000000 1.0
C      1  0.4130020000000  0.4138050000000  0.4806800000000 1.0
C      1  0.5263280000000  0.5408140000000  0.4085100000000 1.0
C      1  0.6049500000000  0.4517080000000  0.4712320000000 1.0
C      1  0.5901490000000  0.4908550000000  0.5574930000000 1.0
C      1  0.4334320000000  0.5088920000000  0.5381930000000 1.0
C      1  0.4477480000000  0.5836000000000  0.4923630000000 1.0
C      1  0.5072730000000  0.4860270000000  0.4689120000000 1.0
C      1  0.4357600000000  0.5359640000000  0.5674590000000 1.0
C      1  0.5209610000000  0.5474360000000  0.5568260000000 1.0
C      1  0.5179810000000  0.4628850000000  0.4505250000000 1.0
C      1  0.4863260000000  0.4881350000000  0.4336290000000 1.0
C      1  0.4393360000000  0.5273410000000  0.5097050000000 1.0
C      1  0.5819500000000  0.5106680000000  0.4971460000000 1.0
C      1  0.5006060000000  0.4197550000000  0.5847600000000 1.0
C      1  0.5292410000000  0.4553990000000  0.4118320000000 1.0
C      1  0.5698740000000  0.5100530000000  0.4152630000000 1.0
C      1  0.5470160000000  0.4877790000000  0.5464070000000 1.0
C      1  0.4494940000000  0.4887670000000  0.5080720000000 1.0
C      1  0.5563500000000  0.5272140000000  0.4830780000000 1.0
C      1  0.4968850000000  0.4111470000000  0.5515630000000 1.0
C      1  0.5426140000000  0.4303630000000  0.4295560000000 1.0
C      1  0.4103780000000  0.5710700000000  0.4977530000000 1.0
C      1  0.5720400000000  0.4046150000000  0.4823720000000 1.0
C      1  0.4169710000000  0.4834690000000  0.4404440000000 1.0
C      1  0.4844220000000  0.4396690000000  0.5545420000000 1.0
C      1  0.4659990000000  0.5649050000000  0.4376000000000 1.0
C      1  0.5775950000000  0.5930390000000  0.5014420000000 1.0
C      1  0.4671310000000  0.5361460000000  0.4274960000000 1.0
C      1  0.4841720000000  0.4369900000000  0.4117890000000 1.0
C      1  0.4830600000000  0.5620330000000  0.5848180000000 1.0
C      1  0.4954630000000  0.5758610000000  0.4360210000000 1.0
C      1  0.5621180000000  0.5439920000000  0.4573380000000 1.0
C      1  0.5340110000000  0.5075610000000  0.6003230000000 1.0
C      1  0.6110350000000  0.4809790000000  0.4550310000000 1.0
C      1  0.5627860000000  0.4503450000000  0.4143930000000 1.0
C      1  0.5431920000000  0.5347440000000  0.5203450000000 1.0
C      1  0.4100410000000  0.5461250000000  0.4746340000000 1.0
C      1  0.5957790000000  0.5067680000000  0.5279740000000 1.0
C      1  0.5985620000000  0.4732080000000  0.5228160000000 1.0
C      1  0.4734720000000  0.4986810000000  0.4928410000000 1.0
C      1  0.4609450000000  0.5520520000000  0.5533950000000 1.0
C      1  0.5199880000000  0.5008910000000  0.5398680000000 1.0
C      1  0.4555660000000  0.4923730000000  0.4449810000000 1.0
C      1  0.4992020000000  0.4590030000000  0.4022210000000 1.0
C      1  0.4341820000000  0.4549140000000  0.5493440000000 1.0
C      1  0.5872480000000  0.4433230000000  0.5399790000000 1.0
C      1  0.4391150000000  0.5285270000000  0.4757030000000 1.0
C      1  0.6104160000000  0.5058660000000  0.4791500000000 1.0
C      1  0.5585450000000  0.4800180000000  0.4253880000000 1.0
C      1  0.5417520000000  0.5825880000000  0.4324930000000 1.0
C      1  0.5543410000000  0.5368800000000  0.4141440000000 1.0
C      1  0.5394960000000  0.5248170000000  0.5652160000000 1.0
C      1  0.4182090000000  0.5031740000000  0.4668470000000 1.0
C      1  0.4176730000000  0.4917680000000  0.5032930000000 1.0
C      1  0.5370390000000  0.4277610000000  0.4593360000000 1.0
C      1  0.4238360000000  0.4592820000000  0.5018080000000 1.0
C      1  0.4277540000000  0.5743540000000  0.4677680000000 1.0
C      1  0.5721900000000  0.5675010000000  0.5228230000000 1.0
C      1  0.5107600000000  0.4511240000000  0.5858500000000 1.0
C      1  0.4984670000000  0.5072110000000  0.5143010000000 1.0
C      1  0.4525490000000  0.4507010000000  0.4918050000000 1.0
C      1  0.4637540000000  0.4455200000000  0.5354300000000 1.0
C      1  0.4793180000000  0.5671410000000  0.5290470000000 1.0
C      1  0.5285700000000  0.4903890000000  0.3926080000000 1.0
C      1  0.4569110000000  0.4440870000000  0.4264950000000 1.0
C      1  0.4787940000000  0.5303050000000  0.5733290000000 1.0
C      1  0.5407420000000  0.5650860000000  0.5355320000000 1.0
C      1  0.5151710000000  0.4077020000000  0.4974560000000 1.0
C      1  0.5289060000000  0.4128450000000  0.5281480000000 1.0
C      1  0.5037110000000  0.4644680000000  0.5553740000000 1.0
C      1  0.5233010000000  0.5903890000000  0.5208090000000 1.0
C      1  0.4303310000000  0.4179680000000  0.5061330000000 1.0
C      1  0.4787570000000  0.4607790000000  0.5109670000000 1.0
C      1  0.5011670000000  0.5164190000000  0.5971190000000 1.0
C      1  0.5835990000000  0.5639740000000  0.4848440000000 1.0
C      1  0.5611670000000  0.4235320000000  0.5267120000000 1.0
C      1  0.5189010000000  0.4850980000000  0.4247860000000 1.0
C      1  0.5097380000000  0.4124180000000  0.4486680000000 1.0
C      1  0.4841650000000  0.4838390000000  0.5353800000000 1.0
C      1  0.4940200000000  0.4918420000000  0.3945750000000 1.0
C      1  0.4230590000000  0.4230390000000  0.4572150000000 1.0
C      1  0.4224910000000  0.4515920000000  0.4509060000000 1.0
C      1  0.4432190000000  0.5785810000000  0.5389330000000 1.0
C      1  0.4787400000000  0.5808150000000  0.4781290000000 1.0
C      1  0.4651650000000  0.5953650000000  0.5190890000000 1.0
C      1  0.5407700000000  0.4406620000000  0.5866800000000 1.0
C      1  0.4673160000000  0.3983130000000  0.5170500000000 1.0
C      1  0.5921510000000  0.5301020000000  0.4495160000000 1.0
C      1  0.5017070000000  0.4379070000000  0.5006420000000 1.0
C      1  0.4623660000000  0.5524350000000  0.4689870000000 1.0
C      1  0.3969710000000  0.5311270000000  0.4478670000000 1.0
C      1  0.5662720000000  0.4627850000000  0.5218770000000 1.0
C      1  0.5695470000000  0.5777530000000  0.4582950000000 1.0
C      1  0.5108260000000  0.5450020000000  0.5185570000000 1.0
C      1  0.5522870000000  0.5322200000000  0.5958390000000 1.0
C      1  0.4554160000000  0.5436320000000  0.5941330000000 1.0
C      1  0.4919880000000  0.5791510000000  0.5568110000000 1.0
C      1  0.5760810000000  0.5346540000000  0.5307100000000 1.0
C      1  0.4774760000000  0.6008960000000  0.4507200000000 1.0
C      1  0.5284190000000  0.5959090000000  0.4705380000000 1.0
C      1  0.4465740000000  0.4281880000000  0.5670810000000 1.0
C      1  0.4684440000000  0.4711590000000  0.5858170000000 1.0
C      1  0.4609790000000  0.4182330000000  0.4908010000000 1.0
C      1  0.4884390000000  0.4931630000000  0.6123630000000 1.0
C      1  0.5586590000000  0.4932050000000  0.5147140000000 1.0
END
