TITL C-2848494-1720-378 -0.000247777152557644 125000 -197.544493068309 0 0 38 (C1) n - 1
REM
REM in /home/bkarasulu/work/CARBON/AIRSS/Generating-Clusters/AIREBO/with-SteepDescent/Only-C1/SD-CG-opt/Try1-1.4A-POS3A/HFTN-CG
REM
REM
REM
REM
REM
REM ./C.cell (11c1c37f851c82e70ff6c80c92926a4b)
REM
REM compiler GCC version 9.2.1 20190827 (Red Hat 9.2.1-1)
REM options -cpp -mtune=generic -march=x86-64 -g -O0 -fpre-include=/usr/include/finclude/math-vector-fortran.h
REM seed -1102769799 -2078498463 -1704377016 -2037722110 -1294560909 1527952293 1599645962 1993136069 60937518 -794111080 734311788 2089594723 508286071 1393274649 -1941725252 -699340450 -558231675 1760679846 2025992464 -792143867 99142448 309296658 -731822126 -1091334054 -973517546 -1900361600 356775105 481413197 992531240 961905910 -1449496911 -76091642 675799024
REM
CELL 1.54180   50.00000   50.00000   50.00000   90.00000   90.00000   90.00000
LATT -1
SFAC C  
C      1  0.4923880000000  0.4958050000000  0.5132150000000 1.0
C      1  0.4331740000000  0.4816430000000  0.4967250000000 1.0
C      1  0.5303640000000  0.5447500000000  0.4604880000000 1.0
C      1  0.5302730000000  0.5041020000000  0.4376100000000 1.0
C      1  0.4949660000000  0.4355780000000  0.4970130000000 1.0
C      1  0.4846020000000  0.4725760000000  0.5514520000000 1.0
C      1  0.5419280000000  0.4818440000000  0.5375980000000 1.0
C      1  0.5016740000000  0.5458830000000  0.4626570000000 1.0
C      1  0.4926800000000  0.4701690000000  0.4599270000000 1.0
C      1  0.4765480000000  0.5145680000000  0.4996830000000 1.0
C      1  0.4843530000000  0.5293540000000  0.5359780000000 1.0
C      1  0.4890010000000  0.5392800000000  0.4881800000000 1.0
C      1  0.5098200000000  0.5317050000000  0.5135550000000 1.0
C      1  0.4656440000000  0.4629100000000  0.5321330000000 1.0
C      1  0.5216760000000  0.4327100000000  0.5062170000000 1.0
C      1  0.4829050000000  0.5201820000000  0.4536200000000 1.0
C      1  0.4543570000000  0.5130540000000  0.5327360000000 1.0
C      1  0.5620940000000  0.4745930000000  0.5148430000000 1.0
C      1  0.5044880000000  0.4956940000000  0.5432210000000 1.0
C      1  0.4709570000000  0.4885640000000  0.4540130000000 1.0
C      1  0.4529230000000  0.5204620000000  0.4680830000000 1.0
C      1  0.5384860000000  0.4545090000000  0.5086760000000 1.0
C      1  0.5236770000000  0.5605590000000  0.5176320000000 1.0
C      1  0.5422550000000  0.5335000000000  0.4843820000000 1.0
C      1  0.4447390000000  0.5134120000000  0.5003430000000 1.0
C      1  0.4441770000000  0.4886210000000  0.4691970000000 1.0
C      1  0.5101810000000  0.5258790000000  0.5578160000000 1.0
C      1  0.4458550000000  0.4817630000000  0.5244810000000 1.0
C      1  0.4559660000000  0.5425300000000  0.5492720000000 1.0
C      1  0.5233590000000  0.4834570000000  0.5082470000000 1.0
C      1  0.5543810000000  0.5211590000000  0.5088340000000 1.0
C      1  0.5727190000000  0.4992970000000  0.5054740000000 1.0
C      1  0.5089130000000  0.4992200000000  0.4604780000000 1.0
C      1  0.5389340000000  0.5306010000000  0.4370230000000 1.0
C      1  0.4927240000000  0.4450320000000  0.4705330000000 1.0
C      1  0.5209930000000  0.5098650000000  0.4899680000000 1.0
C      1  0.4744640000000  0.4413470000000  0.5158280000000 1.0
C      1  0.5313600000000  0.5138220000000  0.5328660000000 1.0
END
