TITL C-2847948-6138-750 -0.00336318154451679 125000 -587.6963968645 0 0 112 (C1) n - 1
REM
REM in /home/bkarasulu/work/CARBON/AIRSS/Generating-Clusters/AIREBO/with-SteepDescent/Only-C1/SD-CG-opt/Try1-1.4A-POS3A/HFTN-CG
REM
REM
REM
REM
REM
REM ./C.cell (11c1c37f851c82e70ff6c80c92926a4b)
REM
REM compiler GCC version 9.2.1 20190827 (Red Hat 9.2.1-1)
REM options -cpp -mtune=generic -march=x86-64 -g -O0 -fpre-include=/usr/include/finclude/math-vector-fortran.h
REM seed -1665399201 -681612451 1874415499 -628415198 864928697 521546523 2060416426 -1078424911 1683937214 -1393599578 -480989808 -896816603 1239578055 1949677670 1900284468 -1185788924 -1864332870 1996891882 -480574324 -2136845322 -1834181966 298286470 -1171499971 344037885 -1001485203 -1318235599 978623950 -242783282 -950877244 1206503995 -1439419640 -1127628555 -485829562
REM
CELL 1.54180   50.00000   50.00000   50.00000   90.00000   90.00000   90.00000
LATT -1
SFAC C  
C      1  0.5608430000000  0.4597510000000  0.5424830000000 1.0
C      1  0.4633210000000  0.5823810000000  0.5110770000000 1.0
C      1  0.5129070000000  0.5128350000000  0.5449120000000 1.0
C      1  0.5093240000000  0.5732870000000  0.4639180000000 1.0
C      1  0.4737810000000  0.5666940000000  0.4857980000000 1.0
C      1  0.5239270000000  0.4818390000000  0.4778610000000 1.0
C      1  0.5475720000000  0.5295630000000  0.5759540000000 1.0
C      1  0.5513110000000  0.4528780000000  0.4462230000000 1.0
C      1  0.5050190000000  0.4919560000000  0.4036550000000 1.0
C      1  0.5733130000000  0.5327060000000  0.4800330000000 1.0
C      1  0.4971340000000  0.4350700000000  0.5475430000000 1.0
C      1  0.5257670000000  0.5218860000000  0.4502800000000 1.0
C      1  0.4518720000000  0.4667130000000  0.4891410000000 1.0
C      1  0.4964840000000  0.4684940000000  0.5826060000000 1.0
C      1  0.5163410000000  0.5845520000000  0.5303540000000 1.0
C      1  0.4922860000000  0.5927850000000  0.5126700000000 1.0
C      1  0.5356080000000  0.5639080000000  0.4572580000000 1.0
C      1  0.6013340000000  0.4800980000000  0.4793540000000 1.0
C      1  0.5066980000000  0.4594690000000  0.4968420000000 1.0
C      1  0.4432850000000  0.4877930000000  0.5760510000000 1.0
C      1  0.5217700000000  0.5139110000000  0.4174570000000 1.0
C      1  0.5865280000000  0.4596680000000  0.4888900000000 1.0
C      1  0.5666060000000  0.5621580000000  0.4957250000000 1.0
C      1  0.4591330000000  0.4529580000000  0.4395410000000 1.0
C      1  0.4473540000000  0.5656570000000  0.5262010000000 1.0
C      1  0.4304930000000  0.4860090000000  0.5360390000000 1.0
C      1  0.5058630000000  0.4633800000000  0.4163440000000 1.0
C      1  0.5027850000000  0.4459140000000  0.4658660000000 1.0
C      1  0.4356770000000  0.4377150000000  0.5163340000000 1.0
C      1  0.5974470000000  0.4990580000000  0.5142270000000 1.0
C      1  0.5823130000000  0.5359960000000  0.5126790000000 1.0
C      1  0.5035350000000  0.4634770000000  0.5304890000000 1.0
C      1  0.5536000000000  0.4824840000000  0.4944740000000 1.0
C      1  0.4692560000000  0.4334110000000  0.5604190000000 1.0
C      1  0.4831510000000  0.4945730000000  0.5697780000000 1.0
C      1  0.5689760000000  0.4846680000000  0.5208460000000 1.0
C      1  0.5233610000000  0.4134210000000  0.5170640000000 1.0
C      1  0.5369720000000  0.4440020000000  0.4957160000000 1.0
C      1  0.4605470000000  0.4342600000000  0.5314500000000 1.0
C      1  0.4568910000000  0.4885290000000  0.5147400000000 1.0
C      1  0.5396410000000  0.5368950000000  0.4775080000000 1.0
C      1  0.4660840000000  0.4591550000000  0.5800430000000 1.0
C      1  0.5584400000000  0.5537860000000  0.5282370000000 1.0
C      1  0.5392260000000  0.4906830000000  0.4487960000000 1.0
C      1  0.4653180000000  0.4880750000000  0.4661160000000 1.0
C      1  0.4410310000000  0.5133000000000  0.5533850000000 1.0
C      1  0.4804890000000  0.5390370000000  0.5044040000000 1.0
C      1  0.4415120000000  0.5493930000000  0.4510600000000 1.0
C      1  0.4024190000000  0.5007570000000  0.5257310000000 1.0
C      1  0.4794450000000  0.4834170000000  0.5402100000000 1.0
C      1  0.4174920000000  0.4586980000000  0.5210230000000 1.0
C      1  0.5413730000000  0.5527260000000  0.4303030000000 1.0
C      1  0.5082050000000  0.5463100000000  0.4344230000000 1.0
C      1  0.4983760000000  0.4951320000000  0.4637540000000 1.0
C      1  0.5471350000000  0.4293740000000  0.5356530000000 1.0
C      1  0.4640640000000  0.5219180000000  0.5768740000000 1.0
C      1  0.5344420000000  0.5105500000000  0.4957610000000 1.0
C      1  0.4973070000000  0.4257960000000  0.5186730000000 1.0
C      1  0.5179390000000  0.4844980000000  0.5530150000000 1.0
C      1  0.4034080000000  0.4652060000000  0.4982470000000 1.0
C      1  0.4618120000000  0.5261930000000  0.5297530000000 1.0
C      1  0.5243750000000  0.4271730000000  0.5588550000000 1.0
C      1  0.4571990000000  0.5314920000000  0.4267800000000 1.0
C      1  0.4193390000000  0.5069570000000  0.4744430000000 1.0
C      1  0.4525320000000  0.4680150000000  0.5516720000000 1.0
C      1  0.4232150000000  0.5501560000000  0.5093200000000 1.0
C      1  0.4221260000000  0.4767680000000  0.4760710000000 1.0
C      1  0.5140840000000  0.4153420000000  0.4671340000000 1.0
C      1  0.4568760000000  0.5721960000000  0.4588880000000 1.0
C      1  0.5656110000000  0.5149090000000  0.5317570000000 1.0
C      1  0.5077920000000  0.5439930000000  0.5204430000000 1.0
C      1  0.5184130000000  0.5382590000000  0.5659940000000 1.0
C      1  0.4326840000000  0.5379450000000  0.4786810000000 1.0
C      1  0.4686830000000  0.5207620000000  0.4569370000000 1.0
C      1  0.4847650000000  0.5162420000000  0.4862560000000 1.0
C      1  0.5109310000000  0.5049000000000  0.5142490000000 1.0
C      1  0.5098420000000  0.5671290000000  0.5526080000000 1.0
C      1  0.4741700000000  0.4357880000000  0.4549210000000 1.0
C      1  0.4448670000000  0.5175960000000  0.5032560000000 1.0
C      1  0.5204550000000  0.4629550000000  0.4427740000000 1.0
C      1  0.4580880000000  0.4195250000000  0.4713190000000 1.0
C      1  0.5644480000000  0.5129550000000  0.4537990000000 1.0
C      1  0.5313710000000  0.4128400000000  0.4886250000000 1.0
C      1  0.4882290000000  0.4876440000000  0.5015480000000 1.0
C      1  0.4881540000000  0.5475160000000  0.4616760000000 1.0
C      1  0.5658670000000  0.4459130000000  0.5121280000000 1.0
C      1  0.5359390000000  0.5313530000000  0.5307690000000 1.0
C      1  0.5099500000000  0.5828140000000  0.4909330000000 1.0
C      1  0.4109360000000  0.5187150000000  0.5052210000000 1.0
C      1  0.4830660000000  0.5492560000000  0.5429360000000 1.0
C      1  0.4308820000000  0.5177970000000  0.4443460000000 1.0
C      1  0.4875040000000  0.5240260000000  0.4220330000000 1.0
C      1  0.5868420000000  0.5459160000000  0.4513780000000 1.0
C      1  0.5467990000000  0.5813450000000  0.5156270000000 1.0
C      1  0.4408580000000  0.4345790000000  0.4874130000000 1.0
C      1  0.4757520000000  0.4465930000000  0.5026480000000 1.0
C      1  0.4732840000000  0.4712210000000  0.4193940000000 1.0
C      1  0.5273280000000  0.5578850000000  0.5012870000000 1.0
C      1  0.5251320000000  0.4508780000000  0.5726840000000 1.0
C      1  0.4511270000000  0.4918350000000  0.4358480000000 1.0
C      1  0.5486150000000  0.4813470000000  0.5622460000000 1.0
C      1  0.5627970000000  0.4752720000000  0.4288530000000 1.0
C      1  0.4339780000000  0.4658500000000  0.4495140000000 1.0
C      1  0.4908520000000  0.4954240000000  0.4344050000000 1.0
C      1  0.5609500000000  0.5093960000000  0.5618880000000 1.0
C      1  0.5645270000000  0.5363420000000  0.4315390000000 1.0
C      1  0.4287990000000  0.5444870000000  0.5452820000000 1.0
C      1  0.5969380000000  0.5091000000000  0.4864860000000 1.0
C      1  0.4567860000000  0.5489300000000  0.5619100000000 1.0
C      1  0.5267080000000  0.4790060000000  0.5881430000000 1.0
C      1  0.4961370000000  0.5232910000000  0.5813840000000 1.0
C      1  0.5578540000000  0.4555620000000  0.4744380000000 1.0
END
