TITL C-2848497-6229-653 0.0048071425129589 125000 -523.357735294808 0 0 97 (C1) n - 1
REM
REM in /home/bkarasulu/work/CARBON/AIRSS/Generating-Clusters/AIREBO/with-SteepDescent/Only-C1/SD-CG-opt/Try1-1.4A-POS3A/HFTN-CG
REM
REM
REM
REM
REM
REM ./C.cell (11c1c37f851c82e70ff6c80c92926a4b)
REM
REM compiler GCC version 9.2.1 20190827 (Red Hat 9.2.1-1)
REM options -cpp -mtune=generic -march=x86-64 -g -O0 -fpre-include=/usr/include/finclude/math-vector-fortran.h
REM seed -92957904 -1349643073 -88842196 -1280605363 1118395818 -1483996136 75698245 1957344313 -566960684 2092635437 71068120 -42835100 205566933 -480161560 828168584 909249473 -509668679 -319086887 1124506836 -1008575706 975072683 152371868 791259640 382415505 -842049765 1771403846 -601872602 -384024660 1679528710 1754213617 -1694520169 -1338550214 -726748320
REM
CELL 1.54180   50.00000   50.00000   50.00000   90.00000   90.00000   90.00000
LATT -1
SFAC C  
C      1  0.4473170000000  0.5230730000000  0.4978510000000 1.0
C      1  0.4503390000000  0.4778430000000  0.5596140000000 1.0
C      1  0.5103030000000  0.5472080000000  0.5364810000000 1.0
C      1  0.4998760000000  0.5769070000000  0.5332300000000 1.0
C      1  0.5441340000000  0.4864490000000  0.4039270000000 1.0
C      1  0.5256110000000  0.4842220000000  0.5847970000000 1.0
C      1  0.5324960000000  0.4349480000000  0.5277000000000 1.0
C      1  0.5167790000000  0.4370990000000  0.4587940000000 1.0
C      1  0.4488450000000  0.4588490000000  0.4283390000000 1.0
C      1  0.5442260000000  0.4895240000000  0.5264660000000 1.0
C      1  0.4795600000000  0.5136420000000  0.5032030000000 1.0
C      1  0.5523890000000  0.5601670000000  0.4493210000000 1.0
C      1  0.4541520000000  0.4575050000000  0.5258810000000 1.0
C      1  0.4728780000000  0.4622720000000  0.5765060000000 1.0
C      1  0.4756220000000  0.4814370000000  0.5371510000000 1.0
C      1  0.4916230000000  0.5019330000000  0.4746670000000 1.0
C      1  0.4828290000000  0.5218080000000  0.4412760000000 1.0
C      1  0.4646720000000  0.5502980000000  0.5085510000000 1.0
C      1  0.4842530000000  0.5716780000000  0.4554970000000 1.0
C      1  0.5218150000000  0.5131270000000  0.4663480000000 1.0
C      1  0.4858140000000  0.4185460000000  0.5088350000000 1.0
C      1  0.4233720000000  0.5663790000000  0.5160760000000 1.0
C      1  0.5696950000000  0.5409360000000  0.5373440000000 1.0
C      1  0.5866250000000  0.4686740000000  0.4937230000000 1.0
C      1  0.4888910000000  0.4391360000000  0.5583900000000 1.0
C      1  0.5254650000000  0.5319870000000  0.4408620000000 1.0
C      1  0.5322080000000  0.4896770000000  0.4348720000000 1.0
C      1  0.5286790000000  0.5631900000000  0.4266590000000 1.0
C      1  0.5354130000000  0.5179270000000  0.5657160000000 1.0
C      1  0.4378360000000  0.4672680000000  0.5001760000000 1.0
C      1  0.5644540000000  0.4384080000000  0.4800020000000 1.0
C      1  0.3977760000000  0.4935850000000  0.4836890000000 1.0
C      1  0.5079360000000  0.4595570000000  0.4411550000000 1.0
C      1  0.5214860000000  0.4835420000000  0.5510540000000 1.0
C      1  0.5622990000000  0.5160420000000  0.5152140000000 1.0
C      1  0.4429470000000  0.5716870000000  0.5345600000000 1.0
C      1  0.5249850000000  0.5892250000000  0.4931870000000 1.0
C      1  0.5118890000000  0.4571470000000  0.5705950000000 1.0
C      1  0.4253280000000  0.4713260000000  0.5375130000000 1.0
C      1  0.5038800000000  0.4340610000000  0.4844400000000 1.0
C      1  0.4880860000000  0.5268510000000  0.5311160000000 1.0
C      1  0.5583220000000  0.4923820000000  0.5636420000000 1.0
C      1  0.5057130000000  0.4232830000000  0.5348530000000 1.0
C      1  0.4636860000000  0.5483010000000  0.5411600000000 1.0
C      1  0.4300650000000  0.5084100000000  0.5230040000000 1.0
C      1  0.5589640000000  0.4440510000000  0.5310850000000 1.0
C      1  0.5441100000000  0.4888910000000  0.4667160000000 1.0
C      1  0.5598760000000  0.4468390000000  0.4412460000000 1.0
C      1  0.5213400000000  0.5413480000000  0.4836080000000 1.0
C      1  0.4837660000000  0.5644370000000  0.4887180000000 1.0
C      1  0.4315260000000  0.5552370000000  0.4636310000000 1.0
C      1  0.4973070000000  0.4725460000000  0.5978110000000 1.0
C      1  0.4554920000000  0.5263650000000  0.5604360000000 1.0
C      1  0.4715930000000  0.4354470000000  0.4840030000000 1.0
C      1  0.4535490000000  0.4918870000000  0.4857860000000 1.0
C      1  0.5584650000000  0.5292540000000  0.4390460000000 1.0
C      1  0.4325080000000  0.5214450000000  0.4672790000000 1.0
C      1  0.4763570000000  0.4796410000000  0.4577960000000 1.0
C      1  0.4595590000000  0.5061980000000  0.4219930000000 1.0
C      1  0.5922970000000  0.4996540000000  0.4799880000000 1.0
C      1  0.5680180000000  0.5111420000000  0.4608600000000 1.0
C      1  0.4982510000000  0.5513600000000  0.4345280000000 1.0
C      1  0.5025140000000  0.5625360000000  0.5641100000000 1.0
C      1  0.4599240000000  0.4506150000000  0.4567960000000 1.0
C      1  0.5399170000000  0.4596420000000  0.4232420000000 1.0
C      1  0.5013360000000  0.5832930000000  0.5057320000000 1.0
C      1  0.5305800000000  0.5266870000000  0.5091460000000 1.0
C      1  0.5380190000000  0.5657650000000  0.4784650000000 1.0
C      1  0.4121850000000  0.4849930000000  0.5097240000000 1.0
C      1  0.5165310000000  0.4515400000000  0.5065030000000 1.0
C      1  0.5748240000000  0.4413720000000  0.5077770000000 1.0
C      1  0.4117990000000  0.5017640000000  0.4617750000000 1.0
C      1  0.5495410000000  0.5039420000000  0.5933060000000 1.0
C      1  0.4727630000000  0.4935440000000  0.5905620000000 1.0
C      1  0.5753500000000  0.5290940000000  0.4866570000000 1.0
C      1  0.4999510000000  0.4924090000000  0.4369860000000 1.0
C      1  0.5390870000000  0.5362100000000  0.5406580000000 1.0
C      1  0.4964590000000  0.5030280000000  0.5507310000000 1.0
C      1  0.5606880000000  0.4692620000000  0.5449460000000 1.0
C      1  0.5310080000000  0.4794360000000  0.4967670000000 1.0
C      1  0.4278180000000  0.5508140000000  0.4935250000000 1.0
C      1  0.4946300000000  0.4752960000000  0.5126380000000 1.0
C      1  0.4146150000000  0.4918310000000  0.4356530000000 1.0
C      1  0.4400930000000  0.4855310000000  0.4246610000000 1.0
C      1  0.4528410000000  0.5370430000000  0.4462940000000 1.0
C      1  0.4741830000000  0.5190630000000  0.5796100000000 1.0
C      1  0.4690440000000  0.4327390000000  0.5330150000000 1.0
C      1  0.4345460000000  0.4482890000000  0.4777170000000 1.0
C      1  0.4761700000000  0.4679330000000  0.4889440000000 1.0
C      1  0.5699900000000  0.5576610000000  0.4784730000000 1.0
C      1  0.5438440000000  0.4280210000000  0.4587250000000 1.0
C      1  0.5686100000000  0.4673220000000  0.4650630000000 1.0
C      1  0.5115360000000  0.5035030000000  0.5087940000000 1.0
C      1  0.4412100000000  0.5063090000000  0.5485770000000 1.0
C      1  0.5037340000000  0.5291000000000  0.5713470000000 1.0
C      1  0.4898390000000  0.5357400000000  0.4715220000000 1.0
C      1  0.5892750000000  0.4954100000000  0.5135870000000 1.0
END
