TITL C-2848497-6229-467 -0.00217241437494819 125000 -581.600780183281 0 0 109 (C1) n - 1
REM
REM in /home/bkarasulu/work/CARBON/AIRSS/Generating-Clusters/AIREBO/with-SteepDescent/Only-C1/SD-CG-opt/Try1-1.4A-POS3A/HFTN-CG
REM
REM
REM
REM
REM
REM ./C.cell (11c1c37f851c82e70ff6c80c92926a4b)
REM
REM compiler GCC version 9.2.1 20190827 (Red Hat 9.2.1-1)
REM options -cpp -mtune=generic -march=x86-64 -g -O0 -fpre-include=/usr/include/finclude/math-vector-fortran.h
REM seed 644373546 -571449343 -1717035742 361004208 -1185509711 2120780415 561017721 -167399508 1549353790 465905936 -293478776 160670217 12653823 96859992 287098074 652267982 1828759543 -815279529 -1175361810 1206934761 27907198 6142535 -523362652 -1430597072 -822289881 -1745581142 -787580967 -316984100 666882835 18501254 -1102334307 271059097 -1951160983
REM
CELL 1.54180   50.00000   50.00000   50.00000   90.00000   90.00000   90.00000
LATT -1
SFAC C  
C      1  0.4684170000000  0.4351380000000  0.4507250000000 1.0
C      1  0.4545580000000  0.5194250000000  0.4226710000000 1.0
C      1  0.5811150000000  0.5139850000000  0.5184200000000 1.0
C      1  0.4470430000000  0.4599440000000  0.4931580000000 1.0
C      1  0.4986040000000  0.4824290000000  0.4088320000000 1.0
C      1  0.5239220000000  0.4404800000000  0.4326750000000 1.0
C      1  0.5024940000000  0.4146750000000  0.4544350000000 1.0
C      1  0.4759930000000  0.5733790000000  0.5528120000000 1.0
C      1  0.4661670000000  0.4768820000000  0.4624050000000 1.0
C      1  0.5194910000000  0.4851980000000  0.4681650000000 1.0
C      1  0.4444280000000  0.5202350000000  0.5633190000000 1.0
C      1  0.4787330000000  0.5865600000000  0.5051310000000 1.0
C      1  0.5224760000000  0.5190860000000  0.4677890000000 1.0
C      1  0.4625970000000  0.4554390000000  0.5188300000000 1.0
C      1  0.4620970000000  0.4861940000000  0.4238620000000 1.0
C      1  0.5440100000000  0.5523070000000  0.4832780000000 1.0
C      1  0.4635300000000  0.5875190000000  0.5326050000000 1.0
C      1  0.4865750000000  0.4249220000000  0.5095550000000 1.0
C      1  0.5719430000000  0.5355870000000  0.4731840000000 1.0
C      1  0.4546100000000  0.5286140000000  0.5132170000000 1.0
C      1  0.5356590000000  0.5799260000000  0.4969290000000 1.0
C      1  0.4746520000000  0.4427680000000  0.4830600000000 1.0
C      1  0.4255220000000  0.4957420000000  0.5483380000000 1.0
C      1  0.4518030000000  0.4528110000000  0.5499320000000 1.0
C      1  0.4846830000000  0.5415480000000  0.5237940000000 1.0
C      1  0.5312570000000  0.4470860000000  0.5207260000000 1.0
C      1  0.4984340000000  0.5491850000000  0.4391810000000 1.0
C      1  0.5649800000000  0.5366750000000  0.5050070000000 1.0
C      1  0.4397300000000  0.4753130000000  0.4441120000000 1.0
C      1  0.4769920000000  0.4628710000000  0.5652000000000 1.0
C      1  0.5111530000000  0.4947890000000  0.5147650000000 1.0
C      1  0.5209710000000  0.4906410000000  0.5770010000000 1.0
C      1  0.5591220000000  0.4977170000000  0.4277890000000 1.0
C      1  0.4083620000000  0.5151900000000  0.4798720000000 1.0
C      1  0.5505150000000  0.5401830000000  0.5560300000000 1.0
C      1  0.5468430000000  0.4857710000000  0.4865290000000 1.0
C      1  0.4318640000000  0.5551320000000  0.4376500000000 1.0
C      1  0.5166530000000  0.4347610000000  0.4712600000000 1.0
C      1  0.4491730000000  0.5159260000000  0.4757720000000 1.0
C      1  0.4903200000000  0.5175060000000  0.5004130000000 1.0
C      1  0.5466350000000  0.5245870000000  0.4445020000000 1.0
C      1  0.5298490000000  0.5187610000000  0.4995400000000 1.0
C      1  0.4709680000000  0.5113660000000  0.5828880000000 1.0
C      1  0.4178690000000  0.5572930000000  0.5268620000000 1.0
C      1  0.4290250000000  0.4405620000000  0.4748830000000 1.0
C      1  0.4786220000000  0.5523090000000  0.4659860000000 1.0
C      1  0.5289420000000  0.4681560000000  0.4422460000000 1.0
C      1  0.4737770000000  0.5034250000000  0.5256430000000 1.0
C      1  0.5718930000000  0.4575020000000  0.4682240000000 1.0
C      1  0.4232490000000  0.5268370000000  0.5377190000000 1.0
C      1  0.5803190000000  0.4484530000000  0.4999180000000 1.0
C      1  0.5269720000000  0.5642470000000  0.5512350000000 1.0
C      1  0.5000560000000  0.5643600000000  0.5060220000000 1.0
C      1  0.5891760000000  0.4867260000000  0.5071470000000 1.0
C      1  0.5361110000000  0.4878150000000  0.5464980000000 1.0
C      1  0.5619260000000  0.4681280000000  0.5496120000000 1.0
C      1  0.5048580000000  0.5136980000000  0.5623520000000 1.0
C      1  0.4559530000000  0.5475150000000  0.4863970000000 1.0
C      1  0.4160080000000  0.4938000000000  0.5164850000000 1.0
C      1  0.5402900000000  0.5365550000000  0.5260630000000 1.0
C      1  0.4218350000000  0.5315210000000  0.5046510000000 1.0
C      1  0.4516860000000  0.5759660000000  0.4964840000000 1.0
C      1  0.4360330000000  0.4892780000000  0.4923670000000 1.0
C      1  0.4883930000000  0.4896120000000  0.5470900000000 1.0
C      1  0.5253780000000  0.5740480000000  0.5243020000000 1.0
C      1  0.5474760000000  0.4363370000000  0.4574990000000 1.0
C      1  0.4878580000000  0.4638630000000  0.4309640000000 1.0
C      1  0.4343650000000  0.5787640000000  0.5217890000000 1.0
C      1  0.5903550000000  0.4825970000000  0.4800100000000 1.0
C      1  0.5110480000000  0.5227890000000  0.5341510000000 1.0
C      1  0.5441180000000  0.4436280000000  0.5495090000000 1.0
C      1  0.5859090000000  0.4655790000000  0.5289630000000 1.0
C      1  0.5019930000000  0.5630690000000  0.5645730000000 1.0
C      1  0.5027970000000  0.5154700000000  0.4399970000000 1.0
C      1  0.4710330000000  0.5398080000000  0.5549000000000 1.0
C      1  0.4789860000000  0.5069540000000  0.4620910000000 1.0
C      1  0.4939290000000  0.4375580000000  0.5645230000000 1.0
C      1  0.4357470000000  0.5261650000000  0.4484980000000 1.0
C      1  0.5515140000000  0.4310980000000  0.4902930000000 1.0
C      1  0.4961180000000  0.4608320000000  0.4638250000000 1.0
C      1  0.5597750000000  0.5046870000000  0.4670080000000 1.0
C      1  0.5170750000000  0.4291830000000  0.5012760000000 1.0
C      1  0.4925030000000  0.5374080000000  0.5811910000000 1.0
C      1  0.4202780000000  0.4921380000000  0.4624760000000 1.0
C      1  0.5925250000000  0.5093580000000  0.4652000000000 1.0
C      1  0.4922400000000  0.4308160000000  0.4277980000000 1.0
C      1  0.5511420000000  0.4617980000000  0.5030080000000 1.0
C      1  0.4407240000000  0.4444930000000  0.4495040000000 1.0
C      1  0.5481100000000  0.5040020000000  0.5872100000000 1.0
C      1  0.5506260000000  0.4989130000000  0.5177190000000 1.0
C      1  0.4813740000000  0.4873420000000  0.4898770000000 1.0
C      1  0.5989050000000  0.5210230000000  0.5446770000000 1.0
C      1  0.5211100000000  0.4455030000000  0.5677000000000 1.0
C      1  0.4652800000000  0.5493370000000  0.4352280000000 1.0
C      1  0.5114490000000  0.4652190000000  0.5415870000000 1.0
C      1  0.4913390000000  0.4671300000000  0.5142230000000 1.0
C      1  0.4839030000000  0.5098950000000  0.4129310000000 1.0
C      1  0.5267650000000  0.5853330000000  0.4687440000000 1.0
C      1  0.4597170000000  0.4252920000000  0.5307460000000 1.0
C      1  0.4886180000000  0.4201080000000  0.5431590000000 1.0
C      1  0.3920480000000  0.5049620000000  0.5050920000000 1.0
C      1  0.5295970000000  0.5101600000000  0.4197510000000 1.0
C      1  0.4884910000000  0.4863480000000  0.5863770000000 1.0
C      1  0.5631760000000  0.5165500000000  0.5672000000000 1.0
C      1  0.5106150000000  0.5495370000000  0.4772150000000 1.0
C      1  0.5824710000000  0.4928780000000  0.5521010000000 1.0
C      1  0.5176150000000  0.5734650000000  0.4458470000000 1.0
C      1  0.4286460000000  0.4670010000000  0.5579830000000 1.0
C      1  0.5573280000000  0.4735510000000  0.4420340000000 1.0
END
