TITL C-2848494-1720-542 0.00101849316018354 125000 -986.578065997836 0 0 176 (C1) n - 1
REM
REM in /home/bkarasulu/work/CARBON/AIRSS/Generating-Clusters/AIREBO/with-SteepDescent/Only-C1/SD-CG-opt/Try1-1.4A-POS3A/HFTN-CG
REM
REM
REM
REM
REM
REM ./C.cell (11c1c37f851c82e70ff6c80c92926a4b)
REM
REM compiler GCC version 9.2.1 20190827 (Red Hat 9.2.1-1)
REM options -cpp -mtune=generic -march=x86-64 -g -O0 -fpre-include=/usr/include/finclude/math-vector-fortran.h
REM seed 310657958 449238953 -125054596 -1883970353 883911483 -192988363 760131556 -2043153369 386897072 -555338511 -1831346304 663591782 -1970359366 -234110451 60138226 -1468400043 1269770012 604307811 607884206 1076034315 154174068 86308873 -994380048 -135462623 -2134437944 -1544534725 -499315125 760220495 1611973608 584243029 -968970107 1563000040 -683217766
REM
CELL 1.54180   50.00000   50.00000   50.00000   90.00000   90.00000   90.00000
LATT -1
SFAC C  
C      1  0.5095960000000  0.5651460000000  0.5019130000000 1.0
C      1  0.6093560000000  0.5093460000000  0.5204310000000 1.0
C      1  0.4297190000000  0.4491970000000  0.5124020000000 1.0
C      1  0.4994750000000  0.5432650000000  0.4221030000000 1.0
C      1  0.4350520000000  0.4174920000000  0.5357230000000 1.0
C      1  0.4163810000000  0.4372020000000  0.4597400000000 1.0
C      1  0.4703680000000  0.4163430000000  0.4282450000000 1.0
C      1  0.5266970000000  0.5921040000000  0.4686870000000 1.0
C      1  0.4293510000000  0.5824050000000  0.5270030000000 1.0
C      1  0.5361250000000  0.5567840000000  0.4876970000000 1.0
C      1  0.4434420000000  0.4185190000000  0.4574900000000 1.0
C      1  0.4091340000000  0.4907510000000  0.4845490000000 1.0
C      1  0.5279010000000  0.4577340000000  0.3972820000000 1.0
C      1  0.4982110000000  0.4714270000000  0.4804910000000 1.0
C      1  0.5210610000000  0.4041030000000  0.5312970000000 1.0
C      1  0.4965430000000  0.5138740000000  0.5159020000000 1.0
C      1  0.5398330000000  0.4829390000000  0.3940990000000 1.0
C      1  0.5280590000000  0.5936770000000  0.5005540000000 1.0
C      1  0.4672140000000  0.4444720000000  0.5502300000000 1.0
C      1  0.5279840000000  0.5061830000000  0.5242430000000 1.0
C      1  0.5317380000000  0.5051750000000  0.6057800000000 1.0
C      1  0.4960090000000  0.5665930000000  0.5577450000000 1.0
C      1  0.5608900000000  0.5523650000000  0.4184500000000 1.0
C      1  0.5137240000000  0.3944930000000  0.4507050000000 1.0
C      1  0.4882220000000  0.5311210000000  0.4470750000000 1.0
C      1  0.4750360000000  0.5758450000000  0.4429990000000 1.0
C      1  0.4869850000000  0.4302830000000  0.5068910000000 1.0
C      1  0.5018440000000  0.4910670000000  0.6061960000000 1.0
C      1  0.5462940000000  0.5098120000000  0.4395490000000 1.0
C      1  0.5157610000000  0.4770850000000  0.5368950000000 1.0
C      1  0.5688090000000  0.4713760000000  0.4354090000000 1.0
C      1  0.5605680000000  0.5950250000000  0.4681060000000 1.0
C      1  0.5576200000000  0.5500190000000  0.5788570000000 1.0
C      1  0.5748490000000  0.4738120000000  0.5237570000000 1.0
C      1  0.5916390000000  0.4937490000000  0.4784660000000 1.0
C      1  0.5170040000000  0.4387430000000  0.4998640000000 1.0
C      1  0.4492340000000  0.4630920000000  0.4929550000000 1.0
C      1  0.5352110000000  0.5245930000000  0.4843500000000 1.0
C      1  0.4485370000000  0.4637280000000  0.5334240000000 1.0
C      1  0.5198370000000  0.4376550000000  0.4235110000000 1.0
C      1  0.4020470000000  0.5202660000000  0.4706950000000 1.0
C      1  0.4875410000000  0.4659510000000  0.5628050000000 1.0
C      1  0.5195770000000  0.4715810000000  0.5061840000000 1.0
C      1  0.4841550000000  0.5794880000000  0.5301260000000 1.0
C      1  0.4726270000000  0.4690470000000  0.4320140000000 1.0
C      1  0.3982970000000  0.4909100000000  0.5142170000000 1.0
C      1  0.5472580000000  0.4446970000000  0.5754210000000 1.0
C      1  0.5740690000000  0.4429220000000  0.4796700000000 1.0
C      1  0.6139070000000  0.4812680000000  0.5194780000000 1.0
C      1  0.3985850000000  0.4832940000000  0.4561780000000 1.0
C      1  0.5505170000000  0.4254400000000  0.4624660000000 1.0
C      1  0.5564460000000  0.5394470000000  0.4468630000000 1.0
C      1  0.5915050000000  0.5222320000000  0.5417120000000 1.0
C      1  0.4444250000000  0.4524860000000  0.5816640000000 1.0
C      1  0.5536710000000  0.5619860000000  0.5503900000000 1.0
C      1  0.5890510000000  0.4676950000000  0.5687170000000 1.0
C      1  0.4958340000000  0.5439470000000  0.6014390000000 1.0
C      1  0.5767530000000  0.4341890000000  0.5308770000000 1.0
C      1  0.4517450000000  0.5463510000000  0.4944350000000 1.0
C      1  0.4489610000000  0.5834340000000  0.4589080000000 1.0
C      1  0.4820890000000  0.4242550000000  0.5351090000000 1.0
C      1  0.5557760000000  0.4344460000000  0.5506240000000 1.0
C      1  0.5695690000000  0.5953260000000  0.4418850000000 1.0
C      1  0.4106340000000  0.4602660000000  0.4452680000000 1.0
C      1  0.4989060000000  0.4618720000000  0.4116680000000 1.0
C      1  0.5874980000000  0.5524490000000  0.5316470000000 1.0
C      1  0.4843120000000  0.5703070000000  0.4855890000000 1.0
C      1  0.5478640000000  0.4879970000000  0.4651540000000 1.0
C      1  0.4273790000000  0.4665020000000  0.4234730000000 1.0
C      1  0.4486030000000  0.4914980000000  0.4304090000000 1.0
C      1  0.6171860000000  0.4757070000000  0.4918040000000 1.0
C      1  0.5394770000000  0.5629960000000  0.4570110000000 1.0
C      1  0.4961790000000  0.4790590000000  0.4489150000000 1.0
C      1  0.5204630000000  0.5034200000000  0.3934800000000 1.0
C      1  0.5583720000000  0.5833110000000  0.5240380000000 1.0
C      1  0.5211920000000  0.5179860000000  0.5554190000000 1.0
C      1  0.4719860000000  0.5417720000000  0.5857680000000 1.0
C      1  0.5205940000000  0.3810590000000  0.4786080000000 1.0
C      1  0.4750600000000  0.5443500000000  0.4737510000000 1.0
C      1  0.5483230000000  0.4992280000000  0.5578350000000 1.0
C      1  0.4078230000000  0.4341190000000  0.5299940000000 1.0
C      1  0.5676070000000  0.4243340000000  0.5053350000000 1.0
C      1  0.4291890000000  0.4537090000000  0.3993910000000 1.0
C      1  0.4002860000000  0.5091540000000  0.4402330000000 1.0
C      1  0.5879090000000  0.4920730000000  0.5492940000000 1.0
C      1  0.5001660000000  0.5708690000000  0.4253140000000 1.0
C      1  0.4269970000000  0.5611540000000  0.4577840000000 1.0
C      1  0.5744300000000  0.5836870000000  0.4927350000000 1.0
C      1  0.5038800000000  0.5215420000000  0.6176470000000 1.0
C      1  0.4495550000000  0.4125640000000  0.5105900000000 1.0
C      1  0.5528880000000  0.4317980000000  0.4291430000000 1.0
C      1  0.5719810000000  0.4719000000000  0.4926790000000 1.0
C      1  0.4936960000000  0.4603790000000  0.6017460000000 1.0
C      1  0.5091410000000  0.5303330000000  0.3993470000000 1.0
C      1  0.5644650000000  0.5141190000000  0.4766680000000 1.0
C      1  0.5455060000000  0.4585770000000  0.4566480000000 1.0
C      1  0.4577540000000  0.5612580000000  0.5719820000000 1.0
C      1  0.4820650000000  0.6094020000000  0.4920810000000 1.0
C      1  0.4899230000000  0.5034950000000  0.4881760000000 1.0
C      1  0.4910140000000  0.5465830000000  0.5235200000000 1.0
C      1  0.5427370000000  0.3969980000000  0.4627570000000 1.0
C      1  0.5461370000000  0.5305260000000  0.5160020000000 1.0
C      1  0.4540450000000  0.5893850000000  0.5374370000000 1.0
C      1  0.5329510000000  0.4422170000000  0.5296930000000 1.0
C      1  0.5886410000000  0.5171840000000  0.4376340000000 1.0
C      1  0.4255890000000  0.5765160000000  0.4966660000000 1.0
C      1  0.5480580000000  0.4715730000000  0.5380480000000 1.0
C      1  0.4746560000000  0.4116520000000  0.4609370000000 1.0
C      1  0.5006960000000  0.6018500000000  0.5164340000000 1.0
C      1  0.4754210000000  0.4565920000000  0.4950760000000 1.0
C      1  0.4659800000000  0.4847090000000  0.5220630000000 1.0
C      1  0.4705940000000  0.5877040000000  0.5661660000000 1.0
C      1  0.4577320000000  0.5167280000000  0.4514870000000 1.0
C      1  0.4706970000000  0.5164140000000  0.5667560000000 1.0
C      1  0.5546560000000  0.5797690000000  0.4224560000000 1.0
C      1  0.5036470000000  0.4245740000000  0.4486620000000 1.0
C      1  0.5261790000000  0.5755220000000  0.5651700000000 1.0
C      1  0.4946380000000  0.5937740000000  0.4644410000000 1.0
C      1  0.5675470000000  0.5192490000000  0.4145370000000 1.0
C      1  0.5805460000000  0.4428870000000  0.4462230000000 1.0
C      1  0.4796320000000  0.4919760000000  0.5819180000000 1.0
C      1  0.5645970000000  0.5547750000000  0.5066210000000 1.0
C      1  0.4674520000000  0.5064060000000  0.4063560000000 1.0
C      1  0.4467230000000  0.5067370000000  0.5491990000000 1.0
C      1  0.3861960000000  0.5485010000000  0.4816870000000 1.0
C      1  0.5384920000000  0.4126210000000  0.5033750000000 1.0
C      1  0.4389380000000  0.4868620000000  0.4852610000000 1.0
C      1  0.4956880000000  0.4950890000000  0.4124140000000 1.0
C      1  0.5844600000000  0.5366130000000  0.4624970000000 1.0
C      1  0.3936550000000  0.5452020000000  0.5459740000000 1.0
C      1  0.4490930000000  0.5124080000000  0.5157300000000 1.0
C      1  0.5648770000000  0.4651810000000  0.5843190000000 1.0
C      1  0.4445580000000  0.4018740000000  0.5828350000000 1.0
C      1  0.4451330000000  0.4238880000000  0.5659530000000 1.0
C      1  0.4768510000000  0.4047320000000  0.4917260000000 1.0
C      1  0.5151870000000  0.5030840000000  0.4391450000000 1.0
C      1  0.5358600000000  0.5271770000000  0.5834410000000 1.0
C      1  0.6002300000000  0.4563200000000  0.5381060000000 1.0
C      1  0.4005560000000  0.5762370000000  0.4729340000000 1.0
C      1  0.5168510000000  0.4461350000000  0.4672300000000 1.0
C      1  0.3972780000000  0.4733730000000  0.5576800000000 1.0
C      1  0.5585710000000  0.5286990000000  0.5451960000000 1.0
C      1  0.4531380000000  0.5486700000000  0.4406400000000 1.0
C      1  0.4183280000000  0.5195760000000  0.5102370000000 1.0
C      1  0.5165510000000  0.4288730000000  0.5544440000000 1.0
C      1  0.4455850000000  0.5283160000000  0.4153500000000 1.0
C      1  0.5189060000000  0.5540800000000  0.5879280000000 1.0
C      1  0.4964980000000  0.4014350000000  0.5534040000000 1.0
C      1  0.5094740000000  0.5178850000000  0.4687090000000 1.0
C      1  0.4153270000000  0.5627310000000  0.5440630000000 1.0
C      1  0.5617860000000  0.4880320000000  0.4099940000000 1.0
C      1  0.4195360000000  0.5444370000000  0.4870570000000 1.0
C      1  0.4666590000000  0.4554000000000  0.5981310000000 1.0
C      1  0.4149900000000  0.5003620000000  0.5585300000000 1.0
C      1  0.4335710000000  0.4271960000000  0.4867640000000 1.0
C      1  0.5135110000000  0.4497470000000  0.5778350000000 1.0
C      1  0.4957240000000  0.5342600000000  0.5545770000000 1.0
C      1  0.5253640000000  0.5796460000000  0.4309010000000 1.0
C      1  0.5081380000000  0.3967720000000  0.5017200000000 1.0
C      1  0.3974290000000  0.4630750000000  0.5314870000000 1.0
C      1  0.4560340000000  0.5889310000000  0.4887430000000 1.0
C      1  0.4431460000000  0.5524020000000  0.5494230000000 1.0
C      1  0.5255670000000  0.5840330000000  0.5330630000000 1.0
C      1  0.5926180000000  0.5533250000000  0.4874140000000 1.0
C      1  0.5515190000000  0.4900220000000  0.5866180000000 1.0
C      1  0.4370210000000  0.4751890000000  0.5611390000000 1.0
C      1  0.5436390000000  0.4882340000000  0.4988930000000 1.0
C      1  0.5907010000000  0.4905460000000  0.4474550000000 1.0
C      1  0.4668800000000  0.4396800000000  0.4199020000000 1.0
C      1  0.4595360000000  0.5089440000000  0.4835320000000 1.0
C      1  0.4625000000000  0.4931460000000  0.6105130000000 1.0
C      1  0.6032700000000  0.5215400000000  0.4942480000000 1.0
C      1  0.4894600000000  0.4922650000000  0.5413170000000 1.0
C      1  0.3995880000000  0.5167640000000  0.5362710000000 1.0
C      1  0.4215770000000  0.5117540000000  0.4235610000000 1.0
C      1  0.4583740000000  0.5429410000000  0.5248110000000 1.0
END
