TITL C-2848496-4490-558 0.00225330873142013 125000 -488.346678967754 0 0 92 (C1) n - 1
REM
REM in /home/bkarasulu/work/CARBON/AIRSS/Generating-Clusters/AIREBO/with-SteepDescent/Only-C1/SD-CG-opt/Try1-1.4A-POS3A/HFTN-CG
REM
REM
REM
REM
REM
REM ./C.cell (11c1c37f851c82e70ff6c80c92926a4b)
REM
REM compiler GCC version 9.2.1 20190827 (Red Hat 9.2.1-1)
REM options -cpp -mtune=generic -march=x86-64 -g -O0 -fpre-include=/usr/include/finclude/math-vector-fortran.h
REM seed 460421501 470657236 1009113445 -80760713 -1529990846 20570272 -418253751 1310717653 -949297795 -1244514514 1142910387 -1829296289 1503873271 -64938939 -2109356994 -1296149254 -680132208 1119084686 989172599 1191250719 1776479854 1375154638 1060235577 2078107999 -2079253510 -529117185 -958548507 -2056668799 -505697339 1446286393 -1518077906 -773887350 -15488324
REM
CELL 1.54180   50.00000   50.00000   50.00000   90.00000   90.00000   90.00000
LATT -1
SFAC C  
C      1  0.4890170000000  0.5859360000000  0.4814740000000 1.0
C      1  0.4996410000000  0.5581960000000  0.5571620000000 1.0
C      1  0.4823450000000  0.4555370000000  0.5259770000000 1.0
C      1  0.5060300000000  0.4555320000000  0.4259800000000 1.0
C      1  0.4996840000000  0.4721830000000  0.5500290000000 1.0
C      1  0.5403990000000  0.4479000000000  0.5202940000000 1.0
C      1  0.3984350000000  0.5042240000000  0.4810220000000 1.0
C      1  0.5025950000000  0.5225060000000  0.4524390000000 1.0
C      1  0.4714390000000  0.5143320000000  0.5487160000000 1.0
C      1  0.4986460000000  0.5236360000000  0.5902350000000 1.0
C      1  0.4242240000000  0.4746360000000  0.5323320000000 1.0
C      1  0.5444240000000  0.5165650000000  0.4686660000000 1.0
C      1  0.5344070000000  0.5706230000000  0.4833730000000 1.0
C      1  0.5243720000000  0.5313340000000  0.5271830000000 1.0
C      1  0.5046550000000  0.5116120000000  0.5466320000000 1.0
C      1  0.5476660000000  0.4932240000000  0.5423010000000 1.0
C      1  0.5471130000000  0.4821150000000  0.4419170000000 1.0
C      1  0.4899500000000  0.4274500000000  0.5094120000000 1.0
C      1  0.4404480000000  0.4424390000000  0.4633480000000 1.0
C      1  0.5192040000000  0.4800330000000  0.4832560000000 1.0
C      1  0.4573390000000  0.5033300000000  0.5769700000000 1.0
C      1  0.4503540000000  0.5338920000000  0.5305760000000 1.0
C      1  0.5313800000000  0.4749790000000  0.5622310000000 1.0
C      1  0.5310450000000  0.4223690000000  0.5030830000000 1.0
C      1  0.4814070000000  0.5712090000000  0.5357990000000 1.0
C      1  0.5585670000000  0.5412510000000  0.4582600000000 1.0
C      1  0.4365070000000  0.4453360000000  0.5201720000000 1.0
C      1  0.5569680000000  0.5638770000000  0.4985120000000 1.0
C      1  0.4072720000000  0.4961390000000  0.5374940000000 1.0
C      1  0.4425380000000  0.4958500000000  0.5045590000000 1.0
C      1  0.4775900000000  0.4681070000000  0.4340130000000 1.0
C      1  0.5298910000000  0.4549110000000  0.4385730000000 1.0
C      1  0.5677900000000  0.4595100000000  0.5065930000000 1.0
C      1  0.4557630000000  0.5135520000000  0.4537490000000 1.0
C      1  0.4808110000000  0.4713990000000  0.4981830000000 1.0
C      1  0.5328940000000  0.4805850000000  0.5143840000000 1.0
C      1  0.4538480000000  0.4325950000000  0.4932250000000 1.0
C      1  0.4474430000000  0.4575290000000  0.4414520000000 1.0
C      1  0.4783360000000  0.5344420000000  0.5111600000000 1.0
C      1  0.4553360000000  0.4554340000000  0.5466300000000 1.0
C      1  0.5617910000000  0.4939050000000  0.4871330000000 1.0
C      1  0.5135920000000  0.4989380000000  0.5756970000000 1.0
C      1  0.4736990000000  0.5665860000000  0.4700150000000 1.0
C      1  0.4855870000000  0.5515470000000  0.4475480000000 1.0
C      1  0.4577190000000  0.5505520000000  0.4902820000000 1.0
C      1  0.4329080000000  0.5157150000000  0.5777270000000 1.0
C      1  0.4826830000000  0.5014490000000  0.4702770000000 1.0
C      1  0.5332570000000  0.4375070000000  0.4627010000000 1.0
C      1  0.4782560000000  0.4110360000000  0.4834000000000 1.0
C      1  0.4938120000000  0.5413040000000  0.4161740000000 1.0
C      1  0.5418940000000  0.5359010000000  0.4342130000000 1.0
C      1  0.4557310000000  0.5652720000000  0.5213880000000 1.0
C      1  0.5902690000000  0.5026220000000  0.4707190000000 1.0
C      1  0.5023960000000  0.4916100000000  0.5223630000000 1.0
C      1  0.4829310000000  0.4360000000000  0.5537980000000 1.0
C      1  0.5738580000000  0.5350100000000  0.5368020000000 1.0
C      1  0.4927530000000  0.5108100000000  0.4992690000000 1.0
C      1  0.5084980000000  0.4308180000000  0.5612460000000 1.0
C      1  0.5789380000000  0.4793120000000  0.4541330000000 1.0
C      1  0.4556030000000  0.4874930000000  0.5348250000000 1.0
C      1  0.4208220000000  0.5153130000000  0.4940880000000 1.0
C      1  0.5187420000000  0.5224270000000  0.4886270000000 1.0
C      1  0.4236820000000  0.5226570000000  0.5484750000000 1.0
C      1  0.5303220000000  0.5571040000000  0.5562820000000 1.0
C      1  0.4338960000000  0.4599840000000  0.4904000000000 1.0
C      1  0.4401110000000  0.5304410000000  0.4750400000000 1.0
C      1  0.5846450000000  0.5170020000000  0.5176890000000 1.0
C      1  0.5778700000000  0.4560350000000  0.4771090000000 1.0
C      1  0.4874690000000  0.4417620000000  0.4721770000000 1.0
C      1  0.4819790000000  0.4864200000000  0.5753250000000 1.0
C      1  0.5025890000000  0.5555890000000  0.5174710000000 1.0
C      1  0.4978180000000  0.5112370000000  0.4147630000000 1.0
C      1  0.5169090000000  0.5552880000000  0.4348540000000 1.0
C      1  0.4122440000000  0.5324270000000  0.5188560000000 1.0
C      1  0.5111670000000  0.4178740000000  0.4770530000000 1.0
C      1  0.5104100000000  0.5767830000000  0.4971690000000 1.0
C      1  0.5892100000000  0.5253170000000  0.4911070000000 1.0
C      1  0.5294710000000  0.4455210000000  0.5507880000000 1.0
C      1  0.5087910000000  0.4527090000000  0.4962940000000 1.0
C      1  0.5717620000000  0.4884440000000  0.5191990000000 1.0
C      1  0.4848110000000  0.5372340000000  0.5700260000000 1.0
C      1  0.4428710000000  0.4873240000000  0.4363690000000 1.0
C      1  0.5195910000000  0.5478550000000  0.4679300000000 1.0
C      1  0.5455640000000  0.5256460000000  0.5531670000000 1.0
C      1  0.5460560000000  0.4673010000000  0.4729410000000 1.0
C      1  0.4578860000000  0.4809040000000  0.4812170000000 1.0
C      1  0.5259760000000  0.5064880000000  0.4334780000000 1.0
C      1  0.5746290000000  0.5480700000000  0.4817700000000 1.0
C      1  0.5484060000000  0.5555350000000  0.5274770000000 1.0
C      1  0.5420820000000  0.5126610000000  0.5078240000000 1.0
C      1  0.4726800000000  0.4996310000000  0.4267470000000 1.0
C      1  0.4955860000000  0.4713220000000  0.4612110000000 1.0
END
