TITL C-2847954-6904-346 0.00356630097601977 125000 -610.814559531024 0 0 117 (C1) n - 1
REM
REM in /home/bkarasulu/work/CARBON/AIRSS/Generating-Clusters/AIREBO/with-SteepDescent/Only-C1/SD-CG-opt/Try1-1.4A-POS3A/HFTN-CG
REM
REM
REM
REM
REM
REM ./C.cell (11c1c37f851c82e70ff6c80c92926a4b)
REM
REM compiler GCC version 9.2.1 20190827 (Red Hat 9.2.1-1)
REM options -cpp -mtune=generic -march=x86-64 -g -O0 -fpre-include=/usr/include/finclude/math-vector-fortran.h
REM seed 1316134845 77788500 -1607622922 -813066795 1734258466 1046323281 -1867413879 276487886 -2068135496 83931539 1612517274 -1003886205 -1973669011 -737066851 1569645216 -537909945 42834363 1277465331 -1315891620 489046486 227535374 156523291 1329016084 -1491813622 -834354378 -950568176 1382792714 1536417729 -1923716350 1963130944 1690685134 394464001 1199218442
REM
CELL 1.54180   50.00000   50.00000   50.00000   90.00000   90.00000   90.00000
LATT -1
SFAC C  
C      1  0.5285740000000  0.5366030000000  0.4091550000000 1.0
C      1  0.5584050000000  0.5473240000000  0.4674280000000 1.0
C      1  0.5433550000000  0.4937710000000  0.5588040000000 1.0
C      1  0.4274320000000  0.5044410000000  0.5511260000000 1.0
C      1  0.4357990000000  0.5700590000000  0.4789830000000 1.0
C      1  0.4722470000000  0.4825920000000  0.5954050000000 1.0
C      1  0.5377190000000  0.5379210000000  0.5314740000000 1.0
C      1  0.5187380000000  0.4831480000000  0.5416170000000 1.0
C      1  0.4918410000000  0.4857320000000  0.5223320000000 1.0
C      1  0.4779900000000  0.5224490000000  0.5073010000000 1.0
C      1  0.4811720000000  0.4309000000000  0.5477760000000 1.0
C      1  0.5051200000000  0.4274020000000  0.5252160000000 1.0
C      1  0.5046630000000  0.4824940000000  0.4802960000000 1.0
C      1  0.4656110000000  0.5772050000000  0.4844470000000 1.0
C      1  0.4919460000000  0.5218730000000  0.4488940000000 1.0
C      1  0.4420800000000  0.5154750000000  0.4305370000000 1.0
C      1  0.5804310000000  0.5418990000000  0.5096500000000 1.0
C      1  0.5739400000000  0.5189380000000  0.5616630000000 1.0
C      1  0.4495320000000  0.5406200000000  0.4859660000000 1.0
C      1  0.4944720000000  0.5735640000000  0.5358480000000 1.0
C      1  0.4796480000000  0.5409470000000  0.5852790000000 1.0
C      1  0.5394370000000  0.5172840000000  0.4349410000000 1.0
C      1  0.4614200000000  0.4208190000000  0.5012520000000 1.0
C      1  0.5516290000000  0.5240540000000  0.5066000000000 1.0
C      1  0.4725730000000  0.5395970000000  0.5325380000000 1.0
C      1  0.5384750000000  0.4681280000000  0.4652160000000 1.0
C      1  0.4816840000000  0.5581250000000  0.4361070000000 1.0
C      1  0.5108970000000  0.5452060000000  0.4329580000000 1.0
C      1  0.5720770000000  0.4523130000000  0.4973680000000 1.0
C      1  0.5614970000000  0.4790650000000  0.5266820000000 1.0
C      1  0.5298640000000  0.4454870000000  0.5140930000000 1.0
C      1  0.4258840000000  0.5522340000000  0.5305080000000 1.0
C      1  0.5443690000000  0.4719950000000  0.4984790000000 1.0
C      1  0.4632600000000  0.5407970000000  0.4234130000000 1.0
C      1  0.5099010000000  0.4523690000000  0.4641630000000 1.0
C      1  0.5007540000000  0.4179180000000  0.4472980000000 1.0
C      1  0.5414370000000  0.4867150000000  0.4269360000000 1.0
C      1  0.5615970000000  0.5448170000000  0.5496570000000 1.0
C      1  0.5269140000000  0.4521010000000  0.5476980000000 1.0
C      1  0.5658440000000  0.5607800000000  0.4903470000000 1.0
C      1  0.5125620000000  0.4230800000000  0.5581100000000 1.0
C      1  0.4906190000000  0.4899560000000  0.4001750000000 1.0
C      1  0.5058610000000  0.5986770000000  0.5426790000000 1.0
C      1  0.4469750000000  0.5399680000000  0.5766010000000 1.0
C      1  0.4828170000000  0.4896830000000  0.4428480000000 1.0
C      1  0.5985690000000  0.4649850000000  0.4882970000000 1.0
C      1  0.4762060000000  0.4434160000000  0.4835510000000 1.0
C      1  0.4316090000000  0.4873750000000  0.4411750000000 1.0
C      1  0.4121370000000  0.5349810000000  0.4735430000000 1.0
C      1  0.5162570000000  0.4879870000000  0.4488080000000 1.0
C      1  0.4712130000000  0.5795980000000  0.5117370000000 1.0
C      1  0.4089320000000  0.5123320000000  0.5062810000000 1.0
C      1  0.5568740000000  0.5874230000000  0.4875690000000 1.0
C      1  0.5411520000000  0.5893810000000  0.4642710000000 1.0
C      1  0.5574210000000  0.4420280000000  0.4622290000000 1.0
C      1  0.5324180000000  0.5596210000000  0.4541200000000 1.0
C      1  0.5597870000000  0.5345600000000  0.4134390000000 1.0
C      1  0.4030720000000  0.5675720000000  0.4700990000000 1.0
C      1  0.4406570000000  0.5199820000000  0.4624790000000 1.0
C      1  0.4565900000000  0.5041180000000  0.5238210000000 1.0
C      1  0.5093740000000  0.5490980000000  0.5219040000000 1.0
C      1  0.5791320000000  0.5148860000000  0.5282930000000 1.0
C      1  0.4788930000000  0.4610490000000  0.5794510000000 1.0
C      1  0.4745570000000  0.4755780000000  0.4945210000000 1.0
C      1  0.5177490000000  0.4729280000000  0.4119520000000 1.0
C      1  0.4536950000000  0.4832580000000  0.5505150000000 1.0
C      1  0.5335270000000  0.4918630000000  0.5897030000000 1.0
C      1  0.5086930000000  0.4518240000000  0.5764250000000 1.0
C      1  0.5079950000000  0.5152520000000  0.5173860000000 1.0
C      1  0.6068590000000  0.5515370000000  0.5124470000000 1.0
C      1  0.4568040000000  0.4512740000000  0.5555140000000 1.0
C      1  0.4269940000000  0.5321470000000  0.5561590000000 1.0
C      1  0.4408440000000  0.4655830000000  0.4272210000000 1.0
C      1  0.5831770000000  0.4986980000000  0.4743520000000 1.0
C      1  0.5277300000000  0.5218920000000  0.4665330000000 1.0
C      1  0.5083920000000  0.4464640000000  0.4311390000000 1.0
C      1  0.5850250000000  0.4901000000000  0.5069030000000 1.0
C      1  0.4358890000000  0.4396730000000  0.5736230000000 1.0
C      1  0.5289100000000  0.5019820000000  0.4940850000000 1.0
C      1  0.5452010000000  0.4270860000000  0.4899210000000 1.0
C      1  0.5080980000000  0.5490780000000  0.4723870000000 1.0
C      1  0.4450280000000  0.4284730000000  0.4636310000000 1.0
C      1  0.4710410000000  0.5251340000000  0.5573610000000 1.0
C      1  0.5439700000000  0.5221690000000  0.5774990000000 1.0
C      1  0.4417090000000  0.4690950000000  0.5005340000000 1.0
C      1  0.5763420000000  0.4861200000000  0.5557150000000 1.0
C      1  0.4885830000000  0.4564920000000  0.4056360000000 1.0
C      1  0.5584130000000  0.4572920000000  0.5526150000000 1.0
C      1  0.4707940000000  0.4596740000000  0.4322670000000 1.0
C      1  0.4721240000000  0.5086030000000  0.4166900000000 1.0
C      1  0.4282230000000  0.4835940000000  0.4728750000000 1.0
C      1  0.4934120000000  0.4190490000000  0.4997280000000 1.0
C      1  0.5143100000000  0.4237500000000  0.4774100000000 1.0
C      1  0.4561950000000  0.5613360000000  0.5284230000000 1.0
C      1  0.4740620000000  0.4368540000000  0.4516810000000 1.0
C      1  0.5782500000000  0.4682270000000  0.4612270000000 1.0
C      1  0.4276410000000  0.4239400000000  0.5224440000000 1.0
C      1  0.6105360000000  0.5089470000000  0.4643890000000 1.0
C      1  0.4133990000000  0.5564690000000  0.5006530000000 1.0
C      1  0.5658230000000  0.4734850000000  0.4322430000000 1.0
C      1  0.4830110000000  0.4970950000000  0.5529640000000 1.0
C      1  0.5083400000000  0.5043690000000  0.5744490000000 1.0
C      1  0.5299860000000  0.5473510000000  0.5763170000000 1.0
C      1  0.4339400000000  0.4420340000000  0.4814610000000 1.0
C      1  0.5011000000000  0.5512540000000  0.5609660000000 1.0
C      1  0.4418860000000  0.4458870000000  0.5254330000000 1.0
C      1  0.4821050000000  0.5687060000000  0.4642060000000 1.0
C      1  0.5256390000000  0.4662160000000  0.5989300000000 1.0
C      1  0.5614750000000  0.5180500000000  0.4681910000000 1.0
C      1  0.4259040000000  0.4905670000000  0.5216400000000 1.0
C      1  0.4052410000000  0.5031840000000  0.4779370000000 1.0
C      1  0.4797600000000  0.5312990000000  0.4776440000000 1.0
C      1  0.5142020000000  0.5219510000000  0.5501370000000 1.0
C      1  0.4822070000000  0.5075790000000  0.5914670000000 1.0
C      1  0.4379600000000  0.5272620000000  0.5115240000000 1.0
C      1  0.4605780000000  0.4928960000000  0.4681020000000 1.0
C      1  0.5573170000000  0.4024700000000  0.4978910000000 1.0
END
