TITL C-2847949-8115-346 0.000692632304965801 125000 -1035.73549538869 0 0 194 (C1) n - 1
REM
REM in /home/bkarasulu/work/CARBON/AIRSS/Generating-Clusters/AIREBO/with-SteepDescent/Only-C1/SD-CG-opt/Try1-1.4A-POS3A/HFTN-CG
REM
REM
REM
REM
REM
REM ./C.cell (11c1c37f851c82e70ff6c80c92926a4b)
REM
REM compiler GCC version 9.2.1 20190827 (Red Hat 9.2.1-1)
REM options -cpp -mtune=generic -march=x86-64 -g -O0 -fpre-include=/usr/include/finclude/math-vector-fortran.h
REM seed -1878640564 -1981014224 17183852 -1050891396 -386802538 -422915809 -1730798105 -103190704 -1080232026 1336312527 -2119477127 1139970969 1907085269 -1562463203 552118387 1112933705 -1622033251 883619332 1299028978 1199630769 1425647772 -450550727 -1889952415 204387851 -1414319241 -1917525900 -209326326 -182979204 -2097317834 1614382676 -446658645 -1575088315 -2115288471
REM
CELL 1.54180   50.00000   50.00000   50.00000   90.00000   90.00000   90.00000
LATT -1
SFAC C  
C      1  0.5050000000000  0.5272180000000  0.5830630000000 1.0
C      1  0.5852260000000  0.4551280000000  0.5456560000000 1.0
C      1  0.4792300000000  0.5513510000000  0.4025990000000 1.0
C      1  0.4926250000000  0.5395950000000  0.5076240000000 1.0
C      1  0.6116240000000  0.4990090000000  0.4642120000000 1.0
C      1  0.5192540000000  0.5131480000000  0.4257240000000 1.0
C      1  0.4397960000000  0.4317390000000  0.5539480000000 1.0
C      1  0.5431510000000  0.5974030000000  0.4811040000000 1.0
C      1  0.4961440000000  0.4405630000000  0.5958640000000 1.0
C      1  0.4836230000000  0.5673210000000  0.4989360000000 1.0
C      1  0.5648930000000  0.4884780000000  0.4849830000000 1.0
C      1  0.5119930000000  0.4782980000000  0.4792750000000 1.0
C      1  0.4546990000000  0.4846230000000  0.5492830000000 1.0
C      1  0.5003230000000  0.4362670000000  0.4554990000000 1.0
C      1  0.5035020000000  0.6005230000000  0.5311420000000 1.0
C      1  0.5909650000000  0.5327360000000  0.4974960000000 1.0
C      1  0.4574750000000  0.5161650000000  0.5545570000000 1.0
C      1  0.5349390000000  0.5556730000000  0.5810710000000 1.0
C      1  0.5402410000000  0.5603540000000  0.5501290000000 1.0
C      1  0.4337460000000  0.5299390000000  0.4314030000000 1.0
C      1  0.4820650000000  0.4578270000000  0.4299510000000 1.0
C      1  0.4758880000000  0.5709900000000  0.4660280000000 1.0
C      1  0.5571340000000  0.4580990000000  0.4140850000000 1.0
C      1  0.5284100000000  0.4777260000000  0.4494980000000 1.0
C      1  0.4539520000000  0.4893710000000  0.6030910000000 1.0
C      1  0.4968370000000  0.6153190000000  0.5012640000000 1.0
C      1  0.4914480000000  0.4702730000000  0.5834880000000 1.0
C      1  0.3847140000000  0.4981460000000  0.5606300000000 1.0
C      1  0.5534580000000  0.5966340000000  0.5194220000000 1.0
C      1  0.5449570000000  0.5129490000000  0.4973650000000 1.0
C      1  0.4853380000000  0.4921570000000  0.5396850000000 1.0
C      1  0.4898160000000  0.6021120000000  0.4644710000000 1.0
C      1  0.5879350000000  0.4614720000000  0.5045260000000 1.0
C      1  0.4681120000000  0.5305390000000  0.5275760000000 1.0
C      1  0.5670570000000  0.5219620000000  0.5191410000000 1.0
C      1  0.5212690000000  0.4749080000000  0.3875400000000 1.0
C      1  0.5811410000000  0.4816650000000  0.4355250000000 1.0
C      1  0.4717920000000  0.5200600000000  0.5849960000000 1.0
C      1  0.4200630000000  0.5261400000000  0.5385580000000 1.0
C      1  0.4931490000000  0.5554960000000  0.5456450000000 1.0
C      1  0.5509780000000  0.4153100000000  0.5261800000000 1.0
C      1  0.4270840000000  0.5717100000000  0.4715860000000 1.0
C      1  0.5328060000000  0.5165540000000  0.5663290000000 1.0
C      1  0.5575050000000  0.4067870000000  0.4843750000000 1.0
C      1  0.4714890000000  0.4510670000000  0.5098860000000 1.0
C      1  0.4771510000000  0.4317740000000  0.4855600000000 1.0
C      1  0.5217590000000  0.5856080000000  0.4315260000000 1.0
C      1  0.5078460000000  0.4961290000000  0.5965430000000 1.0
C      1  0.4820700000000  0.4888460000000  0.6168330000000 1.0
C      1  0.5958340000000  0.5190520000000  0.5507890000000 1.0
C      1  0.5670350000000  0.5202280000000  0.5688780000000 1.0
C      1  0.4792830000000  0.5019310000000  0.4196240000000 1.0
C      1  0.4642240000000  0.5591280000000  0.5877060000000 1.0
C      1  0.4814120000000  0.4973600000000  0.4507780000000 1.0
C      1  0.5281370000000  0.6101630000000  0.5088510000000 1.0
C      1  0.4679840000000  0.4317180000000  0.4460220000000 1.0
C      1  0.5323910000000  0.5346470000000  0.6017970000000 1.0
C      1  0.4656590000000  0.4680120000000  0.3949580000000 1.0
C      1  0.5197900000000  0.4225250000000  0.5791280000000 1.0
C      1  0.5379540000000  0.3901220000000  0.4980140000000 1.0
C      1  0.6019220000000  0.5255310000000  0.4572630000000 1.0
C      1  0.5300100000000  0.5435990000000  0.4026410000000 1.0
C      1  0.4094880000000  0.5034110000000  0.4547480000000 1.0
C      1  0.5670490000000  0.5486540000000  0.4792920000000 1.0
C      1  0.4446780000000  0.5711300000000  0.5211240000000 1.0
C      1  0.4390380000000  0.5896910000000  0.4944190000000 1.0
C      1  0.4738890000000  0.4571580000000  0.6151830000000 1.0
C      1  0.4382930000000  0.5149100000000  0.5891200000000 1.0
C      1  0.4942450000000  0.4288490000000  0.4166960000000 1.0
C      1  0.4168430000000  0.4310490000000  0.5117220000000 1.0
C      1  0.5025490000000  0.5400570000000  0.4314460000000 1.0
C      1  0.4713330000000  0.4837900000000  0.5132250000000 1.0
C      1  0.5052350000000  0.4728440000000  0.5525010000000 1.0
C      1  0.5721650000000  0.4366790000000  0.5216350000000 1.0
C      1  0.4366550000000  0.5630070000000  0.4419910000000 1.0
C      1  0.4926580000000  0.4721940000000  0.3941610000000 1.0
C      1  0.5192040000000  0.4142240000000  0.4564460000000 1.0
C      1  0.4085220000000  0.5263950000000  0.4752780000000 1.0
C      1  0.4348620000000  0.5711320000000  0.5528000000000 1.0
C      1  0.5199820000000  0.4972390000000  0.5066960000000 1.0
C      1  0.5260660000000  0.4476100000000  0.4856350000000 1.0
C      1  0.4130710000000  0.4141230000000  0.4862010000000 1.0
C      1  0.5969880000000  0.4556770000000  0.4721650000000 1.0
C      1  0.4839890000000  0.3968510000000  0.5351570000000 1.0
C      1  0.5213320000000  0.4285640000000  0.4083870000000 1.0
C      1  0.5350630000000  0.4519330000000  0.3981900000000 1.0
C      1  0.4265820000000  0.4334480000000  0.4234660000000 1.0
C      1  0.4623750000000  0.6093370000000  0.5202670000000 1.0
C      1  0.5806700000000  0.5640250000000  0.5451010000000 1.0
C      1  0.4161750000000  0.4756320000000  0.5545870000000 1.0
C      1  0.5681080000000  0.5777870000000  0.4968130000000 1.0
C      1  0.5419510000000  0.5371480000000  0.4338370000000 1.0
C      1  0.4951480000000  0.5591230000000  0.5765600000000 1.0
C      1  0.5779440000000  0.4938540000000  0.5255480000000 1.0
C      1  0.4627240000000  0.4559060000000  0.5609500000000 1.0
C      1  0.5036970000000  0.4610870000000  0.5074110000000 1.0
C      1  0.3898990000000  0.5202750000000  0.5027630000000 1.0
C      1  0.4603210000000  0.4051040000000  0.4849190000000 1.0
C      1  0.5209410000000  0.6006020000000  0.4553700000000 1.0
C      1  0.5840790000000  0.5643710000000  0.4544000000000 1.0
C      1  0.4632280000000  0.5443230000000  0.4319200000000 1.0
C      1  0.5402160000000  0.5442200000000  0.4997120000000 1.0
C      1  0.4101280000000  0.5565190000000  0.5346150000000 1.0
C      1  0.5502090000000  0.5068430000000  0.5938860000000 1.0
C      1  0.5441880000000  0.5706430000000  0.4283820000000 1.0
C      1  0.4843370000000  0.3937550000000  0.4649180000000 1.0
C      1  0.5176290000000  0.4215670000000  0.5239850000000 1.0
C      1  0.4709930000000  0.5208000000000  0.3987840000000 1.0
C      1  0.4425700000000  0.5424740000000  0.5696700000000 1.0
C      1  0.5951440000000  0.5011080000000  0.4902260000000 1.0
C      1  0.5079200000000  0.5892340000000  0.5831650000000 1.0
C      1  0.5293390000000  0.5043820000000  0.3953070000000 1.0
C      1  0.5925100000000  0.5669670000000  0.5179010000000 1.0
C      1  0.5062980000000  0.5841780000000  0.4881940000000 1.0
C      1  0.3993480000000  0.5617940000000  0.5102700000000 1.0
C      1  0.4791590000000  0.4291670000000  0.5308130000000 1.0
C      1  0.5851500000000  0.4871670000000  0.5559750000000 1.0
C      1  0.5276070000000  0.4732600000000  0.5271440000000 1.0
C      1  0.5262660000000  0.5156240000000  0.5346240000000 1.0
C      1  0.4204990000000  0.5070670000000  0.5104100000000 1.0
C      1  0.5063230000000  0.4817490000000  0.4238370000000 1.0
C      1  0.5506760000000  0.4235550000000  0.4557970000000 1.0
C      1  0.4365290000000  0.4982650000000  0.4434980000000 1.0
C      1  0.4386790000000  0.4547330000000  0.5087380000000 1.0
C      1  0.4997120000000  0.5530380000000  0.4584990000000 1.0
C      1  0.4377530000000  0.4546180000000  0.4092370000000 1.0
C      1  0.5704670000000  0.5294410000000  0.4169880000000 1.0
C      1  0.5732520000000  0.4817910000000  0.4072060000000 1.0
C      1  0.5287330000000  0.4781910000000  0.5764890000000 1.0
C      1  0.4560210000000  0.4001360000000  0.5170940000000 1.0
C      1  0.3877160000000  0.4728850000000  0.5380500000000 1.0
C      1  0.4952890000000  0.5216420000000  0.5431270000000 1.0
C      1  0.5615540000000  0.4732070000000  0.5719040000000 1.0
C      1  0.3913350000000  0.4446280000000  0.5201440000000 1.0
C      1  0.4310370000000  0.4669680000000  0.4814550000000 1.0
C      1  0.4835730000000  0.4616810000000  0.4706590000000 1.0
C      1  0.5548470000000  0.4373610000000  0.4930400000000 1.0
C      1  0.5310960000000  0.5660750000000  0.4788610000000 1.0
C      1  0.5682170000000  0.5270940000000  0.4529840000000 1.0
C      1  0.4616810000000  0.4999800000000  0.4914590000000 1.0
C      1  0.4804840000000  0.4182890000000  0.5777860000000 1.0
C      1  0.4888640000000  0.5963500000000  0.5615330000000 1.0
C      1  0.5368450000000  0.4490670000000  0.5920540000000 1.0
C      1  0.4616600000000  0.5375650000000  0.6122670000000 1.0
C      1  0.4596470000000  0.5411110000000  0.4657630000000 1.0
C      1  0.6041320000000  0.5367610000000  0.5285890000000 1.0
C      1  0.4677720000000  0.6026450000000  0.4889890000000 1.0
C      1  0.4161580000000  0.5082840000000  0.5641610000000 1.0
C      1  0.4063600000000  0.5564700000000  0.4830770000000 1.0
C      1  0.5652530000000  0.4569570000000  0.4722210000000 1.0
C      1  0.4393540000000  0.4254430000000  0.4472800000000 1.0
C      1  0.5567290000000  0.4433140000000  0.5581370000000 1.0
C      1  0.4635390000000  0.5831830000000  0.4367800000000 1.0
C      1  0.4564630000000  0.4816310000000  0.4654950000000 1.0
C      1  0.5515100000000  0.4551370000000  0.4440920000000 1.0
C      1  0.5613000000000  0.5062610000000  0.3993250000000 1.0
C      1  0.4645540000000  0.5822360000000  0.5651730000000 1.0
C      1  0.6033880000000  0.4753470000000  0.4519080000000 1.0
C      1  0.3871570000000  0.4716860000000  0.5039430000000 1.0
C      1  0.5069860000000  0.4231440000000  0.4955880000000 1.0
C      1  0.4930130000000  0.5718790000000  0.4241280000000 1.0
C      1  0.5359740000000  0.4130060000000  0.4273380000000 1.0
C      1  0.4343160000000  0.4105830000000  0.4700070000000 1.0
C      1  0.4189800000000  0.6122960000000  0.5007140000000 1.0
C      1  0.4417190000000  0.5249020000000  0.4015820000000 1.0
C      1  0.4851150000000  0.4047500000000  0.4365790000000 1.0
C      1  0.5203050000000  0.5473440000000  0.5258310000000 1.0
C      1  0.5134440000000  0.4019390000000  0.5514430000000 1.0
C      1  0.5267030000000  0.4391320000000  0.5515900000000 1.0
C      1  0.4775790000000  0.3932980000000  0.5667140000000 1.0
C      1  0.6087900000000  0.4849470000000  0.5151910000000 1.0
C      1  0.4815230000000  0.5228310000000  0.4834530000000 1.0
C      1  0.4082890000000  0.4839580000000  0.4891230000000 1.0
C      1  0.6129120000000  0.5461220000000  0.4752360000000 1.0
C      1  0.4397670000000  0.5246790000000  0.4885780000000 1.0
C      1  0.5119620000000  0.3942360000000  0.4811100000000 1.0
C      1  0.5056760000000  0.5096970000000  0.4678220000000 1.0
C      1  0.5615940000000  0.5380610000000  0.5434670000000 1.0
C      1  0.5498820000000  0.5889740000000  0.5452990000000 1.0
C      1  0.5038320000000  0.5299470000000  0.3929090000000 1.0
C      1  0.4770540000000  0.5794810000000  0.5273250000000 1.0
C      1  0.4422250000000  0.5405600000000  0.5171750000000 1.0
C      1  0.5731300000000  0.5613550000000  0.4287540000000 1.0
C      1  0.4248690000000  0.4529610000000  0.5719690000000 1.0
C      1  0.4554660000000  0.4785730000000  0.4256400000000 1.0
C      1  0.5580250000000  0.4946050000000  0.4525540000000 1.0
C      1  0.5547010000000  0.4750660000000  0.6051550000000 1.0
C      1  0.4930520000000  0.4412950000000  0.5561140000000 1.0
C      1  0.5570670000000  0.4725210000000  0.5139780000000 1.0
C      1  0.5353080000000  0.3867710000000  0.5296120000000 1.0
C      1  0.4366840000000  0.4172900000000  0.5308030000000 1.0
C      1  0.4497940000000  0.4597390000000  0.5915670000000 1.0
C      1  0.5256610000000  0.5361130000000  0.4636650000000 1.0
C      1  0.4330830000000  0.4800290000000  0.5269150000000 1.0
END
