TITL C-2847953-8112-272 -0.00118717875485999 125000 -261.373729535659 0 0 46 (C1) n - 1
REM
REM in /home/bkarasulu/work/CARBON/AIRSS/Generating-Clusters/AIREBO/with-SteepDescent/Only-C1/SD-CG-opt/Try1-1.4A-POS3A/HFTN-CG
REM
REM
REM
REM
REM
REM ./C.cell (11c1c37f851c82e70ff6c80c92926a4b)
REM
REM compiler GCC version 9.2.1 20190827 (Red Hat 9.2.1-1)
REM options -cpp -mtune=generic -march=x86-64 -g -O0 -fpre-include=/usr/include/finclude/math-vector-fortran.h
REM seed -990174862 763171342 588180764 -1205018419 2083606026 1666439442 43842186 -1868446096 692004556 -399485083 -948189128 1435070374 794284741 -2061088874 1350747387 1115068725 -268860742 1494717252 1415094954 -263029712 1878958415 1425152736 -2088503494 31420111 -1299900056 1036983433 659250943 -576696907 1125993160 1131277827 -1478456653 765287352 -225236778
REM
CELL 1.54180   50.00000   50.00000   50.00000   90.00000   90.00000   90.00000
LATT -1
SFAC C  
C      1  0.4662020000000  0.5318200000000  0.4957250000000 1.0
C      1  0.5024260000000  0.4732570000000  0.5054890000000 1.0
C      1  0.5423400000000  0.5130730000000  0.5147630000000 1.0
C      1  0.4490450000000  0.5069440000000  0.4670030000000 1.0
C      1  0.4952470000000  0.4392060000000  0.5402010000000 1.0
C      1  0.4787340000000  0.4445570000000  0.4579030000000 1.0
C      1  0.5159900000000  0.5043150000000  0.5027570000000 1.0
C      1  0.4785380000000  0.5747910000000  0.5052190000000 1.0
C      1  0.4825490000000  0.4667850000000  0.4806280000000 1.0
C      1  0.4705730000000  0.4574800000000  0.4335830000000 1.0
C      1  0.5177050000000  0.5598050000000  0.4652320000000 1.0
C      1  0.5533720000000  0.5574490000000  0.4983170000000 1.0
C      1  0.4962650000000  0.5599650000000  0.4428630000000 1.0
C      1  0.4845680000000  0.3667770000000  0.4759130000000 1.0
C      1  0.4823190000000  0.5118940000000  0.5985350000000 1.0
C      1  0.4654090000000  0.5009840000000  0.5492510000000 1.0
C      1  0.5530820000000  0.5011620000000  0.5718220000000 1.0
C      1  0.4638160000000  0.5106800000000  0.4429520000000 1.0
C      1  0.4972080000000  0.5403920000000  0.5600140000000 1.0
C      1  0.4859080000000  0.5139200000000  0.5712090000000 1.0
C      1  0.5074300000000  0.5280130000000  0.4634890000000 1.0
C      1  0.5287580000000  0.5073340000000  0.4610130000000 1.0
C      1  0.4582560000000  0.5578280000000  0.4970430000000 1.0
C      1  0.5239260000000  0.4957170000000  0.5598210000000 1.0
C      1  0.4497870000000  0.5066690000000  0.5014130000000 1.0
C      1  0.5047180000000  0.5577360000000  0.5108750000000 1.0
C      1  0.4948190000000  0.3880850000000  0.5533200000000 1.0
C      1  0.4973430000000  0.4644770000000  0.5329670000000 1.0
C      1  0.5577940000000  0.5183610000000  0.4714150000000 1.0
C      1  0.4957580000000  0.4874440000000  0.5520030000000 1.0
C      1  0.4973380000000  0.5288130000000  0.4943870000000 1.0
C      1  0.4558140000000  0.4801840000000  0.4841260000000 1.0
C      1  0.5724670000000  0.5745810000000  0.5063580000000 1.0
C      1  0.4459710000000  0.5026180000000  0.5311370000000 1.0
C      1  0.4815560000000  0.5326150000000  0.4427550000000 1.0
C      1  0.4825230000000  0.3918940000000  0.4687070000000 1.0
C      1  0.5070640000000  0.5523840000000  0.5410040000000 1.0
C      1  0.4957470000000  0.4137010000000  0.5478550000000 1.0
C      1  0.5196120000000  0.4812620000000  0.4776360000000 1.0
C      1  0.4769330000000  0.4860300000000  0.4341710000000 1.0
C      1  0.4793560000000  0.4178630000000  0.4637060000000 1.0
C      1  0.5573660000000  0.5289770000000  0.4966930000000 1.0
C      1  0.5466960000000  0.5075270000000  0.5406050000000 1.0
C      1  0.4971070000000  0.4831650000000  0.4546700000000 1.0
C      1  0.5574850000000  0.5062200000000  0.4425500000000 1.0
C      1  0.5270790000000  0.5652430000000  0.4909020000000 1.0
END
