TITL C-2847944-5688-68 0.000592644676597002 125000 -651.629774438474 0 0 120 (C1) n - 1
REM
REM in /home/bkarasulu/work/CARBON/AIRSS/Generating-Clusters/AIREBO/with-SteepDescent/Only-C1/SD-CG-opt/Try1-1.4A-POS3A/HFTN-CG
REM
REM
REM
REM
REM
REM ./C.cell (11c1c37f851c82e70ff6c80c92926a4b)
REM
REM compiler GCC version 9.2.1 20190827 (Red Hat 9.2.1-1)
REM options -cpp -mtune=generic -march=x86-64 -g -O0 -fpre-include=/usr/include/finclude/math-vector-fortran.h
REM seed 985581129 890450160 -1550294336 -461208810 1401405213 1250414478 1503825780 -25132786 496994447 -1418457287 -288585540 298428144 1958204338 -155721452 -386294443 2041709768 -874759899 461943950 -1050480231 144604753 1961885838 -40327768 -327658448 -42144349 -992074940 -411812987 928902297 -1575699322 870950298 -2029828968 390324190 -2042978916 50266924
REM
CELL 1.54180   50.00000   50.00000   50.00000   90.00000   90.00000   90.00000
LATT -1
SFAC C  
C      1  0.4577940000000  0.4605400000000  0.5171450000000 1.0
C      1  0.4509220000000  0.5511790000000  0.4241510000000 1.0
C      1  0.4294890000000  0.4834970000000  0.5593370000000 1.0
C      1  0.5445590000000  0.4705070000000  0.4126990000000 1.0
C      1  0.5930650000000  0.5128130000000  0.5391960000000 1.0
C      1  0.5648020000000  0.5507660000000  0.4880950000000 1.0
C      1  0.4902310000000  0.4918250000000  0.5166850000000 1.0
C      1  0.5680100000000  0.5294880000000  0.5669590000000 1.0
C      1  0.4866080000000  0.5598310000000  0.4039120000000 1.0
C      1  0.5720580000000  0.4444870000000  0.5196750000000 1.0
C      1  0.5188590000000  0.5439880000000  0.4637980000000 1.0
C      1  0.5133860000000  0.4666640000000  0.4399770000000 1.0
C      1  0.4693850000000  0.4834480000000  0.4217350000000 1.0
C      1  0.4584450000000  0.4759550000000  0.5853980000000 1.0
C      1  0.4321820000000  0.4314530000000  0.4755050000000 1.0
C      1  0.4991400000000  0.5198310000000  0.4995770000000 1.0
C      1  0.4453160000000  0.5754330000000  0.4464170000000 1.0
C      1  0.4475480000000  0.4549210000000  0.5634730000000 1.0
C      1  0.4431590000000  0.4130560000000  0.5338750000000 1.0
C      1  0.4954720000000  0.5887740000000  0.4843560000000 1.0
C      1  0.4500700000000  0.5023700000000  0.4646800000000 1.0
C      1  0.4130660000000  0.4826550000000  0.5046320000000 1.0
C      1  0.5256400000000  0.5191700000000  0.5814920000000 1.0
C      1  0.5722120000000  0.5520350000000  0.5190730000000 1.0
C      1  0.5743400000000  0.4742890000000  0.5054830000000 1.0
C      1  0.4427580000000  0.4910200000000  0.5158460000000 1.0
C      1  0.4727050000000  0.5588770000000  0.5701180000000 1.0
C      1  0.5201510000000  0.4931220000000  0.4197220000000 1.0
C      1  0.4482430000000  0.5203740000000  0.5272990000000 1.0
C      1  0.5101960000000  0.4163320000000  0.4899500000000 1.0
C      1  0.4402320000000  0.5215040000000  0.5553440000000 1.0
C      1  0.5177640000000  0.5117590000000  0.4749110000000 1.0
C      1  0.4394800000000  0.5742190000000  0.4732750000000 1.0
C      1  0.5333100000000  0.5121100000000  0.4446710000000 1.0
C      1  0.4262330000000  0.5190000000000  0.4725770000000 1.0
C      1  0.5421080000000  0.4976230000000  0.5750530000000 1.0
C      1  0.4721050000000  0.4361070000000  0.5490640000000 1.0
C      1  0.5424910000000  0.5047820000000  0.4937720000000 1.0
C      1  0.5338630000000  0.5685970000000  0.5548040000000 1.0
C      1  0.5555660000000  0.4280990000000  0.5038020000000 1.0
C      1  0.5505840000000  0.4496320000000  0.4302460000000 1.0
C      1  0.5926970000000  0.5254740000000  0.5134930000000 1.0
C      1  0.5459970000000  0.4511480000000  0.5491600000000 1.0
C      1  0.5619920000000  0.5020260000000  0.5478160000000 1.0
C      1  0.4377570000000  0.5443420000000  0.4830470000000 1.0
C      1  0.5229250000000  0.5907440000000  0.4906330000000 1.0
C      1  0.5262920000000  0.4206530000000  0.5151430000000 1.0
C      1  0.5295300000000  0.5239630000000  0.4060370000000 1.0
C      1  0.4742140000000  0.4820580000000  0.6116810000000 1.0
C      1  0.4851950000000  0.4462090000000  0.5029640000000 1.0
C      1  0.5098210000000  0.4434560000000  0.5343330000000 1.0
C      1  0.5856740000000  0.4789570000000  0.4652970000000 1.0
C      1  0.4899600000000  0.5000450000000  0.4633500000000 1.0
C      1  0.4703310000000  0.5488000000000  0.4743470000000 1.0
C      1  0.4751410000000  0.4719030000000  0.4696170000000 1.0
C      1  0.5432590000000  0.4231130000000  0.5594770000000 1.0
C      1  0.4877440000000  0.5027610000000  0.4136560000000 1.0
C      1  0.5575970000000  0.5795540000000  0.5329980000000 1.0
C      1  0.4757710000000  0.5862480000000  0.5088990000000 1.0
C      1  0.5447190000000  0.4732900000000  0.4906780000000 1.0
C      1  0.5604220000000  0.5516870000000  0.4550900000000 1.0
C      1  0.5312920000000  0.4778960000000  0.5564790000000 1.0
C      1  0.4108510000000  0.4817700000000  0.5383460000000 1.0
C      1  0.4843390000000  0.4657710000000  0.5377820000000 1.0
C      1  0.5227370000000  0.5372550000000  0.5326230000000 1.0
C      1  0.5204170000000  0.5839320000000  0.4446850000000 1.0
C      1  0.5033230000000  0.4365620000000  0.4236270000000 1.0
C      1  0.4895120000000  0.5024020000000  0.6091530000000 1.0
C      1  0.4673010000000  0.4064050000000  0.4511050000000 1.0
C      1  0.4652380000000  0.4920020000000  0.4936240000000 1.0
C      1  0.5809990000000  0.5077110000000  0.4555770000000 1.0
C      1  0.4463180000000  0.4510080000000  0.4512050000000 1.0
C      1  0.4829790000000  0.4638870000000  0.4422550000000 1.0
C      1  0.4954900000000  0.5332210000000  0.5495740000000 1.0
C      1  0.4718790000000  0.4335760000000  0.4362270000000 1.0
C      1  0.5668230000000  0.5197950000000  0.4837450000000 1.0
C      1  0.5325490000000  0.4590550000000  0.4644850000000 1.0
C      1  0.5529410000000  0.5423830000000  0.5445540000000 1.0
C      1  0.4759730000000  0.5720480000000  0.4338070000000 1.0
C      1  0.5294450000000  0.4303440000000  0.4368800000000 1.0
C      1  0.4791090000000  0.4156810000000  0.4984220000000 1.0
C      1  0.4469120000000  0.4808430000000  0.4421880000000 1.0
C      1  0.5904280000000  0.4983740000000  0.4929760000000 1.0
C      1  0.5659050000000  0.4573980000000  0.4581010000000 1.0
C      1  0.5350580000000  0.4593360000000  0.5179940000000 1.0
C      1  0.4515260000000  0.4558060000000  0.4843700000000 1.0
C      1  0.5123000000000  0.5354030000000  0.4315550000000 1.0
C      1  0.5022340000000  0.5662050000000  0.5543330000000 1.0
C      1  0.4724460000000  0.5691060000000  0.5381910000000 1.0
C      1  0.4114260000000  0.4537180000000  0.4901750000000 1.0
C      1  0.5333200000000  0.5451330000000  0.5792520000000 1.0
C      1  0.4055360000000  0.5055760000000  0.4848950000000 1.0
C      1  0.4448620000000  0.5888270000000  0.4978230000000 1.0
C      1  0.4720250000000  0.5239590000000  0.4549240000000 1.0
C      1  0.5352000000000  0.5605460000000  0.4847380000000 1.0
C      1  0.4716880000000  0.4119140000000  0.5289580000000 1.0
C      1  0.5059910000000  0.4663290000000  0.5022210000000 1.0
C      1  0.5159150000000  0.5572510000000  0.5112450000000 1.0
C      1  0.5619810000000  0.4304880000000  0.4773500000000 1.0
C      1  0.4849200000000  0.5550770000000  0.5030990000000 1.0
C      1  0.4798440000000  0.5333000000000  0.4248270000000 1.0
C      1  0.5602120000000  0.5253330000000  0.4447970000000 1.0
C      1  0.5317660000000  0.4071410000000  0.5433650000000 1.0
C      1  0.4934450000000  0.5136700000000  0.5773150000000 1.0
C      1  0.4637170000000  0.5301750000000  0.5770360000000 1.0
C      1  0.4353570000000  0.4426490000000  0.5353260000000 1.0
C      1  0.4425590000000  0.5703450000000  0.5230250000000 1.0
C      1  0.5465330000000  0.5741270000000  0.4448160000000 1.0
C      1  0.4812110000000  0.4846110000000  0.5643430000000 1.0
C      1  0.5185080000000  0.4912190000000  0.5352980000000 1.0
C      1  0.5232360000000  0.4267300000000  0.4672060000000 1.0
C      1  0.4784860000000  0.5292190000000  0.5242570000000 1.0
C      1  0.4063090000000  0.4533240000000  0.5309650000000 1.0
C      1  0.5324230000000  0.5852350000000  0.5185410000000 1.0
C      1  0.4356520000000  0.5443360000000  0.5129960000000 1.0
C      1  0.4575720000000  0.4104950000000  0.4771270000000 1.0
C      1  0.4416450000000  0.5045170000000  0.5830520000000 1.0
C      1  0.4947340000000  0.5671480000000  0.4593590000000 1.0
C      1  0.5388890000000  0.5111200000000  0.5240250000000 1.0
C      1  0.5681290000000  0.4727510000000  0.5382820000000 1.0
END
