TITL C-2848506-1665-235 -0.00142888905166608 125000 -778.702186136477 0 0 143 (C1) n - 1
REM
REM in /home/bkarasulu/work/CARBON/AIRSS/Generating-Clusters/AIREBO/with-SteepDescent/Only-C1/SD-CG-opt/Try1-1.4A-POS3A/HFTN-CG
REM
REM
REM
REM
REM
REM ./C.cell (11c1c37f851c82e70ff6c80c92926a4b)
REM
REM compiler GCC version 9.2.1 20190827 (Red Hat 9.2.1-1)
REM options -cpp -mtune=generic -march=x86-64 -g -O0 -fpre-include=/usr/include/finclude/math-vector-fortran.h
REM seed 84614454 1300407355 -297334843 -1656470922 1771160635 808354271 1937980860 660211916 1819067069 -57252682 9284765 1686817469 -1828899931 -1328092916 1329685214 -1704510842 -1473069244 539815333 -1630984569 1789002671 -1926425420 1030096618 -1831292662 1564030463 983638712 758815417 1350888172 -974337538 1709776421 1329369757 1471984714 -1545932700 -1388678160
REM
CELL 1.54180   50.00000   50.00000   50.00000   90.00000   90.00000   90.00000
LATT -1
SFAC C  
C      1  0.4904770000000  0.4619450000000  0.4218660000000 1.0
C      1  0.5898950000000  0.5245980000000  0.4333050000000 1.0
C      1  0.4194610000000  0.4651320000000  0.4729540000000 1.0
C      1  0.5179710000000  0.5299360000000  0.4115320000000 1.0
C      1  0.5895230000000  0.5142430000000  0.5689770000000 1.0
C      1  0.5192300000000  0.4609940000000  0.5156610000000 1.0
C      1  0.5284780000000  0.5122530000000  0.4581840000000 1.0
C      1  0.4945540000000  0.4267200000000  0.4472100000000 1.0
C      1  0.4562230000000  0.4518120000000  0.4646120000000 1.0
C      1  0.4986030000000  0.6019120000000  0.5325200000000 1.0
C      1  0.4504980000000  0.5600850000000  0.5773380000000 1.0
C      1  0.4417280000000  0.5679420000000  0.4551400000000 1.0
C      1  0.5029110000000  0.5490700000000  0.5141570000000 1.0
C      1  0.5524780000000  0.4770120000000  0.4191000000000 1.0
C      1  0.4709890000000  0.4045490000000  0.4911400000000 1.0
C      1  0.5161310000000  0.4404130000000  0.4277410000000 1.0
C      1  0.4322420000000  0.5651560000000  0.5498560000000 1.0
C      1  0.4152880000000  0.4937400000000  0.5211720000000 1.0
C      1  0.5775380000000  0.4785260000000  0.5559140000000 1.0
C      1  0.5263890000000  0.3981620000000  0.5257440000000 1.0
C      1  0.4760790000000  0.5136030000000  0.4198720000000 1.0
C      1  0.5068840000000  0.4594530000000  0.6023610000000 1.0
C      1  0.5049520000000  0.5820760000000  0.5074250000000 1.0
C      1  0.5372040000000  0.5921360000000  0.4997580000000 1.0
C      1  0.4313890000000  0.5195360000000  0.5059560000000 1.0
C      1  0.5398190000000  0.4272870000000  0.5207940000000 1.0
C      1  0.5166500000000  0.5023450000000  0.4074680000000 1.0
C      1  0.5434140000000  0.4177310000000  0.4746470000000 1.0
C      1  0.4978810000000  0.5456430000000  0.3998800000000 1.0
C      1  0.5672840000000  0.5332960000000  0.5673550000000 1.0
C      1  0.4737420000000  0.5208130000000  0.4697030000000 1.0
C      1  0.4128520000000  0.4603020000000  0.4451170000000 1.0
C      1  0.5001840000000  0.4119690000000  0.4990220000000 1.0
C      1  0.4935780000000  0.5858270000000  0.4772810000000 1.0
C      1  0.4067080000000  0.4375220000000  0.5607520000000 1.0
C      1  0.4112160000000  0.5319110000000  0.4575520000000 1.0
C      1  0.4221120000000  0.4915120000000  0.4790400000000 1.0
C      1  0.5495420000000  0.4852910000000  0.5380230000000 1.0
C      1  0.5415710000000  0.4524130000000  0.4093930000000 1.0
C      1  0.4821890000000  0.5487770000000  0.4871320000000 1.0
C      1  0.5034730000000  0.4801030000000  0.5369010000000 1.0
C      1  0.4255990000000  0.4618520000000  0.5149080000000 1.0
C      1  0.4174510000000  0.5825590000000  0.4980140000000 1.0
C      1  0.4350390000000  0.4433610000000  0.4900160000000 1.0
C      1  0.4314590000000  0.5271170000000  0.4391730000000 1.0
C      1  0.4646710000000  0.5602600000000  0.5126680000000 1.0
C      1  0.4884650000000  0.4472640000000  0.5762320000000 1.0
C      1  0.5728150000000  0.4502100000000  0.4499980000000 1.0
C      1  0.5150260000000  0.5264750000000  0.5366050000000 1.0
C      1  0.5449910000000  0.4330270000000  0.4441880000000 1.0
C      1  0.5538000000000  0.4901670000000  0.5772990000000 1.0
C      1  0.4800180000000  0.4626150000000  0.5247210000000 1.0
C      1  0.4931630000000  0.5700300000000  0.5570220000000 1.0
C      1  0.4643270000000  0.4251800000000  0.4327200000000 1.0
C      1  0.5199050000000  0.5825940000000  0.5444380000000 1.0
C      1  0.5861030000000  0.4992180000000  0.4482440000000 1.0
C      1  0.5561610000000  0.5158550000000  0.5137140000000 1.0
C      1  0.4929500000000  0.5369440000000  0.5602730000000 1.0
C      1  0.5256940000000  0.5391560000000  0.4927020000000 1.0
C      1  0.4019050000000  0.5086960000000  0.4696200000000 1.0
C      1  0.4003730000000  0.5229890000000  0.5302520000000 1.0
C      1  0.4474920000000  0.4207200000000  0.5067140000000 1.0
C      1  0.4421290000000  0.5512920000000  0.4284840000000 1.0
C      1  0.4597310000000  0.4536870000000  0.4237430000000 1.0
C      1  0.4512640000000  0.3917700000000  0.5340250000000 1.0
C      1  0.5049210000000  0.5144430000000  0.4819840000000 1.0
C      1  0.5063080000000  0.4325180000000  0.5234540000000 1.0
C      1  0.5264920000000  0.4884100000000  0.4361100000000 1.0
C      1  0.4170230000000  0.5805340000000  0.5253990000000 1.0
C      1  0.5572290000000  0.5185980000000  0.4696320000000 1.0
C      1  0.5208460000000  0.4572740000000  0.5551730000000 1.0
C      1  0.4523990000000  0.4671630000000  0.5440710000000 1.0
C      1  0.5023290000000  0.5059270000000  0.5148110000000 1.0
C      1  0.4534700000000  0.4235710000000  0.5388910000000 1.0
C      1  0.4449460000000  0.5127290000000  0.5675940000000 1.0
C      1  0.4480030000000  0.4858680000000  0.5193200000000 1.0
C      1  0.5940560000000  0.5350420000000  0.5285570000000 1.0
C      1  0.5884400000000  0.5113830000000  0.4799420000000 1.0
C      1  0.5837220000000  0.5487340000000  0.4480270000000 1.0
C      1  0.4466050000000  0.5371220000000  0.5253460000000 1.0
C      1  0.4943680000000  0.5060870000000  0.5981330000000 1.0
C      1  0.4252500000000  0.5318620000000  0.5491880000000 1.0
C      1  0.4686260000000  0.5062800000000  0.5125610000000 1.0
C      1  0.4500630000000  0.5058950000000  0.4848250000000 1.0
C      1  0.5278670000000  0.5358690000000  0.4363760000000 1.0
C      1  0.4629600000000  0.5717380000000  0.5413190000000 1.0
C      1  0.4626050000000  0.5342710000000  0.5754110000000 1.0
C      1  0.5947870000000  0.4703340000000  0.5208910000000 1.0
C      1  0.4158880000000  0.5569230000000  0.4775150000000 1.0
C      1  0.5791570000000  0.4462410000000  0.4762770000000 1.0
C      1  0.5084310000000  0.4210380000000  0.5677550000000 1.0
C      1  0.4752930000000  0.5282430000000  0.5340740000000 1.0
C      1  0.5000400000000  0.4354000000000  0.4779160000000 1.0
C      1  0.4293750000000  0.4440270000000  0.5424940000000 1.0
C      1  0.4693630000000  0.5461970000000  0.4157480000000 1.0
C      1  0.5586370000000  0.4576820000000  0.5730900000000 1.0
C      1  0.5397600000000  0.5769260000000  0.5261720000000 1.0
C      1  0.5404360000000  0.5293580000000  0.5762290000000 1.0
C      1  0.4587810000000  0.3827490000000  0.5114820000000 1.0
C      1  0.4800060000000  0.4796820000000  0.5821310000000 1.0
C      1  0.5326810000000  0.4916700000000  0.5091910000000 1.0
C      1  0.5612270000000  0.5669700000000  0.4437460000000 1.0
C      1  0.4812310000000  0.4684420000000  0.4539620000000 1.0
C      1  0.5744840000000  0.4753760000000  0.4372560000000 1.0
C      1  0.5472430000000  0.4421280000000  0.5451050000000 1.0
C      1  0.4658870000000  0.4191830000000  0.4650350000000 1.0
C      1  0.5251160000000  0.5790000000000  0.4730710000000 1.0
C      1  0.4989730000000  0.4820550000000  0.4789700000000 1.0
C      1  0.5126580000000  0.4790300000000  0.5756200000000 1.0
C      1  0.4552990000000  0.4864960000000  0.5672910000000 1.0
C      1  0.4745580000000  0.5666770000000  0.4591990000000 1.0
C      1  0.4435860000000  0.4742460000000  0.4423910000000 1.0
C      1  0.4411920000000  0.5874060000000  0.4803950000000 1.0
C      1  0.5741670000000  0.5563330000000  0.4956230000000 1.0
C      1  0.5875960000000  0.5436370000000  0.4757810000000 1.0
C      1  0.5408120000000  0.5495950000000  0.4646640000000 1.0
C      1  0.4657430000000  0.5846180000000  0.4937410000000 1.0
C      1  0.5511370000000  0.4435750000000  0.4953510000000 1.0
C      1  0.5285300000000  0.3994110000000  0.4919610000000 1.0
C      1  0.5089870000000  0.5841270000000  0.4267410000000 1.0
C      1  0.6141490000000  0.4545760000000  0.5136680000000 1.0
C      1  0.5984250000000  0.4972840000000  0.5408770000000 1.0
C      1  0.4735040000000  0.6015810000000  0.5423930000000 1.0
C      1  0.4909140000000  0.4875030000000  0.4036630000000 1.0
C      1  0.4709580000000  0.5792100000000  0.5797240000000 1.0
C      1  0.5098310000000  0.5254590000000  0.5852780000000 1.0
C      1  0.5330040000000  0.5813970000000  0.4418830000000 1.0
C      1  0.4551420000000  0.5060990000000  0.4452630000000 1.0
C      1  0.4850980000000  0.4581850000000  0.4952590000000 1.0
C      1  0.5109220000000  0.4000250000000  0.5500160000000 1.0
C      1  0.5485000000000  0.5480270000000  0.5163270000000 1.0
C      1  0.5876610000000  0.5080780000000  0.5104840000000 1.0
C      1  0.4045180000000  0.5356900000000  0.4989020000000 1.0
C      1  0.4801950000000  0.4369200000000  0.5448900000000 1.0
C      1  0.5288380000000  0.5032870000000  0.5581250000000 1.0
C      1  0.5712070000000  0.5447130000000  0.5414180000000 1.0
C      1  0.5562140000000  0.4882170000000  0.4848860000000 1.0
C      1  0.5351170000000  0.4626880000000  0.4546700000000 1.0
C      1  0.5655770000000  0.4696060000000  0.5118010000000 1.0
C      1  0.4939000000000  0.4958880000000  0.4422980000000 1.0
C      1  0.5238780000000  0.4598850000000  0.4831790000000 1.0
C      1  0.5362630000000  0.4338760000000  0.5762500000000 1.0
C      1  0.4867410000000  0.5689220000000  0.4304250000000 1.0
END
