TITL C-2848501-3133-492 -0.000629425511335 125000 -996.661858771182 0 0 186 (C1) n - 1
REM
REM in /home/bkarasulu/work/CARBON/AIRSS/Generating-Clusters/AIREBO/with-SteepDescent/Only-C1/SD-CG-opt/Try1-1.4A-POS3A/HFTN-CG
REM
REM
REM
REM
REM
REM ./C.cell (11c1c37f851c82e70ff6c80c92926a4b)
REM
REM compiler GCC version 9.2.1 20190827 (Red Hat 9.2.1-1)
REM options -cpp -mtune=generic -march=x86-64 -g -O0 -fpre-include=/usr/include/finclude/math-vector-fortran.h
REM seed -253958120 1848201752 -1602949232 289675056 800485357 -1175557018 -1525614404 95986764 -2074959093 220313172 1865926622 -1430522197 1009676100 992038369 8017409 -148328865 -1220980065 -684058566 -921490827 530689600 -340365583 -1066772678 1909772040 1599182643 -1436591485 -2098284680 326335468 -1022963576 1187174071 1686883151 44102346 -996700815 341635816
REM
CELL 1.54180   50.00000   50.00000   50.00000   90.00000   90.00000   90.00000
LATT -1
SFAC C  
C      1  0.4162720000000  0.5759940000000  0.5026810000000 1.0
C      1  0.6079690000000  0.4618010000000  0.4978860000000 1.0
C      1  0.4081030000000  0.5552550000000  0.4696670000000 1.0
C      1  0.4760460000000  0.4590840000000  0.4526510000000 1.0
C      1  0.5041090000000  0.4259130000000  0.5492780000000 1.0
C      1  0.5025680000000  0.5751310000000  0.4944150000000 1.0
C      1  0.5291040000000  0.4834800000000  0.5364580000000 1.0
C      1  0.5830570000000  0.4977790000000  0.5503030000000 1.0
C      1  0.6156400000000  0.4957240000000  0.5062960000000 1.0
C      1  0.5922310000000  0.4428590000000  0.5152480000000 1.0
C      1  0.5022490000000  0.5518720000000  0.5967810000000 1.0
C      1  0.4953500000000  0.5361010000000  0.4928130000000 1.0
C      1  0.5353500000000  0.5163070000000  0.4301740000000 1.0
C      1  0.5634200000000  0.5129550000000  0.5190950000000 1.0
C      1  0.5208160000000  0.5047250000000  0.6143430000000 1.0
C      1  0.5450270000000  0.5222710000000  0.5425930000000 1.0
C      1  0.4461940000000  0.4865150000000  0.4623250000000 1.0
C      1  0.3968800000000  0.4772670000000  0.5380070000000 1.0
C      1  0.5783830000000  0.4428300000000  0.4265400000000 1.0
C      1  0.4534730000000  0.5451530000000  0.4625100000000 1.0
C      1  0.5594720000000  0.4654920000000  0.5136010000000 1.0
C      1  0.4327410000000  0.4622230000000  0.5999640000000 1.0
C      1  0.4849220000000  0.4828380000000  0.5690880000000 1.0
C      1  0.4284140000000  0.5313430000000  0.4808810000000 1.0
C      1  0.4586580000000  0.4687490000000  0.5387350000000 1.0
C      1  0.5290860000000  0.5172150000000  0.4630210000000 1.0
C      1  0.5352830000000  0.4289050000000  0.5549000000000 1.0
C      1  0.5138820000000  0.5851800000000  0.5455290000000 1.0
C      1  0.5199730000000  0.5067130000000  0.3946050000000 1.0
C      1  0.5834360000000  0.5813030000000  0.5746520000000 1.0
C      1  0.4053390000000  0.4255830000000  0.5203720000000 1.0
C      1  0.4695650000000  0.5278550000000  0.5590520000000 1.0
C      1  0.5708450000000  0.4236270000000  0.5112520000000 1.0
C      1  0.4952590000000  0.5812870000000  0.5908620000000 1.0
C      1  0.5021290000000  0.5375510000000  0.5577270000000 1.0
C      1  0.4705760000000  0.3904510000000  0.5191060000000 1.0
C      1  0.4311580000000  0.5080980000000  0.5389840000000 1.0
C      1  0.5019990000000  0.5920320000000  0.4281890000000 1.0
C      1  0.4667010000000  0.4182780000000  0.5368980000000 1.0
C      1  0.4676500000000  0.4838230000000  0.3890880000000 1.0
C      1  0.6063860000000  0.5111010000000  0.4565630000000 1.0
C      1  0.3990260000000  0.5464750000000  0.5031280000000 1.0
C      1  0.4846630000000  0.5645340000000  0.5633980000000 1.0
C      1  0.5765520000000  0.4900530000000  0.5048480000000 1.0
C      1  0.4279900000000  0.4109980000000  0.4783190000000 1.0
C      1  0.4036370000000  0.4617150000000  0.4493930000000 1.0
C      1  0.5356560000000  0.5495260000000  0.5908540000000 1.0
C      1  0.5363120000000  0.4129190000000  0.4370460000000 1.0
C      1  0.5088140000000  0.4121580000000  0.4533930000000 1.0
C      1  0.5046430000000  0.5380250000000  0.4625220000000 1.0
C      1  0.5483220000000  0.5924230000000  0.4585480000000 1.0
C      1  0.3955490000000  0.4573900000000  0.4812460000000 1.0
C      1  0.4255040000000  0.5090960000000  0.5800970000000 1.0
C      1  0.5456590000000  0.4035800000000  0.4683770000000 1.0
C      1  0.5137370000000  0.5348830000000  0.4116270000000 1.0
C      1  0.5465530000000  0.4547380000000  0.5727470000000 1.0
C      1  0.5710170000000  0.5705510000000  0.4713610000000 1.0
C      1  0.4734640000000  0.5614080000000  0.4816100000000 1.0
C      1  0.6025320000000  0.5271380000000  0.5070760000000 1.0
C      1  0.4813310000000  0.4822710000000  0.5996570000000 1.0
C      1  0.5435460000000  0.4067260000000  0.5228030000000 1.0
C      1  0.4488740000000  0.5089720000000  0.4948410000000 1.0
C      1  0.4485490000000  0.5568130000000  0.4329700000000 1.0
C      1  0.5469560000000  0.5429910000000  0.4900640000000 1.0
C      1  0.4905170000000  0.4310550000000  0.5184300000000 1.0
C      1  0.4882290000000  0.5629930000000  0.4510240000000 1.0
C      1  0.5500980000000  0.4256550000000  0.4887410000000 1.0
C      1  0.5084280000000  0.4798420000000  0.6088870000000 1.0
C      1  0.4276680000000  0.5494100000000  0.5483980000000 1.0
C      1  0.4790260000000  0.5124530000000  0.4980370000000 1.0
C      1  0.5458910000000  0.5829020000000  0.4910970000000 1.0
C      1  0.3961800000000  0.4909330000000  0.4756560000000 1.0
C      1  0.4488660000000  0.4860610000000  0.5891230000000 1.0
C      1  0.5061430000000  0.4596470000000  0.5281920000000 1.0
C      1  0.4718430000000  0.5784570000000  0.4199800000000 1.0
C      1  0.5984590000000  0.5528240000000  0.4823150000000 1.0
C      1  0.4798830000000  0.4770750000000  0.5154250000000 1.0
C      1  0.5601840000000  0.4235450000000  0.5745390000000 1.0
C      1  0.4940110000000  0.4739000000000  0.4292720000000 1.0
C      1  0.4993600000000  0.5646860000000  0.5226110000000 1.0
C      1  0.4487020000000  0.5802010000000  0.4933110000000 1.0
C      1  0.4944800000000  0.5922130000000  0.4672470000000 1.0
C      1  0.4964570000000  0.3875180000000  0.5024330000000 1.0
C      1  0.4795090000000  0.5357960000000  0.5906090000000 1.0
C      1  0.4171910000000  0.4026840000000  0.5324090000000 1.0
C      1  0.4044170000000  0.4803670000000  0.5049890000000 1.0
C      1  0.5674350000000  0.5189170000000  0.4192160000000 1.0
C      1  0.5435770000000  0.4778730000000  0.4861980000000 1.0
C      1  0.4865140000000  0.5125200000000  0.4509560000000 1.0
C      1  0.4426540000000  0.3952180000000  0.5359660000000 1.0
C      1  0.4251930000000  0.4825810000000  0.4159710000000 1.0
C      1  0.5601420000000  0.5470640000000  0.4076500000000 1.0
C      1  0.4919310000000  0.3958080000000  0.4763460000000 1.0
C      1  0.4963600000000  0.6020060000000  0.5665510000000 1.0
C      1  0.5231940000000  0.5297930000000  0.5056600000000 1.0
C      1  0.6092930000000  0.4840630000000  0.5354730000000 1.0
C      1  0.5017160000000  0.4411740000000  0.4648890000000 1.0
C      1  0.5686010000000  0.5103760000000  0.5971580000000 1.0
C      1  0.4635760000000  0.5912990000000  0.5198360000000 1.0
C      1  0.5081970000000  0.6122550000000  0.5078110000000 1.0
C      1  0.4871700000000  0.5481080000000  0.4204510000000 1.0
C      1  0.5595950000000  0.4725800000000  0.5468640000000 1.0
C      1  0.5908890000000  0.5801550000000  0.5505540000000 1.0
C      1  0.5005220000000  0.4826170000000  0.3977470000000 1.0
C      1  0.5762790000000  0.5610690000000  0.5314590000000 1.0
C      1  0.5668370000000  0.5596060000000  0.5894840000000 1.0
C      1  0.4677150000000  0.5274570000000  0.4137770000000 1.0
C      1  0.5805640000000  0.4730720000000  0.4268530000000 1.0
C      1  0.5468670000000  0.5022670000000  0.3892450000000 1.0
C      1  0.4237490000000  0.5856160000000  0.4708480000000 1.0
C      1  0.5370170000000  0.5690140000000  0.5645740000000 1.0
C      1  0.5320860000000  0.4381670000000  0.5235040000000 1.0
C      1  0.4634380000000  0.4412880000000  0.5548990000000 1.0
C      1  0.5023960000000  0.4486160000000  0.3997820000000 1.0
C      1  0.5049290000000  0.4701400000000  0.4824100000000 1.0
C      1  0.4057540000000  0.5305900000000  0.5328110000000 1.0
C      1  0.5836160000000  0.5336340000000  0.5976070000000 1.0
C      1  0.4506690000000  0.5063750000000  0.3950550000000 1.0
C      1  0.5754730000000  0.5474360000000  0.5035930000000 1.0
C      1  0.5901910000000  0.4602280000000  0.5386280000000 1.0
C      1  0.5275810000000  0.5729030000000  0.4399730000000 1.0
C      1  0.5714150000000  0.4823290000000  0.4577210000000 1.0
C      1  0.4741340000000  0.5883980000000  0.5476270000000 1.0
C      1  0.4041680000000  0.4269070000000  0.4918970000000 1.0
C      1  0.5302730000000  0.5937400000000  0.5169390000000 1.0
C      1  0.5908560000000  0.5419800000000  0.5685620000000 1.0
C      1  0.4120370000000  0.4510160000000  0.5308200000000 1.0
C      1  0.4502160000000  0.4415560000000  0.4233290000000 1.0
C      1  0.4061870000000  0.4862420000000  0.4359810000000 1.0
C      1  0.5279360000000  0.4614220000000  0.5981830000000 1.0
C      1  0.4804870000000  0.4317070000000  0.4897160000000 1.0
C      1  0.5185670000000  0.6084160000000  0.4529660000000 1.0
C      1  0.5798290000000  0.4911490000000  0.5816990000000 1.0
C      1  0.4205220000000  0.4402490000000  0.6079780000000 1.0
C      1  0.4760330000000  0.5405010000000  0.5281390000000 1.0
C      1  0.4201140000000  0.5378980000000  0.4423380000000 1.0
C      1  0.4374370000000  0.4614330000000  0.5172740000000 1.0
C      1  0.5389160000000  0.5162780000000  0.5918710000000 1.0
C      1  0.5285110000000  0.4482550000000  0.4934240000000 1.0
C      1  0.4541180000000  0.4743150000000  0.4315940000000 1.0
C      1  0.5354770000000  0.4997030000000  0.5109970000000 1.0
C      1  0.5978350000000  0.4877860000000  0.4784230000000 1.0
C      1  0.4521800000000  0.4497780000000  0.4928740000000 1.0
C      1  0.4599940000000  0.5150830000000  0.4631060000000 1.0
C      1  0.4352590000000  0.5333800000000  0.4122250000000 1.0
C      1  0.4912390000000  0.4561210000000  0.5581120000000 1.0
C      1  0.5218980000000  0.3885670000000  0.5205430000000 1.0
C      1  0.5862600000000  0.5291070000000  0.5374070000000 1.0
C      1  0.4762500000000  0.4995000000000  0.4248660000000 1.0
C      1  0.4615510000000  0.4097360000000  0.4718480000000 1.0
C      1  0.4560670000000  0.4967220000000  0.5576390000000 1.0
C      1  0.4084050000000  0.4194210000000  0.6182830000000 1.0
C      1  0.4719900000000  0.4552540000000  0.4013800000000 1.0
C      1  0.5649150000000  0.4876820000000  0.4087410000000 1.0
C      1  0.5019230000000  0.5004720000000  0.4759120000000 1.0
C      1  0.5359150000000  0.5556780000000  0.4170700000000 1.0
C      1  0.4029460000000  0.5046770000000  0.5546620000000 1.0
C      1  0.5454240000000  0.4508480000000  0.4289090000000 1.0
C      1  0.5647470000000  0.4251480000000  0.4516390000000 1.0
C      1  0.5565610000000  0.5072680000000  0.4750590000000 1.0
C      1  0.5665140000000  0.5377320000000  0.4636610000000 1.0
C      1  0.5012870000000  0.5042130000000  0.5557950000000 1.0
C      1  0.4334250000000  0.4928740000000  0.5131460000000 1.0
C      1  0.4299340000000  0.5421360000000  0.5750330000000 1.0
C      1  0.5192830000000  0.4346890000000  0.4171790000000 1.0
C      1  0.4495140000000  0.6086200000000  0.4746470000000 1.0
C      1  0.5184210000000  0.4633240000000  0.4450310000000 1.0
C      1  0.5246110000000  0.5454350000000  0.5347590000000 1.0
C      1  0.4324850000000  0.5475350000000  0.5090840000000 1.0
C      1  0.5419270000000  0.4869390000000  0.4414080000000 1.0
C      1  0.4782930000000  0.6068420000000  0.4933290000000 1.0
C      1  0.4995430000000  0.3957240000000  0.5407850000000 1.0
C      1  0.4521650000000  0.5606230000000  0.5290850000000 1.0
C      1  0.4710800000000  0.4743020000000  0.4826550000000 1.0
C      1  0.4355640000000  0.4396460000000  0.4710720000000 1.0
C      1  0.4506620000000  0.5283700000000  0.5941270000000 1.0
C      1  0.5324520000000  0.5040220000000  0.5633910000000 1.0
C      1  0.5533310000000  0.4553300000000  0.4623530000000 1.0
C      1  0.5477510000000  0.5692880000000  0.5330410000000 1.0
C      1  0.5846610000000  0.5230000000000  0.4439690000000 1.0
C      1  0.4860480000000  0.4048830000000  0.4319390000000 1.0
C      1  0.4277220000000  0.4479330000000  0.4463280000000 1.0
C      1  0.4199080000000  0.5076840000000  0.4579800000000 1.0
C      1  0.5255850000000  0.5628530000000  0.4725890000000 1.0
C      1  0.4859190000000  0.5079090000000  0.5285570000000 1.0
C      1  0.4614570000000  0.4162230000000  0.4397200000000 1.0
END
