TITL C-2847957-7266-416 -0.00146327546300069 125000 -124.64760825841 0 0 23 (C1) n - 1
REM
REM in /home/bkarasulu/work/CARBON/AIRSS/Generating-Clusters/AIREBO/with-SteepDescent/Only-C1/SD-CG-opt/Try1-1.4A-POS3A/HFTN-CG
REM
REM
REM
REM
REM
REM ./C.cell (11c1c37f851c82e70ff6c80c92926a4b)
REM
REM compiler GCC version 9.2.1 20190827 (Red Hat 9.2.1-1)
REM options -cpp -mtune=generic -march=x86-64 -g -O0 -fpre-include=/usr/include/finclude/math-vector-fortran.h
REM seed -1383740137 889067155 1977851254 -1868124426 -636364693 2074614029 -1878799500 1907386545 258588819 245515391 -93751798 -1574948618 508977056 1236605376 -519489356 199904741 -1119049013 36538952 -329980041 775943185 505153693 -1017148896 1564456327 -2010922554 916892567 1512061768 -695608790 -324652568 344628821 1982712129 386640475 -1853992017 -1800321031
REM
CELL 1.54180   50.00000   50.00000   50.00000   90.00000   90.00000   90.00000
LATT -1
SFAC C  
C      1  0.5400250000000  0.5305710000000  0.5170060000000 1.0
C      1  0.4539360000000  0.5161870000000  0.5430540000000 1.0
C      1  0.5121400000000  0.4499680000000  0.4384310000000 1.0
C      1  0.5636640000000  0.5436410000000  0.5168220000000 1.0
C      1  0.4956510000000  0.4661070000000  0.4537950000000 1.0
C      1  0.5107680000000  0.4803420000000  0.4778190000000 1.0
C      1  0.4655200000000  0.4725820000000  0.4394220000000 1.0
C      1  0.5407880000000  0.4779120000000  0.5242880000000 1.0
C      1  0.5317840000000  0.5025590000000  0.5341970000000 1.0
C      1  0.4890680000000  0.5468120000000  0.4939110000000 1.0
C      1  0.5076380000000  0.5327910000000  0.5263970000000 1.0
C      1  0.4720630000000  0.4750830000000  0.5256070000000 1.0
C      1  0.4652340000000  0.4635460000000  0.4963550000000 1.0
C      1  0.4487290000000  0.5351850000000  0.5238140000000 1.0
C      1  0.5153490000000  0.5281610000000  0.4936070000000 1.0
C      1  0.5015180000000  0.5080240000000  0.5430340000000 1.0
C      1  0.5352770000000  0.5136640000000  0.4515840000000 1.0
C      1  0.4751840000000  0.4976160000000  0.5413620000000 1.0
C      1  0.5206990000000  0.5081080000000  0.4726070000000 1.0
C      1  0.5276160000000  0.4661700000000  0.5039680000000 1.0
C      1  0.4662520000000  0.5489580000000  0.5080980000000 1.0
C      1  0.4960300000000  0.4686060000000  0.5050660000000 1.0
C      1  0.4650670000000  0.4674050000000  0.4697570000000 1.0
END
