TITL C-2848505-4874-244 -0.00199172818839175 125000 -342.902848915233 0 0 64 (C1) n - 1
REM
REM in /home/bkarasulu/work/CARBON/AIRSS/Generating-Clusters/AIREBO/with-SteepDescent/Only-C1/SD-CG-opt/Try1-1.4A-POS3A/HFTN-CG
REM
REM
REM
REM
REM
REM ./C.cell (11c1c37f851c82e70ff6c80c92926a4b)
REM
REM compiler GCC version 9.2.1 20190827 (Red Hat 9.2.1-1)
REM options -cpp -mtune=generic -march=x86-64 -g -O0 -fpre-include=/usr/include/finclude/math-vector-fortran.h
REM seed 1368298911 -1094847135 220604802 1746194177 986974178 -652751338 -872294803 -1276516100 1538822651 -1237720955 -151015699 -300119162 1485256973 -1376864971 -1163332250 -1116637806 -242820880 1344607130 1369254796 950563549 -432182479 195785198 965512685 478959386 1339397190 1465742717 -1553986674 2095324888 1548297234 -958823034 471877400 291837632 -1232991479
REM
CELL 1.54180   50.00000   50.00000   50.00000   90.00000   90.00000   90.00000
LATT -1
SFAC C  
C      1  0.5490490000000  0.5453330000000  0.4627470000000 1.0
C      1  0.5060380000000  0.5608870000000  0.5027690000000 1.0
C      1  0.5115900000000  0.5513050000000  0.4753630000000 1.0
C      1  0.5150780000000  0.4873180000000  0.4956980000000 1.0
C      1  0.4368730000000  0.5221330000000  0.5351930000000 1.0
C      1  0.4932010000000  0.5051630000000  0.4674680000000 1.0
C      1  0.5643770000000  0.4569830000000  0.5017470000000 1.0
C      1  0.5558780000000  0.5203690000000  0.5077700000000 1.0
C      1  0.4649210000000  0.4560480000000  0.5440610000000 1.0
C      1  0.5216890000000  0.5025500000000  0.5805450000000 1.0
C      1  0.5637190000000  0.4921110000000  0.5371740000000 1.0
C      1  0.4679800000000  0.4285960000000  0.4870060000000 1.0
C      1  0.4628510000000  0.5158870000000  0.5056720000000 1.0
C      1  0.4435070000000  0.4888040000000  0.5331270000000 1.0
C      1  0.4645570000000  0.5155440000000  0.5532560000000 1.0
C      1  0.4545010000000  0.5470840000000  0.5510120000000 1.0
C      1  0.4394870000000  0.5607210000000  0.4246980000000 1.0
C      1  0.5236400000000  0.4332530000000  0.4889680000000 1.0
C      1  0.4952230000000  0.5604970000000  0.4484710000000 1.0
C      1  0.5057950000000  0.5352250000000  0.5254640000000 1.0
C      1  0.5641890000000  0.4401370000000  0.4586320000000 1.0
C      1  0.4478800000000  0.5108670000000  0.4589300000000 1.0
C      1  0.4347460000000  0.5348070000000  0.5050940000000 1.0
C      1  0.5160250000000  0.5546340000000  0.5535080000000 1.0
C      1  0.5181060000000  0.4757650000000  0.5514360000000 1.0
C      1  0.4959490000000  0.4875010000000  0.5715730000000 1.0
C      1  0.4686070000000  0.5563030000000  0.4464710000000 1.0
C      1  0.5147560000000  0.5073630000000  0.5418120000000 1.0
C      1  0.5176470000000  0.5213940000000  0.4732520000000 1.0
C      1  0.5514390000000  0.4376740000000  0.4840770000000 1.0
C      1  0.4420350000000  0.5008160000000  0.4854330000000 1.0
C      1  0.5597240000000  0.4886270000000  0.4701950000000 1.0
C      1  0.4452220000000  0.5397520000000  0.4581350000000 1.0
C      1  0.5283860000000  0.5647460000000  0.4502250000000 1.0
C      1  0.4723310000000  0.4987210000000  0.4490370000000 1.0
C      1  0.5133440000000  0.4556860000000  0.5065110000000 1.0
C      1  0.5759570000000  0.5471410000000  0.5144610000000 1.0
C      1  0.4590850000000  0.5716450000000  0.5312590000000 1.0
C      1  0.5514310000000  0.4682050000000  0.5497310000000 1.0
C      1  0.4823730000000  0.4164590000000  0.5144390000000 1.0
C      1  0.4674210000000  0.4556270000000  0.4683880000000 1.0
C      1  0.5735180000000  0.4659130000000  0.4534990000000 1.0
C      1  0.5277960000000  0.4830240000000  0.4684390000000 1.0
C      1  0.4304000000000  0.5475510000000  0.4817140000000 1.0
C      1  0.5003590000000  0.4167410000000  0.4879450000000 1.0
C      1  0.4794030000000  0.5742070000000  0.5078640000000 1.0
C      1  0.4766050000000  0.4444670000000  0.5226930000000 1.0
C      1  0.5214300000000  0.4949960000000  0.4412370000000 1.0
C      1  0.4448250000000  0.4530740000000  0.4936660000000 1.0
C      1  0.4828120000000  0.4641200000000  0.4975070000000 1.0
C      1  0.4399790000000  0.4787990000000  0.5057150000000 1.0
C      1  0.4664010000000  0.4600590000000  0.4190050000000 1.0
C      1  0.4699610000000  0.4708470000000  0.4438330000000 1.0
C      1  0.5430770000000  0.5066890000000  0.5559110000000 1.0
C      1  0.5670650000000  0.4908450000000  0.5033480000000 1.0
C      1  0.4827780000000  0.4957220000000  0.4953390000000 1.0
C      1  0.5458560000000  0.4375870000000  0.5438470000000 1.0
C      1  0.4874170000000  0.5392220000000  0.5538070000000 1.0
C      1  0.5199870000000  0.4500830000000  0.5344860000000 1.0
C      1  0.5452310000000  0.5154640000000  0.4543170000000 1.0
C      1  0.4736960000000  0.5417810000000  0.5163510000000 1.0
C      1  0.4671470000000  0.4850930000000  0.5575460000000 1.0
C      1  0.5259150000000  0.5176400000000  0.5044370000000 1.0
C      1  0.5617320000000  0.5463930000000  0.4866870000000 1.0
END
