TITL C-2848498-1409-667 -0.000530701056643565 125000 -576.678650648236 0 0 107 (C1) n - 1
REM
REM in /home/bkarasulu/work/CARBON/AIRSS/Generating-Clusters/AIREBO/with-SteepDescent/Only-C1/SD-CG-opt/Try1-1.4A-POS3A/HFTN-CG
REM
REM
REM
REM
REM
REM ./C.cell (11c1c37f851c82e70ff6c80c92926a4b)
REM
REM compiler GCC version 9.2.1 20190827 (Red Hat 9.2.1-1)
REM options -cpp -mtune=generic -march=x86-64 -g -O0 -fpre-include=/usr/include/finclude/math-vector-fortran.h
REM seed -1288389817 1336500206 174468000 -872779777 -1597135653 -860430024 -1613673313 1126460370 -1334924799 -234672847 -580460759 313217668 1640738410 416224886 1960993706 -2114888719 1023643165 -1113810841 573708072 935328164 -1002981769 -1714187391 -447242373 1502530520 -211302088 -90304663 -917915615 462760019 1000725519 -2028993 291170278 -1337790374 -1106380223
REM
CELL 1.54180   50.00000   50.00000   50.00000   90.00000   90.00000   90.00000
LATT -1
SFAC C  
C      1  0.4775620000000  0.5097670000000  0.5703660000000 1.0
C      1  0.4182380000000  0.5000970000000  0.4878920000000 1.0
C      1  0.4700560000000  0.4972130000000  0.5174750000000 1.0
C      1  0.5437130000000  0.5731830000000  0.5152240000000 1.0
C      1  0.4578740000000  0.4274890000000  0.4697600000000 1.0
C      1  0.4262860000000  0.5294630000000  0.4976870000000 1.0
C      1  0.4557120000000  0.5356440000000  0.4574800000000 1.0
C      1  0.4399190000000  0.4953550000000  0.5592160000000 1.0
C      1  0.5731760000000  0.5707540000000  0.5059920000000 1.0
C      1  0.4353670000000  0.4738920000000  0.5411750000000 1.0
C      1  0.4507670000000  0.5516420000000  0.5729230000000 1.0
C      1  0.5836910000000  0.4763140000000  0.4838500000000 1.0
C      1  0.5342820000000  0.4571270000000  0.5612040000000 1.0
C      1  0.4829400000000  0.4610410000000  0.5002770000000 1.0
C      1  0.5283890000000  0.5521710000000  0.4966130000000 1.0
C      1  0.4432600000000  0.5532680000000  0.5434640000000 1.0
C      1  0.5228870000000  0.5249450000000  0.5092180000000 1.0
C      1  0.4967870000000  0.5494420000000  0.4334060000000 1.0
C      1  0.5538810000000  0.6113430000000  0.4474060000000 1.0
C      1  0.4324960000000  0.5566470000000  0.4602220000000 1.0
C      1  0.4251140000000  0.4787240000000  0.5108580000000 1.0
C      1  0.5580040000000  0.4817830000000  0.5639040000000 1.0
C      1  0.5525450000000  0.4333940000000  0.5469080000000 1.0
C      1  0.5825350000000  0.5051350000000  0.4979040000000 1.0
C      1  0.4723110000000  0.4287240000000  0.4996330000000 1.0
C      1  0.4991000000000  0.6142910000000  0.4654210000000 1.0
C      1  0.5017520000000  0.5928660000000  0.5243310000000 1.0
C      1  0.5419770000000  0.4944640000000  0.4486190000000 1.0
C      1  0.5793510000000  0.5439820000000  0.5062520000000 1.0
C      1  0.5039580000000  0.3904350000000  0.4776580000000 1.0
C      1  0.4990170000000  0.5520170000000  0.5759540000000 1.0
C      1  0.4776240000000  0.4292240000000  0.4495750000000 1.0
C      1  0.5262550000000  0.5051630000000  0.5692410000000 1.0
C      1  0.4622700000000  0.4849970000000  0.4877590000000 1.0
C      1  0.5141960000000  0.4568740000000  0.4246980000000 1.0
C      1  0.4566330000000  0.5221620000000  0.5465950000000 1.0
C      1  0.5232160000000  0.4401100000000  0.4984630000000 1.0
C      1  0.5159010000000  0.5935240000000  0.4739680000000 1.0
C      1  0.5097830000000  0.4062850000000  0.5239670000000 1.0
C      1  0.4839270000000  0.5381420000000  0.5340280000000 1.0
C      1  0.5630690000000  0.5468580000000  0.5566390000000 1.0
C      1  0.4382130000000  0.5084780000000  0.5214820000000 1.0
C      1  0.5599450000000  0.4411000000000  0.5145450000000 1.0
C      1  0.5059440000000  0.4560940000000  0.5248290000000 1.0
C      1  0.5392170000000  0.4156210000000  0.5158120000000 1.0
C      1  0.5213080000000  0.5918920000000  0.5057500000000 1.0
C      1  0.4176440000000  0.5529590000000  0.4806660000000 1.0
C      1  0.4486370000000  0.4736670000000  0.4619070000000 1.0
C      1  0.5080800000000  0.5439320000000  0.4568490000000 1.0
C      1  0.5406570000000  0.5637270000000  0.5448060000000 1.0
C      1  0.5370880000000  0.4435310000000  0.4670340000000 1.0
C      1  0.5553800000000  0.3902530000000  0.5097310000000 1.0
C      1  0.4563970000000  0.5214630000000  0.4283560000000 1.0
C      1  0.5764270000000  0.5280040000000  0.4782390000000 1.0
C      1  0.5328140000000  0.4772590000000  0.5228080000000 1.0
C      1  0.5135840000000  0.5462820000000  0.5486540000000 1.0
C      1  0.4494030000000  0.4851900000000  0.5840480000000 1.0
C      1  0.5648150000000  0.5178940000000  0.4479940000000 1.0
C      1  0.5226790000000  0.4845370000000  0.4245390000000 1.0
C      1  0.5005830000000  0.5649810000000  0.4824860000000 1.0
C      1  0.4280880000000  0.5120700000000  0.4407260000000 1.0
C      1  0.5694910000000  0.5318910000000  0.5287870000000 1.0
C      1  0.4952360000000  0.5042290000000  0.4762570000000 1.0
C      1  0.4101470000000  0.5134950000000  0.5400070000000 1.0
C      1  0.5132020000000  0.4711450000000  0.4888130000000 1.0
C      1  0.5033130000000  0.5014930000000  0.4148030000000 1.0
C      1  0.4693760000000  0.4757110000000  0.4379410000000 1.0
C      1  0.4772530000000  0.5403410000000  0.4820260000000 1.0
C      1  0.4724100000000  0.5476680000000  0.4218320000000 1.0
C      1  0.4725740000000  0.5767300000000  0.4978030000000 1.0
C      1  0.5256540000000  0.5170750000000  0.4681150000000 1.0
C      1  0.5642090000000  0.4806130000000  0.5117970000000 1.0
C      1  0.5671800000000  0.4630820000000  0.5394570000000 1.0
C      1  0.4854370000000  0.4914700000000  0.5435240000000 1.0
C      1  0.5330610000000  0.4384640000000  0.4353100000000 1.0
C      1  0.4545270000000  0.4490510000000  0.5443530000000 1.0
C      1  0.4719830000000  0.4218310000000  0.5492420000000 1.0
C      1  0.4774760000000  0.4771950000000  0.5801240000000 1.0
C      1  0.4999090000000  0.4190750000000  0.4854120000000 1.0
C      1  0.4289850000000  0.4508600000000  0.4989270000000 1.0
C      1  0.5567810000000  0.5137590000000  0.5613010000000 1.0
C      1  0.4842240000000  0.4137150000000  0.5260050000000 1.0
C      1  0.5691130000000  0.4472090000000  0.4873860000000 1.0
C      1  0.4754490000000  0.5390210000000  0.5792030000000 1.0
C      1  0.4547080000000  0.5162870000000  0.4858970000000 1.0
C      1  0.4869280000000  0.5720510000000  0.5346330000000 1.0
C      1  0.5473580000000  0.5426280000000  0.4738030000000 1.0
C      1  0.4455320000000  0.4355460000000  0.5164640000000 1.0
C      1  0.4596780000000  0.4894080000000  0.3900990000000 1.0
C      1  0.4379580000000  0.4476420000000  0.4720310000000 1.0
C      1  0.5366260000000  0.5250820000000  0.5363670000000 1.0
C      1  0.4581210000000  0.5685820000000  0.5248800000000 1.0
C      1  0.5401540000000  0.5891250000000  0.4559470000000 1.0
C      1  0.5047690000000  0.4421580000000  0.4631180000000 1.0
C      1  0.4882760000000  0.4229630000000  0.5723390000000 1.0
C      1  0.5600380000000  0.5416120000000  0.4340240000000 1.0
C      1  0.4907230000000  0.5202970000000  0.5058920000000 1.0
C      1  0.5295730000000  0.4971090000000  0.4953790000000 1.0
C      1  0.4862000000000  0.4590000000000  0.5524130000000 1.0
C      1  0.5486200000000  0.5638350000000  0.4505430000000 1.0
C      1  0.4861170000000  0.4509210000000  0.4291670000000 1.0
C      1  0.5084780000000  0.4435410000000  0.5729270000000 1.0
C      1  0.5169010000000  0.4844620000000  0.5508240000000 1.0
C      1  0.5540130000000  0.4716800000000  0.4684280000000 1.0
C      1  0.4713000000000  0.4977540000000  0.4172730000000 1.0
C      1  0.4912160000000  0.4733600000000  0.4629720000000 1.0
C      1  0.4269990000000  0.4949510000000  0.4616710000000 1.0
END
