TITL C-2847944-5688-269 -1.56604232955223e-06 125000 -97.1756101272347 0 0 18 (C1) n - 1
REM
REM in /home/bkarasulu/work/CARBON/AIRSS/Generating-Clusters/AIREBO/with-SteepDescent/Only-C1/SD-CG-opt/Try1-1.4A-POS3A/HFTN-CG
REM
REM
REM
REM
REM
REM ./C.cell (11c1c37f851c82e70ff6c80c92926a4b)
REM
REM compiler GCC version 9.2.1 20190827 (Red Hat 9.2.1-1)
REM options -cpp -mtune=generic -march=x86-64 -g -O0 -fpre-include=/usr/include/finclude/math-vector-fortran.h
REM seed -1803349615 1104476243 -1991932686 -1307331846 -106738474 -1298822783 -1442361764 286417236 1088661500 -737736493 1670089017 60576865 -742692555 1147959561 -264485226 1965012864 -438726504 241956835 -1797530415 123493325 -577868629 2003972821 2048742169 -702769423 1361148258 1773368852 473914552 -1660045724 1966344160 596607242 931872713 1464844018 -2073505550
REM
CELL 1.54180   50.00000   50.00000   50.00000   90.00000   90.00000   90.00000
LATT -1
SFAC C  
C      1  0.5168030000000  0.4971840000000  0.5293240000000 1.0
C      1  0.4277830000000  0.5157300000000  0.5010100000000 1.0
C      1  0.4607650000000  0.5691970000000  0.5356270000000 1.0
C      1  0.4772460000000  0.4927820000000  0.5558630000000 1.0
C      1  0.4561060000000  0.5456550000000  0.5250890000000 1.0
C      1  0.4890510000000  0.4977120000000  0.5320750000000 1.0
C      1  0.5112160000000  0.4477300000000  0.3940340000000 1.0
C      1  0.5357630000000  0.4787400000000  0.5414030000000 1.0
C      1  0.4933930000000  0.4694470000000  0.4387250000000 1.0
C      1  0.5823720000000  0.5199180000000  0.5029220000000 1.0
C      1  0.4519070000000  0.5218270000000  0.5115330000000 1.0
C      1  0.5333660000000  0.5150460000000  0.5132280000000 1.0
C      1  0.5617170000000  0.5080310000000  0.5150090000000 1.0
C      1  0.4789270000000  0.4912620000000  0.4850490000000 1.0
C      1  0.4858680000000  0.4814800000000  0.4612680000000 1.0
C      1  0.4733830000000  0.5035530000000  0.5092570000000 1.0
C      1  0.5022200000000  0.4596260000000  0.4155890000000 1.0
C      1  0.5621150000000  0.4850790000000  0.5329950000000 1.0
END
