TITL C-2848503-6230-54 -0.00441202681053375 125000 -634.388257026765 0 0 119 (C1) n - 1
REM
REM in /home/bkarasulu/work/CARBON/AIRSS/Generating-Clusters/AIREBO/with-SteepDescent/Only-C1/SD-CG-opt/Try1-1.4A-POS3A/HFTN-CG
REM
REM
REM
REM
REM
REM ./C.cell (11c1c37f851c82e70ff6c80c92926a4b)
REM
REM compiler GCC version 9.2.1 20190827 (Red Hat 9.2.1-1)
REM options -cpp -mtune=generic -march=x86-64 -g -O0 -fpre-include=/usr/include/finclude/math-vector-fortran.h
REM seed -1288654187 -1100380808 868103259 1492594116 65246047 862935240 -306844972 1756587985 421192535 2052173986 1313372130 1906038806 1355978728 -1913551953 1796163857 1347053460 -806142764 -1326027801 2095479618 -717692397 555568518 1306368838 939329432 -1820009345 571114171 -1592937599 876101299 -129803867 -1718932992 850488904 2122278022 435140497 1854996457
REM
CELL 1.54180   50.00000   50.00000   50.00000   90.00000   90.00000   90.00000
LATT -1
SFAC C  
C      1  0.5069070000000  0.5270290000000  0.5316870000000 1.0
C      1  0.5824030000000  0.5174000000000  0.4547600000000 1.0
C      1  0.5649880000000  0.5349770000000  0.5511000000000 1.0
C      1  0.4580790000000  0.5726890000000  0.4796280000000 1.0
C      1  0.4962980000000  0.4594550000000  0.5484900000000 1.0
C      1  0.5959980000000  0.5302090000000  0.4785200000000 1.0
C      1  0.5077810000000  0.4946960000000  0.5868220000000 1.0
C      1  0.5384100000000  0.5222510000000  0.5197790000000 1.0
C      1  0.4801150000000  0.4387160000000  0.4906320000000 1.0
C      1  0.5600590000000  0.5366970000000  0.4439630000000 1.0
C      1  0.4168540000000  0.4944470000000  0.4585500000000 1.0
C      1  0.5214550000000  0.5790270000000  0.5039320000000 1.0
C      1  0.5352290000000  0.4505400000000  0.5674520000000 1.0
C      1  0.4051050000000  0.5240050000000  0.4691020000000 1.0
C      1  0.4712360000000  0.4817520000000  0.5427340000000 1.0
C      1  0.4365600000000  0.4712800000000  0.5266040000000 1.0
C      1  0.5618140000000  0.4882490000000  0.4145970000000 1.0
C      1  0.4672070000000  0.5474580000000  0.4470800000000 1.0
C      1  0.5684340000000  0.4741150000000  0.4381470000000 1.0
C      1  0.4709400000000  0.4487610000000  0.5669600000000 1.0
C      1  0.5178990000000  0.4967540000000  0.4403830000000 1.0
C      1  0.4832950000000  0.4558770000000  0.4550030000000 1.0
C      1  0.4621200000000  0.5031910000000  0.5937970000000 1.0
C      1  0.5681250000000  0.5484260000000  0.4748620000000 1.0
C      1  0.4909950000000  0.5816980000000  0.5370130000000 1.0
C      1  0.4521540000000  0.4949340000000  0.4807220000000 1.0
C      1  0.4804860000000  0.5452820000000  0.5683990000000 1.0
C      1  0.5939320000000  0.5152830000000  0.5037110000000 1.0
C      1  0.4516150000000  0.4342360000000  0.5208720000000 1.0
C      1  0.4311620000000  0.5656230000000  0.4989620000000 1.0
C      1  0.4588730000000  0.4622030000000  0.5026050000000 1.0
C      1  0.5100420000000  0.5485430000000  0.5760380000000 1.0
C      1  0.5536390000000  0.4861210000000  0.4837150000000 1.0
C      1  0.4901460000000  0.4092300000000  0.4769860000000 1.0
C      1  0.4281780000000  0.5221720000000  0.5720790000000 1.0
C      1  0.5113530000000  0.4829140000000  0.5290110000000 1.0
C      1  0.5210110000000  0.5642420000000  0.4784440000000 1.0
C      1  0.5242840000000  0.4550510000000  0.4852600000000 1.0
C      1  0.4966470000000  0.4162180000000  0.5649690000000 1.0
C      1  0.4805760000000  0.5074570000000  0.5225300000000 1.0
C      1  0.5213630000000  0.4633810000000  0.4459000000000 1.0
C      1  0.4714900000000  0.5421950000000  0.4865000000000 1.0
C      1  0.4858440000000  0.4669540000000  0.4127630000000 1.0
C      1  0.4925520000000  0.5443410000000  0.4064330000000 1.0
C      1  0.4983840000000  0.4287420000000  0.4511310000000 1.0
C      1  0.5075500000000  0.5471640000000  0.4368240000000 1.0
C      1  0.5444620000000  0.5021130000000  0.5997850000000 1.0
C      1  0.5802900000000  0.4903040000000  0.5403000000000 1.0
C      1  0.5739580000000  0.4908890000000  0.4596920000000 1.0
C      1  0.5400970000000  0.5525220000000  0.4339640000000 1.0
C      1  0.5566980000000  0.4544780000000  0.4958000000000 1.0
C      1  0.4620450000000  0.4644930000000  0.4331850000000 1.0
C      1  0.4936040000000  0.5574640000000  0.4660730000000 1.0
C      1  0.4756620000000  0.5952170000000  0.4935890000000 1.0
C      1  0.4944670000000  0.5183450000000  0.4492870000000 1.0
C      1  0.4277850000000  0.5037140000000  0.5290050000000 1.0
C      1  0.4307480000000  0.5284730000000  0.5128750000000 1.0
C      1  0.5025850000000  0.4573700000000  0.5083000000000 1.0
C      1  0.4706620000000  0.5375890000000  0.5186540000000 1.0
C      1  0.4934450000000  0.5166840000000  0.4816330000000 1.0
C      1  0.4807590000000  0.4879460000000  0.4946730000000 1.0
C      1  0.4664690000000  0.5800430000000  0.4472780000000 1.0
C      1  0.5447640000000  0.5962200000000  0.5445190000000 1.0
C      1  0.4106240000000  0.5419970000000  0.4890230000000 1.0
C      1  0.4643620000000  0.5163820000000  0.4335660000000 1.0
C      1  0.4186170000000  0.4911970000000  0.4264910000000 1.0
C      1  0.4995420000000  0.4270970000000  0.5234770000000 1.0
C      1  0.4715730000000  0.5588150000000  0.5436810000000 1.0
C      1  0.5009670000000  0.4053370000000  0.5048710000000 1.0
C      1  0.4833140000000  0.5172400000000  0.4065160000000 1.0
C      1  0.5170800000000  0.5028100000000  0.5018040000000 1.0
C      1  0.5177510000000  0.4261340000000  0.5744900000000 1.0
C      1  0.5024020000000  0.5028110000000  0.5551240000000 1.0
C      1  0.4413370000000  0.5376000000000  0.4594560000000 1.0
C      1  0.5015200000000  0.4750620000000  0.4709650000000 1.0
C      1  0.4412630000000  0.4468860000000  0.4531150000000 1.0
C      1  0.5114440000000  0.5566930000000  0.5451250000000 1.0
C      1  0.5377540000000  0.5722440000000  0.5309390000000 1.0
C      1  0.4967490000000  0.5902250000000  0.5112430000000 1.0
C      1  0.5049470000000  0.4465780000000  0.4229270000000 1.0
C      1  0.5249790000000  0.4260740000000  0.4692930000000 1.0
C      1  0.5235780000000  0.4415960000000  0.5381050000000 1.0
C      1  0.4592580000000  0.4259810000000  0.4669770000000 1.0
C      1  0.5661320000000  0.5354120000000  0.5045180000000 1.0
C      1  0.4430060000000  0.5556190000000  0.5277030000000 1.0
C      1  0.5958690000000  0.4888120000000  0.5130650000000 1.0
C      1  0.4747240000000  0.5165970000000  0.5675920000000 1.0
C      1  0.4973830000000  0.4926810000000  0.4135630000000 1.0
C      1  0.4076630000000  0.4759010000000  0.4843840000000 1.0
C      1  0.4293420000000  0.4638730000000  0.4238890000000 1.0
C      1  0.5333820000000  0.5753050000000  0.4509790000000 1.0
C      1  0.5349840000000  0.4794920000000  0.5785140000000 1.0
C      1  0.5506700000000  0.4390470000000  0.5232750000000 1.0
C      1  0.4367190000000  0.4651820000000  0.4769800000000 1.0
C      1  0.4438760000000  0.4496860000000  0.5488510000000 1.0
C      1  0.5544820000000  0.4361560000000  0.4672430000000 1.0
C      1  0.4851890000000  0.4844300000000  0.6026790000000 1.0
C      1  0.5374050000000  0.5374050000000  0.4768020000000 1.0
C      1  0.4451390000000  0.5226900000000  0.4850070000000 1.0
C      1  0.5255460000000  0.5230180000000  0.5806260000000 1.0
C      1  0.5707610000000  0.4408150000000  0.5423290000000 1.0
C      1  0.4750140000000  0.4262360000000  0.5420460000000 1.0
C      1  0.5563100000000  0.4887080000000  0.5161140000000 1.0
C      1  0.5409350000000  0.4856620000000  0.5456030000000 1.0
C      1  0.5667330000000  0.4665390000000  0.5568130000000 1.0
C      1  0.4405410000000  0.4812320000000  0.5846590000000 1.0
C      1  0.5411680000000  0.5062370000000  0.4184270000000 1.0
C      1  0.4467070000000  0.5004500000000  0.5570740000000 1.0
C      1  0.4081430000000  0.4815790000000  0.5129790000000 1.0
C      1  0.5503260000000  0.4544460000000  0.4458600000000 1.0
C      1  0.4884540000000  0.5727810000000  0.4251560000000 1.0
C      1  0.4504940000000  0.4915440000000  0.4502380000000 1.0
C      1  0.5304990000000  0.5060080000000  0.4707270000000 1.0
C      1  0.5615840000000  0.5532550000000  0.5295700000000 1.0
C      1  0.4347370000000  0.5129530000000  0.4172180000000 1.0
C      1  0.5392870000000  0.5186710000000  0.5535890000000 1.0
C      1  0.5886440000000  0.4655580000000  0.4994660000000 1.0
C      1  0.5858540000000  0.5175890000000  0.5538900000000 1.0
C      1  0.4651490000000  0.4638230000000  0.5913200000000 1.0
END
