TITL C-2848504-8560-559 0.00101532689137487 125000 -816.293856581095 0 0 159 (C1) n - 1
REM
REM in /home/bkarasulu/work/CARBON/AIRSS/Generating-Clusters/AIREBO/with-SteepDescent/Only-C1/SD-CG-opt/Try1-1.4A-POS3A/HFTN-CG
REM
REM
REM
REM
REM
REM ./C.cell (11c1c37f851c82e70ff6c80c92926a4b)
REM
REM compiler GCC version 9.2.1 20190827 (Red Hat 9.2.1-1)
REM options -cpp -mtune=generic -march=x86-64 -g -O0 -fpre-include=/usr/include/finclude/math-vector-fortran.h
REM seed 263081928 -1039844706 104769383 190631002 -971158680 754921403 -2129801164 269961132 121480331 699883137 -1054662832 -1726491579 1441979338 -980075076 471015664 -2058154538 1768579697 -209093308 -194916679 1549076428 643025019 -1602801876 -1669730355 712504793 -905993640 350174432 352049640 1720151879 -2057660439 -1471971848 -878196495 576611357 1814699205
REM
CELL 1.54180   50.00000   50.00000   50.00000   90.00000   90.00000   90.00000
LATT -1
SFAC C  
C      1  0.5971870000000  0.4569000000000  0.5124820000000 1.0
C      1  0.4533660000000  0.5725800000000  0.4974500000000 1.0
C      1  0.4133610000000  0.4682360000000  0.4745390000000 1.0
C      1  0.5078570000000  0.5624090000000  0.5669900000000 1.0
C      1  0.4223440000000  0.5736390000000  0.4892280000000 1.0
C      1  0.4505370000000  0.5120260000000  0.5899950000000 1.0
C      1  0.5025090000000  0.4319570000000  0.4796840000000 1.0
C      1  0.5849810000000  0.5064820000000  0.5521680000000 1.0
C      1  0.4818430000000  0.5666470000000  0.4196660000000 1.0
C      1  0.5711770000000  0.4419930000000  0.4455190000000 1.0
C      1  0.4466390000000  0.5067180000000  0.4826530000000 1.0
C      1  0.5795890000000  0.4516850000000  0.5480110000000 1.0
C      1  0.4798150000000  0.5604790000000  0.5765610000000 1.0
C      1  0.5157740000000  0.5879730000000  0.5476960000000 1.0
C      1  0.4196250000000  0.5715200000000  0.5186750000000 1.0
C      1  0.4103780000000  0.5049960000000  0.5628320000000 1.0
C      1  0.5188260000000  0.4681800000000  0.4111980000000 1.0
C      1  0.5703620000000  0.5720690000000  0.4574750000000 1.0
C      1  0.4535830000000  0.4068130000000  0.4998250000000 1.0
C      1  0.5580410000000  0.5228660000000  0.5526070000000 1.0
C      1  0.4995140000000  0.4093610000000  0.5646060000000 1.0
C      1  0.4833580000000  0.5870500000000  0.4995010000000 1.0
C      1  0.5618740000000  0.4926130000000  0.6003850000000 1.0
C      1  0.5672720000000  0.5087980000000  0.5164140000000 1.0
C      1  0.4713910000000  0.4244690000000  0.5574800000000 1.0
C      1  0.5563600000000  0.5843890000000  0.4839410000000 1.0
C      1  0.5382740000000  0.4934110000000  0.4237320000000 1.0
C      1  0.4967860000000  0.4928720000000  0.4635350000000 1.0
C      1  0.4327820000000  0.4699690000000  0.5027940000000 1.0
C      1  0.5172550000000  0.6346200000000  0.4522250000000 1.0
C      1  0.3809670000000  0.4878940000000  0.5184170000000 1.0
C      1  0.4806140000000  0.5494920000000  0.3997150000000 1.0
C      1  0.4957330000000  0.4799780000000  0.5596230000000 1.0
C      1  0.5043980000000  0.4163620000000  0.4306840000000 1.0
C      1  0.5348100000000  0.4719370000000  0.4610520000000 1.0
C      1  0.5198290000000  0.4345150000000  0.5751520000000 1.0
C      1  0.5797640000000  0.4360060000000  0.4735310000000 1.0
C      1  0.5003040000000  0.5837790000000  0.4708790000000 1.0
C      1  0.5025340000000  0.5284850000000  0.5389530000000 1.0
C      1  0.4589310000000  0.4532350000000  0.4728510000000 1.0
C      1  0.4398950000000  0.5615550000000  0.5743190000000 1.0
C      1  0.4795750000000  0.4771120000000  0.3928710000000 1.0
C      1  0.5985730000000  0.5113780000000  0.5232160000000 1.0
C      1  0.4257630000000  0.5009760000000  0.5161490000000 1.0
C      1  0.5105380000000  0.4706960000000  0.4416020000000 1.0
C      1  0.5512690000000  0.5561250000000  0.5754050000000 1.0
C      1  0.5677790000000  0.5368450000000  0.4762270000000 1.0
C      1  0.5773420000000  0.4326230000000  0.5130170000000 1.0
C      1  0.5628160000000  0.4714990000000  0.4326770000000 1.0
C      1  0.4622640000000  0.5804370000000  0.5614380000000 1.0
C      1  0.4784600000000  0.4752330000000  0.4409450000000 1.0
C      1  0.4797400000000  0.5221430000000  0.4000150000000 1.0
C      1  0.5020350000000  0.5612880000000  0.5037540000000 1.0
C      1  0.5817470000000  0.4184220000000  0.5413020000000 1.0
C      1  0.5406050000000  0.4423920000000  0.4486010000000 1.0
C      1  0.5418290000000  0.5016050000000  0.3909250000000 1.0
C      1  0.4582890000000  0.5099410000000  0.5128390000000 1.0
C      1  0.5264270000000  0.5446050000000  0.5830780000000 1.0
C      1  0.5357040000000  0.4961290000000  0.6011680000000 1.0
C      1  0.5721840000000  0.5070500000000  0.4656250000000 1.0
C      1  0.5006020000000  0.4044970000000  0.5085680000000 1.0
C      1  0.4897010000000  0.6028870000000  0.5497360000000 1.0
C      1  0.4786040000000  0.5175200000000  0.4784090000000 1.0
C      1  0.4155990000000  0.4577030000000  0.5497310000000 1.0
C      1  0.6027460000000  0.4857080000000  0.5012230000000 1.0
C      1  0.5529750000000  0.4768200000000  0.4978530000000 1.0
C      1  0.4828780000000  0.5911730000000  0.4431980000000 1.0
C      1  0.5158540000000  0.4734240000000  0.5345980000000 1.0
C      1  0.5106170000000  0.5586240000000  0.5333110000000 1.0
C      1  0.4702390000000  0.4488840000000  0.4273270000000 1.0
C      1  0.5502980000000  0.5359420000000  0.5049500000000 1.0
C      1  0.4165610000000  0.4444880000000  0.5184140000000 1.0
C      1  0.6007490000000  0.5239040000000  0.4580500000000 1.0
C      1  0.4882120000000  0.4627240000000  0.4772420000000 1.0
C      1  0.4759890000000  0.5509610000000  0.4841390000000 1.0
C      1  0.4787620000000  0.3994300000000  0.4869410000000 1.0
C      1  0.3959390000000  0.5288350000000  0.4901980000000 1.0
C      1  0.4184950000000  0.4558360000000  0.4457120000000 1.0
C      1  0.4844690000000  0.4139440000000  0.4571860000000 1.0
C      1  0.4232240000000  0.5187930000000  0.4374050000000 1.0
C      1  0.4289790000000  0.4307450000000  0.4450350000000 1.0
C      1  0.5813220000000  0.5498890000000  0.5049230000000 1.0
C      1  0.4250990000000  0.4750250000000  0.4264230000000 1.0
C      1  0.5587810000000  0.4156940000000  0.4911560000000 1.0
C      1  0.5098170000000  0.5307680000000  0.4757540000000 1.0
C      1  0.5230280000000  0.5593980000000  0.4687900000000 1.0
C      1  0.4188990000000  0.4795780000000  0.5703960000000 1.0
C      1  0.5574170000000  0.5214630000000  0.4282150000000 1.0
C      1  0.4497350000000  0.4404670000000  0.5030000000000 1.0
C      1  0.3977860000000  0.5087440000000  0.5081580000000 1.0
C      1  0.4684110000000  0.4900500000000  0.5536870000000 1.0
C      1  0.5132810000000  0.5103480000000  0.4394000000000 1.0
C      1  0.5725670000000  0.4763280000000  0.5256400000000 1.0
C      1  0.5053520000000  0.6123750000000  0.4541470000000 1.0
C      1  0.4924170000000  0.5354050000000  0.4458120000000 1.0
C      1  0.5006140000000  0.4969060000000  0.4108400000000 1.0
C      1  0.4354800000000  0.5341960000000  0.5741970000000 1.0
C      1  0.4737890000000  0.4509020000000  0.4006720000000 1.0
C      1  0.4878500000000  0.4768170000000  0.5062780000000 1.0
C      1  0.5340180000000  0.4083350000000  0.5138660000000 1.0
C      1  0.5271990000000  0.4085730000000  0.4805930000000 1.0
C      1  0.5967130000000  0.4651960000000  0.4747380000000 1.0
C      1  0.5924020000000  0.5675780000000  0.4824050000000 1.0
C      1  0.4597430000000  0.4309320000000  0.4495640000000 1.0
C      1  0.5354580000000  0.5660930000000  0.4997510000000 1.0
C      1  0.4527570000000  0.4921060000000  0.4352740000000 1.0
C      1  0.4614880000000  0.4987220000000  0.4036700000000 1.0
C      1  0.5547190000000  0.4298010000000  0.5569040000000 1.0
C      1  0.5217760000000  0.5174230000000  0.5046610000000 1.0
C      1  0.4427500000000  0.4804960000000  0.4656330000000 1.0
C      1  0.5164520000000  0.4978240000000  0.5735120000000 1.0
C      1  0.4908680000000  0.4889010000000  0.6344090000000 1.0
C      1  0.5153450000000  0.4879240000000  0.4916010000000 1.0
C      1  0.4157370000000  0.5501000000000  0.4727160000000 1.0
C      1  0.4469520000000  0.4522010000000  0.5428650000000 1.0
C      1  0.4619700000000  0.5217940000000  0.4490530000000 1.0
C      1  0.5836040000000  0.5050540000000  0.4273580000000 1.0
C      1  0.4250830000000  0.5206950000000  0.4646470000000 1.0
C      1  0.5227710000000  0.4369630000000  0.4248490000000 1.0
C      1  0.5803800000000  0.5413880000000  0.5348740000000 1.0
C      1  0.5482320000000  0.4484360000000  0.5105870000000 1.0
C      1  0.5322450000000  0.5382480000000  0.4437350000000 1.0
C      1  0.4482900000000  0.4817690000000  0.5784520000000 1.0
C      1  0.4921660000000  0.4533830000000  0.5270420000000 1.0
C      1  0.4956940000000  0.4481770000000  0.5581740000000 1.0
C      1  0.5322560000000  0.4473710000000  0.4813750000000 1.0
C      1  0.5048810000000  0.4903850000000  0.6108550000000 1.0
C      1  0.3915770000000  0.4652310000000  0.5287090000000 1.0
C      1  0.5264260000000  0.4174580000000  0.5457910000000 1.0
C      1  0.4596720000000  0.4515320000000  0.5744010000000 1.0
C      1  0.4679170000000  0.5911050000000  0.5296290000000 1.0
C      1  0.5432500000000  0.5811390000000  0.5295250000000 1.0
C      1  0.4766400000000  0.5302990000000  0.5822490000000 1.0
C      1  0.5600090000000  0.5622910000000  0.5495230000000 1.0
C      1  0.4886040000000  0.5163360000000  0.5120990000000 1.0
C      1  0.5461650000000  0.5652950000000  0.4367780000000 1.0
C      1  0.4489710000000  0.5628820000000  0.5289280000000 1.0
C      1  0.5734870000000  0.4904570000000  0.5755950000000 1.0
C      1  0.5382630000000  0.4982800000000  0.5281000000000 1.0
C      1  0.4705780000000  0.5607170000000  0.4520180000000 1.0
C      1  0.4827380000000  0.4334010000000  0.5073180000000 1.0
C      1  0.5049850000000  0.5204340000000  0.5938740000000 1.0
C      1  0.5874280000000  0.4826530000000  0.4522060000000 1.0
C      1  0.4466090000000  0.5335330000000  0.4221670000000 1.0
C      1  0.4329670000000  0.5189930000000  0.5438800000000 1.0
C      1  0.4658860000000  0.5204970000000  0.5525560000000 1.0
C      1  0.4529040000000  0.4214410000000  0.5310280000000 1.0
C      1  0.5262550000000  0.5162790000000  0.5519080000000 1.0
C      1  0.5537230000000  0.4816800000000  0.5534310000000 1.0
C      1  0.4113690000000  0.4817340000000  0.4037920000000 1.0
C      1  0.5765750000000  0.5409900000000  0.4451380000000 1.0
C      1  0.5587350000000  0.6072310000000  0.5239370000000 1.0
C      1  0.3828270000000  0.4688150000000  0.4758040000000 1.0
C      1  0.4386190000000  0.5541310000000  0.4478050000000 1.0
C      1  0.5407340000000  0.4542200000000  0.5395540000000 1.0
C      1  0.4737760000000  0.5459660000000  0.5340710000000 1.0
C      1  0.4585820000000  0.4776790000000  0.5235790000000 1.0
C      1  0.5110610000000  0.4626920000000  0.5920810000000 1.0
C      1  0.5442020000000  0.4980910000000  0.4767520000000 1.0
END
