TITL C-2847948-6138-348 -0.00286733820014546 125000 -941.071257977537 0 0 178 (C1) n - 1
REM
REM in /home/bkarasulu/work/CARBON/AIRSS/Generating-Clusters/AIREBO/with-SteepDescent/Only-C1/SD-CG-opt/Try1-1.4A-POS3A/HFTN-CG
REM
REM
REM
REM
REM
REM ./C.cell (11c1c37f851c82e70ff6c80c92926a4b)
REM
REM compiler GCC version 9.2.1 20190827 (Red Hat 9.2.1-1)
REM options -cpp -mtune=generic -march=x86-64 -g -O0 -fpre-include=/usr/include/finclude/math-vector-fortran.h
REM seed -856230840 -667070555 1622641023 -10823801 544887107 1194746334 -1617117109 1326977066 -1445535210 -2110240135 -661815305 -1212968822 1249286464 2080616837 -1310633047 -1378114648 837962118 781260738 -1946325042 -20032531 -560759547 1183016417 -1014470678 291543514 1417061358 504211329 -1020393820 1989141556 -247495922 -1611308607 917962399 1592512117 -1775016473
REM
CELL 1.54180   50.00000   50.00000   50.00000   90.00000   90.00000   90.00000
LATT -1
SFAC C  
C      1  0.4797420000000  0.5461000000000  0.4149330000000 1.0
C      1  0.5183520000000  0.5515580000000  0.5174480000000 1.0
C      1  0.5549670000000  0.5681910000000  0.5623060000000 1.0
C      1  0.5117250000000  0.4147360000000  0.5544150000000 1.0
C      1  0.5360240000000  0.4903410000000  0.5119990000000 1.0
C      1  0.4536440000000  0.4361250000000  0.4210420000000 1.0
C      1  0.5715890000000  0.4866750000000  0.4245520000000 1.0
C      1  0.5695510000000  0.4873560000000  0.5178740000000 1.0
C      1  0.4898920000000  0.5478730000000  0.5963570000000 1.0
C      1  0.5401620000000  0.5046030000000  0.5626220000000 1.0
C      1  0.5168590000000  0.5694600000000  0.4635890000000 1.0
C      1  0.5257940000000  0.4550170000000  0.3981360000000 1.0
C      1  0.4806620000000  0.4951920000000  0.5498650000000 1.0
C      1  0.5472650000000  0.4086340000000  0.5035370000000 1.0
C      1  0.5448950000000  0.5668020000000  0.3950570000000 1.0
C      1  0.5486860000000  0.5420020000000  0.5409630000000 1.0
C      1  0.5300020000000  0.4630010000000  0.4553960000000 1.0
C      1  0.5314770000000  0.5056050000000  0.6140210000000 1.0
C      1  0.4189600000000  0.4737870000000  0.4415920000000 1.0
C      1  0.4182600000000  0.4425780000000  0.5444770000000 1.0
C      1  0.5144640000000  0.4962500000000  0.5450940000000 1.0
C      1  0.5527330000000  0.4084370000000  0.5431040000000 1.0
C      1  0.4738550000000  0.5274100000000  0.5426600000000 1.0
C      1  0.5252530000000  0.5758510000000  0.4136250000000 1.0
C      1  0.4357720000000  0.4794720000000  0.5100740000000 1.0
C      1  0.5829310000000  0.5568850000000  0.5131610000000 1.0
C      1  0.4957810000000  0.4742760000000  0.4251970000000 1.0
C      1  0.4945970000000  0.5769200000000  0.4189260000000 1.0
C      1  0.4121450000000  0.5361480000000  0.4756710000000 1.0
C      1  0.5600540000000  0.5712360000000  0.5287210000000 1.0
C      1  0.5536450000000  0.4382260000000  0.5459740000000 1.0
C      1  0.5287930000000  0.5204780000000  0.5265970000000 1.0
C      1  0.3964570000000  0.5389610000000  0.5060570000000 1.0
C      1  0.5046970000000  0.5149180000000  0.4688400000000 1.0
C      1  0.5171940000000  0.5322300000000  0.4423720000000 1.0
C      1  0.5585580000000  0.5409440000000  0.4074600000000 1.0
C      1  0.5100190000000  0.4328940000000  0.4188150000000 1.0
C      1  0.4270870000000  0.5006820000000  0.4893290000000 1.0
C      1  0.4048570000000  0.5079110000000  0.5127900000000 1.0
C      1  0.5387230000000  0.4481280000000  0.4288200000000 1.0
C      1  0.5417690000000  0.6011990000000  0.4881010000000 1.0
C      1  0.4457840000000  0.4860450000000  0.5885430000000 1.0
C      1  0.4268930000000  0.5362980000000  0.5318500000000 1.0
C      1  0.4468390000000  0.5155250000000  0.5931600000000 1.0
C      1  0.5317150000000  0.5759380000000  0.5830220000000 1.0
C      1  0.5036140000000  0.4776320000000  0.3847940000000 1.0
C      1  0.4891300000000  0.5616820000000  0.5121750000000 1.0
C      1  0.5202620000000  0.5595580000000  0.6028740000000 1.0
C      1  0.5437740000000  0.5151050000000  0.4548730000000 1.0
C      1  0.5693220000000  0.3915960000000  0.5543040000000 1.0
C      1  0.4439750000000  0.4055760000000  0.4949960000000 1.0
C      1  0.5456780000000  0.5388730000000  0.4791170000000 1.0
C      1  0.4442280000000  0.5710610000000  0.5591950000000 1.0
C      1  0.5444510000000  0.5949250000000  0.5153150000000 1.0
C      1  0.4955010000000  0.5698620000000  0.5541240000000 1.0
C      1  0.4700650000000  0.4786710000000  0.5776340000000 1.0
C      1  0.5134600000000  0.4229960000000  0.4690550000000 1.0
C      1  0.4884340000000  0.4717370000000  0.5264970000000 1.0
C      1  0.4233800000000  0.5036600000000  0.4555820000000 1.0
C      1  0.5711090000000  0.4705810000000  0.5818140000000 1.0
C      1  0.5263960000000  0.3984830000000  0.5283990000000 1.0
C      1  0.4544070000000  0.5167110000000  0.4769650000000 1.0
C      1  0.5765800000000  0.5238640000000  0.4530500000000 1.0
C      1  0.4486440000000  0.4757050000000  0.4238260000000 1.0
C      1  0.4655020000000  0.4758240000000  0.5028080000000 1.0
C      1  0.3979500000000  0.4648080000000  0.5289980000000 1.0
C      1  0.4854430000000  0.3961050000000  0.4596400000000 1.0
C      1  0.4060800000000  0.4800460000000  0.5566350000000 1.0
C      1  0.4831920000000  0.4374890000000  0.4635600000000 1.0
C      1  0.4664860000000  0.4414720000000  0.5636930000000 1.0
C      1  0.5412230000000  0.4853490000000  0.5885070000000 1.0
C      1  0.5970220000000  0.5037510000000  0.4700420000000 1.0
C      1  0.4314430000000  0.4256930000000  0.5192520000000 1.0
C      1  0.4652530000000  0.5357060000000  0.4509330000000 1.0
C      1  0.5050910000000  0.4618350000000  0.4727560000000 1.0
C      1  0.5360330000000  0.5603160000000  0.4388660000000 1.0
C      1  0.4302570000000  0.5267290000000  0.5660660000000 1.0
C      1  0.4677680000000  0.5602660000000  0.5369540000000 1.0
C      1  0.5741950000000  0.5748630000000  0.4607550000000 1.0
C      1  0.5575560000000  0.4344240000000  0.4610990000000 1.0
C      1  0.5359520000000  0.5336440000000  0.6091660000000 1.0
C      1  0.4543200000000  0.4493970000000  0.4895000000000 1.0
C      1  0.4798380000000  0.4421910000000  0.5336540000000 1.0
C      1  0.5125330000000  0.5438910000000  0.4848340000000 1.0
C      1  0.4956730000000  0.3785090000000  0.4804080000000 1.0
C      1  0.5692840000000  0.5052830000000  0.5469470000000 1.0
C      1  0.4671040000000  0.5994280000000  0.5302280000000 1.0
C      1  0.4258870000000  0.5357370000000  0.4445500000000 1.0
C      1  0.4605550000000  0.4087320000000  0.5245140000000 1.0
C      1  0.5833060000000  0.4597560000000  0.5035430000000 1.0
C      1  0.5424320000000  0.4580980000000  0.5207500000000 1.0
C      1  0.5814930000000  0.4516500000000  0.5354030000000 1.0
C      1  0.5939780000000  0.4784480000000  0.4474640000000 1.0
C      1  0.5841130000000  0.4662400000000  0.4745640000000 1.0
C      1  0.4089980000000  0.4342070000000  0.4613590000000 1.0
C      1  0.5414820000000  0.4109540000000  0.4750510000000 1.0
C      1  0.4558810000000  0.4947540000000  0.4510470000000 1.0
C      1  0.4015620000000  0.4566440000000  0.4807260000000 1.0
C      1  0.4205280000000  0.5610860000000  0.5483280000000 1.0
C      1  0.5734250000000  0.5107470000000  0.4935020000000 1.0
C      1  0.4663190000000  0.4557520000000  0.4451770000000 1.0
C      1  0.4490650000000  0.5048440000000  0.4061430000000 1.0
C      1  0.4675420000000  0.5662880000000  0.5834810000000 1.0
C      1  0.4915710000000  0.5094860000000  0.3847490000000 1.0
C      1  0.5478500000000  0.4465420000000  0.4913920000000 1.0
C      1  0.4372890000000  0.4530850000000  0.4613880000000 1.0
C      1  0.3867890000000  0.4827120000000  0.4835790000000 1.0
C      1  0.5731510000000  0.5516400000000  0.4815410000000 1.0
C      1  0.5791690000000  0.5259240000000  0.5217980000000 1.0
C      1  0.6025160000000  0.5380970000000  0.4926640000000 1.0
C      1  0.6021690000000  0.4936740000000  0.5251470000000 1.0
C      1  0.5238910000000  0.4866220000000  0.4105850000000 1.0
C      1  0.4743410000000  0.5253350000000  0.5104810000000 1.0
C      1  0.4232020000000  0.5586370000000  0.4986800000000 1.0
C      1  0.4535550000000  0.4572330000000  0.3957000000000 1.0
C      1  0.5184450000000  0.4650670000000  0.5389810000000 1.0
C      1  0.5073270000000  0.5447470000000  0.5681680000000 1.0
C      1  0.4969880000000  0.4161000000000  0.4938110000000 1.0
C      1  0.5702380000000  0.4298100000000  0.5107620000000 1.0
C      1  0.4396070000000  0.5869460000000  0.4858370000000 1.0
C      1  0.4832550000000  0.4488570000000  0.4099850000000 1.0
C      1  0.5073370000000  0.4799820000000  0.5001130000000 1.0
C      1  0.4821910000000  0.5099390000000  0.4364080000000 1.0
C      1  0.5688460000000  0.5090230000000  0.4044230000000 1.0
C      1  0.4914320000000  0.5979780000000  0.4885580000000 1.0
C      1  0.4859530000000  0.4549680000000  0.5848430000000 1.0
C      1  0.3804690000000  0.4857760000000  0.5134000000000 1.0
C      1  0.5357140000000  0.5164830000000  0.4014570000000 1.0
C      1  0.4476720000000  0.5887140000000  0.4398930000000 1.0
C      1  0.4415300000000  0.4585270000000  0.5581590000000 1.0
C      1  0.4717390000000  0.4836800000000  0.3922140000000 1.0
C      1  0.4457950000000  0.5765610000000  0.5167410000000 1.0
C      1  0.5640130000000  0.5980750000000  0.4703140000000 1.0
C      1  0.4379360000000  0.4222530000000  0.4468690000000 1.0
C      1  0.4693050000000  0.5782070000000  0.4717700000000 1.0
C      1  0.4215040000000  0.4711880000000  0.5811580000000 1.0
C      1  0.5179660000000  0.4472560000000  0.5621550000000 1.0
C      1  0.4440500000000  0.5613620000000  0.4564270000000 1.0
C      1  0.4497390000000  0.4847550000000  0.5402650000000 1.0
C      1  0.5073340000000  0.3912650000000  0.5054170000000 1.0
C      1  0.4784280000000  0.5181050000000  0.6032400000000 1.0
C      1  0.5424080000000  0.4870290000000  0.4373250000000 1.0
C      1  0.4497490000000  0.5309820000000  0.4207840000000 1.0
C      1  0.5171210000000  0.5826640000000  0.5312090000000 1.0
C      1  0.5881130000000  0.5165110000000  0.5727880000000 1.0
C      1  0.4924010000000  0.5553330000000  0.4451180000000 1.0
C      1  0.5471450000000  0.4990640000000  0.4828040000000 1.0
C      1  0.4598380000000  0.4131370000000  0.4689500000000 1.0
C      1  0.3929590000000  0.5080130000000  0.4701400000000 1.0
C      1  0.5040740000000  0.5212730000000  0.4129790000000 1.0
C      1  0.5872570000000  0.4768530000000  0.5520190000000 1.0
C      1  0.4611800000000  0.5369320000000  0.5707930000000 1.0
C      1  0.5155100000000  0.4649900000000  0.5898820000000 1.0
C      1  0.4219150000000  0.5042230000000  0.5419790000000 1.0
C      1  0.4706390000000  0.5919530000000  0.5611890000000 1.0
C      1  0.5042430000000  0.4956060000000  0.5996930000000 1.0
C      1  0.5536700000000  0.4721270000000  0.4726860000000 1.0
C      1  0.4449100000000  0.5342710000000  0.5046100000000 1.0
C      1  0.5349300000000  0.4158070000000  0.5781280000000 1.0
C      1  0.4772240000000  0.5920430000000  0.4409380000000 1.0
C      1  0.4945420000000  0.4855100000000  0.4550060000000 1.0
C      1  0.4737520000000  0.4303600000000  0.5045090000000 1.0
C      1  0.5491220000000  0.4466900000000  0.5772200000000 1.0
C      1  0.5255500000000  0.5951470000000  0.5617000000000 1.0
C      1  0.4786410000000  0.5488410000000  0.4862500000000 1.0
C      1  0.5704760000000  0.4555340000000  0.4385440000000 1.0
C      1  0.4820370000000  0.5013300000000  0.4894710000000 1.0
C      1  0.5352000000000  0.5330120000000  0.5771510000000 1.0
C      1  0.5673420000000  0.5383990000000  0.5691600000000 1.0
C      1  0.6123880000000  0.5087070000000  0.5001230000000 1.0
C      1  0.4943800000000  0.5145370000000  0.5742520000000 1.0
C      1  0.4778570000000  0.4125310000000  0.5523730000000 1.0
C      1  0.5031050000000  0.4122620000000  0.4397640000000 1.0
C      1  0.5671360000000  0.5510240000000  0.4380060000000 1.0
C      1  0.5919980000000  0.4946390000000  0.5894570000000 1.0
C      1  0.4185740000000  0.4538250000000  0.5067110000000 1.0
C      1  0.4923710000000  0.6010050000000  0.5166500000000 1.0
C      1  0.5166400000000  0.5950910000000  0.4769340000000 1.0
END
