TITL C-2847957-7266-141 -0.00122951506222129 125000 -761.203750346513 0 0 140 (C1) n - 1
REM
REM in /home/bkarasulu/work/CARBON/AIRSS/Generating-Clusters/AIREBO/with-SteepDescent/Only-C1/SD-CG-opt/Try1-1.4A-POS3A/HFTN-CG
REM
REM
REM
REM
REM
REM ./C.cell (11c1c37f851c82e70ff6c80c92926a4b)
REM
REM compiler GCC version 9.2.1 20190827 (Red Hat 9.2.1-1)
REM options -cpp -mtune=generic -march=x86-64 -g -O0 -fpre-include=/usr/include/finclude/math-vector-fortran.h
REM seed -2083295316 -87990100 -57823129 896907917 -860316923 -1234552115 57069833 145054104 -1418219424 997804395 -637748534 -1462768047 512217324 -1545207530 -1555854229 -1853213507 -287056135 -350734281 -1561417846 1288713397 687893078 394516464 -854782497 610687478 -1467546709 -640610597 5684544 -1717390863 -1088269373 643705029 -631825841 2073467145 -772114963
REM
CELL 1.54180   50.00000   50.00000   50.00000   90.00000   90.00000   90.00000
LATT -1
SFAC C  
C      1  0.4233520000000  0.4380340000000  0.4905940000000 1.0
C      1  0.4710450000000  0.5376220000000  0.5380660000000 1.0
C      1  0.4977170000000  0.5964440000000  0.4518450000000 1.0
C      1  0.6049260000000  0.5103860000000  0.5140770000000 1.0
C      1  0.4040650000000  0.4646140000000  0.5006300000000 1.0
C      1  0.4248610000000  0.5171790000000  0.4474540000000 1.0
C      1  0.4497380000000  0.4554950000000  0.4974490000000 1.0
C      1  0.4159610000000  0.4925360000000  0.4672510000000 1.0
C      1  0.4891920000000  0.4039900000000  0.5052970000000 1.0
C      1  0.4047430000000  0.5552140000000  0.4843200000000 1.0
C      1  0.4469700000000  0.5123420000000  0.5633870000000 1.0
C      1  0.4261670000000  0.4712880000000  0.5630860000000 1.0
C      1  0.5136200000000  0.4495060000000  0.5247400000000 1.0
C      1  0.5497300000000  0.4966510000000  0.5857540000000 1.0
C      1  0.5398480000000  0.4278840000000  0.5258690000000 1.0
C      1  0.4987140000000  0.5847090000000  0.5589040000000 1.0
C      1  0.4294210000000  0.4644370000000  0.5199370000000 1.0
C      1  0.4594240000000  0.5669530000000  0.5249890000000 1.0
C      1  0.5016910000000  0.4857370000000  0.5646250000000 1.0
C      1  0.5644330000000  0.4825560000000  0.4999260000000 1.0
C      1  0.4365970000000  0.4244530000000  0.5187800000000 1.0
C      1  0.4943450000000  0.5477680000000  0.5864060000000 1.0
C      1  0.4136740000000  0.5117390000000  0.5370860000000 1.0
C      1  0.5843650000000  0.5715480000000  0.5157580000000 1.0
C      1  0.4934760000000  0.4320650000000  0.5679720000000 1.0
C      1  0.4972060000000  0.4643300000000  0.4021490000000 1.0
C      1  0.4262430000000  0.5367820000000  0.5563490000000 1.0
C      1  0.5739990000000  0.5072170000000  0.5125000000000 1.0
C      1  0.5659670000000  0.4184230000000  0.5062580000000 1.0
C      1  0.6043400000000  0.4836440000000  0.4989510000000 1.0
C      1  0.5317470000000  0.4931130000000  0.4573360000000 1.0
C      1  0.4630610000000  0.4867960000000  0.4247600000000 1.0
C      1  0.5262200000000  0.4784550000000  0.5870170000000 1.0
C      1  0.5209950000000  0.4980800000000  0.5125470000000 1.0
C      1  0.4831620000000  0.4867560000000  0.5020640000000 1.0
C      1  0.5539960000000  0.5305140000000  0.4255370000000 1.0
C      1  0.5610060000000  0.5402910000000  0.5443940000000 1.0
C      1  0.5154930000000  0.5562830000000  0.5611820000000 1.0
C      1  0.4799260000000  0.5884360000000  0.4740360000000 1.0
C      1  0.5008120000000  0.4553430000000  0.5903080000000 1.0
C      1  0.5873950000000  0.5383060000000  0.4765860000000 1.0
C      1  0.4713980000000  0.5421990000000  0.4833500000000 1.0
C      1  0.4456280000000  0.5240870000000  0.4962730000000 1.0
C      1  0.5693790000000  0.4488560000000  0.4390280000000 1.0
C      1  0.5782990000000  0.4721000000000  0.5417120000000 1.0
C      1  0.4781620000000  0.4464710000000  0.4198400000000 1.0
C      1  0.4693070000000  0.5685170000000  0.4455550000000 1.0
C      1  0.5282650000000  0.5165030000000  0.4892050000000 1.0
C      1  0.5402360000000  0.5478210000000  0.5189930000000 1.0
C      1  0.4465560000000  0.5156750000000  0.5293700000000 1.0
C      1  0.5279100000000  0.4686320000000  0.5036730000000 1.0
C      1  0.5836230000000  0.4724900000000  0.4414400000000 1.0
C      1  0.5434230000000  0.5439560000000  0.5691400000000 1.0
C      1  0.4758360000000  0.5595720000000  0.5635870000000 1.0
C      1  0.3997050000000  0.5134370000000  0.5092080000000 1.0
C      1  0.5230950000000  0.5451700000000  0.4266670000000 1.0
C      1  0.4895160000000  0.5370660000000  0.5095260000000 1.0
C      1  0.5384130000000  0.4206390000000  0.5575480000000 1.0
C      1  0.4751210000000  0.4701760000000  0.5736880000000 1.0
C      1  0.5527620000000  0.4548220000000  0.4843760000000 1.0
C      1  0.5661260000000  0.5626890000000  0.4867850000000 1.0
C      1  0.4966770000000  0.5491320000000  0.4629310000000 1.0
C      1  0.5196890000000  0.4621380000000  0.4555280000000 1.0
C      1  0.5502530000000  0.5664190000000  0.4598660000000 1.0
C      1  0.5597710000000  0.5907930000000  0.5048430000000 1.0
C      1  0.4220680000000  0.5305540000000  0.4771490000000 1.0
C      1  0.5206790000000  0.4022120000000  0.5114830000000 1.0
C      1  0.4565580000000  0.4852670000000  0.5232050000000 1.0
C      1  0.4424480000000  0.5851590000000  0.5025970000000 1.0
C      1  0.5367790000000  0.4925750000000  0.5385890000000 1.0
C      1  0.4475680000000  0.4862530000000  0.5731350000000 1.0
C      1  0.5806150000000  0.4423490000000  0.4994040000000 1.0
C      1  0.4261100000000  0.5493900000000  0.4243410000000 1.0
C      1  0.4891740000000  0.5494040000000  0.4255200000000 1.0
C      1  0.4573730000000  0.4063520000000  0.5152920000000 1.0
C      1  0.5155430000000  0.5264520000000  0.6017720000000 1.0
C      1  0.5299950000000  0.4466970000000  0.5751280000000 1.0
C      1  0.4664220000000  0.4662690000000  0.4720820000000 1.0
C      1  0.4772520000000  0.4984530000000  0.3991370000000 1.0
C      1  0.5118980000000  0.5438280000000  0.5327700000000 1.0
C      1  0.5184080000000  0.5668570000000  0.5011100000000 1.0
C      1  0.5142410000000  0.4067560000000  0.4504590000000 1.0
C      1  0.5880520000000  0.5518630000000  0.5344430000000 1.0
C      1  0.5542660000000  0.4600840000000  0.5233850000000 1.0
C      1  0.5364270000000  0.4147900000000  0.4642720000000 1.0
C      1  0.5155270000000  0.6125850000000  0.5167470000000 1.0
C      1  0.5329610000000  0.5944940000000  0.5063870000000 1.0
C      1  0.4864090000000  0.4437120000000  0.5411570000000 1.0
C      1  0.5933030000000  0.4809070000000  0.4723010000000 1.0
C      1  0.4902890000000  0.5142020000000  0.5541730000000 1.0
C      1  0.5588470000000  0.5612130000000  0.4344460000000 1.0
C      1  0.5681140000000  0.4908930000000  0.5645490000000 1.0
C      1  0.5410260000000  0.5238920000000  0.5892500000000 1.0
C      1  0.5121150000000  0.4118660000000  0.5671770000000 1.0
C      1  0.4526290000000  0.5693620000000  0.4751800000000 1.0
C      1  0.5647320000000  0.4998690000000  0.4356640000000 1.0
C      1  0.4861740000000  0.4190840000000  0.4574070000000 1.0
C      1  0.4937810000000  0.5185960000000  0.4209790000000 1.0
C      1  0.5268020000000  0.5468460000000  0.4748030000000 1.0
C      1  0.4941980000000  0.5086890000000  0.5232010000000 1.0
C      1  0.4005240000000  0.4913930000000  0.4907810000000 1.0
C      1  0.5621120000000  0.5098330000000  0.5396150000000 1.0
C      1  0.4483110000000  0.5417960000000  0.4466410000000 1.0
C      1  0.5945160000000  0.4618920000000  0.5160370000000 1.0
C      1  0.5609180000000  0.4904100000000  0.4681640000000 1.0
C      1  0.5249640000000  0.4661320000000  0.5494580000000 1.0
C      1  0.4998200000000  0.4332190000000  0.4982730000000 1.0
C      1  0.5584110000000  0.5308090000000  0.4958290000000 1.0
C      1  0.5447900000000  0.4431370000000  0.4579350000000 1.0
C      1  0.6095350000000  0.5330670000000  0.5306490000000 1.0
C      1  0.4312560000000  0.4435960000000  0.5455670000000 1.0
C      1  0.4737680000000  0.3993820000000  0.4780610000000 1.0
C      1  0.4056500000000  0.4872290000000  0.5545320000000 1.0
C      1  0.4566640000000  0.4964800000000  0.4842540000000 1.0
C      1  0.4586130000000  0.4333560000000  0.4432910000000 1.0
C      1  0.4469800000000  0.3970530000000  0.4738520000000 1.0
C      1  0.4772980000000  0.4540690000000  0.5093560000000 1.0
C      1  0.5371110000000  0.4970790000000  0.4180830000000 1.0
C      1  0.5108620000000  0.4948570000000  0.4028130000000 1.0
C      1  0.4974300000000  0.4693500000000  0.4354430000000 1.0
C      1  0.4657890000000  0.5889210000000  0.5501500000000 1.0
C      1  0.4858620000000  0.5764100000000  0.5053130000000 1.0
C      1  0.5420290000000  0.4076970000000  0.4914090000000 1.0
C      1  0.4921050000000  0.4495650000000  0.4697550000000 1.0
C      1  0.4852700000000  0.4986790000000  0.4476090000000 1.0
C      1  0.4223050000000  0.5684590000000  0.4644890000000 1.0
C      1  0.4883850000000  0.5153370000000  0.5875620000000 1.0
C      1  0.4462610000000  0.4619830000000  0.4378070000000 1.0
C      1  0.6078840000000  0.5361190000000  0.4616460000000 1.0
C      1  0.4305800000000  0.4913620000000  0.4300960000000 1.0
C      1  0.4335740000000  0.4710860000000  0.4646840000000 1.0
C      1  0.5314760000000  0.5238910000000  0.4501350000000 1.0
C      1  0.4602650000000  0.4613120000000  0.5447850000000 1.0
C      1  0.4357670000000  0.4212270000000  0.4654250000000 1.0
C      1  0.4633040000000  0.5178430000000  0.4610420000000 1.0
C      1  0.5089160000000  0.5720560000000  0.4414320000000 1.0
C      1  0.5038630000000  0.4962890000000  0.4765390000000 1.0
C      1  0.4287360000000  0.5541570000000  0.5324220000000 1.0
C      1  0.4093750000000  0.5438330000000  0.5124030000000 1.0
C      1  0.4911460000000  0.5985840000000  0.5296620000000 1.0
END
