TITL C-2847950-6905-717 0.00173177782854849 125000 -619.4017991654 0 0 120 (C1) n - 1
REM
REM in /home/bkarasulu/work/CARBON/AIRSS/Generating-Clusters/AIREBO/with-SteepDescent/Only-C1/SD-CG-opt/Try1-1.4A-POS3A/HFTN-CG
REM
REM
REM
REM
REM
REM ./C.cell (11c1c37f851c82e70ff6c80c92926a4b)
REM
REM compiler GCC version 9.2.1 20190827 (Red Hat 9.2.1-1)
REM options -cpp -mtune=generic -march=x86-64 -g -O0 -fpre-include=/usr/include/finclude/math-vector-fortran.h
REM seed 996647391 -656709123 -491223214 -963106137 872034411 756046365 1998958076 1207539140 -936931327 -737424829 69272242 400538893 785752217 305328232 1765730388 -1645285905 -1236574554 -1673769695 181943095 719856073 1121325400 1663898599 948215812 588658897 1495887413 204871274 -415166416 -787464901 1824075143 -204679912 1552871237 -1007951029 -1485274945
REM
CELL 1.54180   50.00000   50.00000   50.00000   90.00000   90.00000   90.00000
LATT -1
SFAC C  
C      1  0.4146770000000  0.4483750000000  0.5337930000000 1.0
C      1  0.4626920000000  0.5235900000000  0.5274100000000 1.0
C      1  0.5658280000000  0.5500160000000  0.5466280000000 1.0
C      1  0.4355500000000  0.5089750000000  0.4338990000000 1.0
C      1  0.5738830000000  0.4676130000000  0.5338040000000 1.0
C      1  0.4358030000000  0.4969580000000  0.4657600000000 1.0
C      1  0.5520830000000  0.5364990000000  0.4384780000000 1.0
C      1  0.5327620000000  0.4236290000000  0.4593800000000 1.0
C      1  0.5441620000000  0.4791480000000  0.4691450000000 1.0
C      1  0.5077170000000  0.4459210000000  0.4285020000000 1.0
C      1  0.5116220000000  0.3968760000000  0.5526010000000 1.0
C      1  0.4562570000000  0.4471420000000  0.4641690000000 1.0
C      1  0.5896480000000  0.4579140000000  0.5055060000000 1.0
C      1  0.5193530000000  0.5456660000000  0.4375140000000 1.0
C      1  0.5726900000000  0.5393040000000  0.5721260000000 1.0
C      1  0.4785610000000  0.4472930000000  0.5077320000000 1.0
C      1  0.4894100000000  0.5236720000000  0.4110930000000 1.0
C      1  0.4471900000000  0.5219360000000  0.4983210000000 1.0
C      1  0.4168670000000  0.4739750000000  0.5428370000000 1.0
C      1  0.4457890000000  0.4550340000000  0.5095880000000 1.0
C      1  0.5808840000000  0.4726190000000  0.4550640000000 1.0
C      1  0.5132940000000  0.4789870000000  0.4548640000000 1.0
C      1  0.4849090000000  0.4927370000000  0.5760000000000 1.0
C      1  0.5531450000000  0.5116720000000  0.4160670000000 1.0
C      1  0.4848830000000  0.5063130000000  0.4399860000000 1.0
C      1  0.4350730000000  0.4367460000000  0.4829910000000 1.0
C      1  0.5134240000000  0.4850600000000  0.5011300000000 1.0
C      1  0.4294660000000  0.5522050000000  0.5573960000000 1.0
C      1  0.4603970000000  0.5770930000000  0.5537440000000 1.0
C      1  0.5582500000000  0.5635160000000  0.4671590000000 1.0
C      1  0.5222670000000  0.5427390000000  0.5954220000000 1.0
C      1  0.4836490000000  0.4186450000000  0.5186500000000 1.0
C      1  0.5335430000000  0.4755650000000  0.5341320000000 1.0
C      1  0.4971280000000  0.4656380000000  0.5218190000000 1.0
C      1  0.5712930000000  0.4961390000000  0.4402860000000 1.0
C      1  0.5823970000000  0.5131230000000  0.5729110000000 1.0
C      1  0.5404210000000  0.4488040000000  0.5734920000000 1.0
C      1  0.5035450000000  0.5242540000000  0.5503670000000 1.0
C      1  0.5082100000000  0.4589130000000  0.4800090000000 1.0
C      1  0.4395730000000  0.5658590000000  0.4525360000000 1.0
C      1  0.4696560000000  0.5470020000000  0.5782490000000 1.0
C      1  0.4121930000000  0.4596420000000  0.4883880000000 1.0
C      1  0.4663800000000  0.4912400000000  0.4613460000000 1.0
C      1  0.5224540000000  0.5260960000000  0.4098660000000 1.0
C      1  0.4115650000000  0.5307560000000  0.5131750000000 1.0
C      1  0.4897250000000  0.4731330000000  0.5541690000000 1.0
C      1  0.4891000000000  0.5610860000000  0.4355530000000 1.0
C      1  0.5293660000000  0.5047380000000  0.4819890000000 1.0
C      1  0.4982640000000  0.4203170000000  0.5448320000000 1.0
C      1  0.4328380000000  0.4846520000000  0.4974020000000 1.0
C      1  0.5444060000000  0.5825740000000  0.4573070000000 1.0
C      1  0.5092220000000  0.4473380000000  0.5718010000000 1.0
C      1  0.5431750000000  0.3912330000000  0.5010420000000 1.0
C      1  0.4324460000000  0.4272270000000  0.5239130000000 1.0
C      1  0.5090850000000  0.5458020000000  0.5732820000000 1.0
C      1  0.5926790000000  0.5398430000000  0.4742140000000 1.0
C      1  0.5384430000000  0.4467870000000  0.4912570000000 1.0
C      1  0.4254690000000  0.5254970000000  0.5417620000000 1.0
C      1  0.4550170000000  0.4160900000000  0.5004840000000 1.0
C      1  0.5153630000000  0.4933290000000  0.4034690000000 1.0
C      1  0.4580290000000  0.4518170000000  0.5657480000000 1.0
C      1  0.4798440000000  0.4347210000000  0.5695630000000 1.0
C      1  0.4929640000000  0.5908410000000  0.4768130000000 1.0
C      1  0.5678050000000  0.4952280000000  0.4875550000000 1.0
C      1  0.5447190000000  0.5268950000000  0.5172320000000 1.0
C      1  0.5817980000000  0.5379440000000  0.5266110000000 1.0
C      1  0.4459080000000  0.4785820000000  0.5973260000000 1.0
C      1  0.4650200000000  0.4731120000000  0.4135640000000 1.0
C      1  0.4420740000000  0.5717460000000  0.4815790000000 1.0
C      1  0.4299670000000  0.5512700000000  0.4984330000000 1.0
C      1  0.5413110000000  0.5364210000000  0.4788280000000 1.0
C      1  0.5972180000000  0.4790550000000  0.4821120000000 1.0
C      1  0.4907750000000  0.5702210000000  0.5651710000000 1.0
C      1  0.4436120000000  0.4860430000000  0.4144100000000 1.0
C      1  0.5671400000000  0.5198250000000  0.4640600000000 1.0
C      1  0.4751900000000  0.4668970000000  0.4819190000000 1.0
C      1  0.5147440000000  0.5524750000000  0.4819610000000 1.0
C      1  0.5791790000000  0.5076500000000  0.5171000000000 1.0
C      1  0.4490160000000  0.5046490000000  0.5520590000000 1.0
C      1  0.5259230000000  0.4618090000000  0.4062250000000 1.0
C      1  0.4952550000000  0.4777790000000  0.4260540000000 1.0
C      1  0.4749040000000  0.5662970000000  0.5146090000000 1.0
C      1  0.4836500000000  0.4149330000000  0.4821150000000 1.0
C      1  0.4654510000000  0.4935260000000  0.5012310000000 1.0
C      1  0.5178720000000  0.4483810000000  0.5405140000000 1.0
C      1  0.4847740000000  0.5469130000000  0.4884100000000 1.0
C      1  0.5520500000000  0.5010450000000  0.5352010000000 1.0
C      1  0.4413370000000  0.5289370000000  0.4677470000000 1.0
C      1  0.4680010000000  0.5478440000000  0.4586440000000 1.0
C      1  0.4921510000000  0.5221080000000  0.5104850000000 1.0
C      1  0.4617180000000  0.5294240000000  0.4307530000000 1.0
C      1  0.4727700000000  0.4848140000000  0.5992720000000 1.0
C      1  0.4679990000000  0.5830680000000  0.4889790000000 1.0
C      1  0.5698870000000  0.4506850000000  0.4787900000000 1.0
C      1  0.5145490000000  0.5737490000000  0.4561270000000 1.0
C      1  0.4245950000000  0.5405860000000  0.4405440000000 1.0
C      1  0.4432000000000  0.5531390000000  0.5809670000000 1.0
C      1  0.5318520000000  0.5010690000000  0.4389530000000 1.0
C      1  0.5107360000000  0.5198380000000  0.4578860000000 1.0
C      1  0.4177170000000  0.4984210000000  0.5231220000000 1.0
C      1  0.5772120000000  0.4943360000000  0.5546240000000 1.0
C      1  0.5690320000000  0.5408960000000  0.4980010000000 1.0
C      1  0.5483190000000  0.4496820000000  0.4526840000000 1.0
C      1  0.5527360000000  0.4722360000000  0.5075830000000 1.0
C      1  0.5208330000000  0.5806930000000  0.5234670000000 1.0
C      1  0.4606730000000  0.4660770000000  0.5379450000000 1.0
C      1  0.5018440000000  0.4326930000000  0.4592840000000 1.0
C      1  0.5169830000000  0.5410090000000  0.5240100000000 1.0
C      1  0.4953450000000  0.5771420000000  0.5344250000000 1.0
C      1  0.4711840000000  0.4344980000000  0.4446970000000 1.0
C      1  0.4518410000000  0.5536750000000  0.5318240000000 1.0
C      1  0.5412350000000  0.5611280000000  0.5368690000000 1.0
C      1  0.4758840000000  0.5203900000000  0.5651600000000 1.0
C      1  0.4881910000000  0.5073720000000  0.4800800000000 1.0
C      1  0.5123300000000  0.5017150000000  0.5294170000000 1.0
C      1  0.5190240000000  0.5821270000000  0.4949710000000 1.0
C      1  0.5591360000000  0.4515870000000  0.5572830000000 1.0
C      1  0.5427800000000  0.4704750000000  0.4296380000000 1.0
C      1  0.4366200000000  0.4782350000000  0.5668490000000 1.0
C      1  0.5409590000000  0.4137300000000  0.4867050000000 1.0
END
