TITL C-2847945-6269-643 -0.00107452633186354 125000 -818.171441336698 0 0 148 (C1) n - 1
REM
REM in /home/bkarasulu/work/CARBON/AIRSS/Generating-Clusters/AIREBO/with-SteepDescent/Only-C1/SD-CG-opt/Try1-1.4A-POS3A/HFTN-CG
REM
REM
REM
REM
REM
REM ./C.cell (11c1c37f851c82e70ff6c80c92926a4b)
REM
REM compiler GCC version 9.2.1 20190827 (Red Hat 9.2.1-1)
REM options -cpp -mtune=generic -march=x86-64 -g -O0 -fpre-include=/usr/include/finclude/math-vector-fortran.h
REM seed 1586332486 -1633026816 -129922681 332782839 -1142635419 1632115040 76834418 271866137 517592875 -1434941220 1643510179 707151659 -1398341490 -2090650026 809447603 -1393664852 353463571 626406907 1829517953 -91549527 841286366 -1686339095 -1583799748 -547882372 -552776556 1788312135 1946272990 2001540746 -1146219849 818182012 74543387 310962928 -999295739
REM
CELL 1.54180   50.00000   50.00000   50.00000   90.00000   90.00000   90.00000
LATT -1
SFAC C  
C      1  0.4696830000000  0.4634010000000  0.5705670000000 1.0
C      1  0.4958600000000  0.5306580000000  0.5355850000000 1.0
C      1  0.5740840000000  0.4728850000000  0.5318460000000 1.0
C      1  0.5062230000000  0.5354430000000  0.5891660000000 1.0
C      1  0.4647590000000  0.4883020000000  0.4747090000000 1.0
C      1  0.4743500000000  0.5036140000000  0.4207280000000 1.0
C      1  0.5056540000000  0.4522480000000  0.4739600000000 1.0
C      1  0.5403370000000  0.5620840000000  0.5610190000000 1.0
C      1  0.4973550000000  0.4057910000000  0.4664490000000 1.0
C      1  0.5220440000000  0.5478380000000  0.4487300000000 1.0
C      1  0.4452450000000  0.5738000000000  0.5525550000000 1.0
C      1  0.5732380000000  0.4379270000000  0.5009970000000 1.0
C      1  0.5212180000000  0.5456330000000  0.5048310000000 1.0
C      1  0.4188050000000  0.5268610000000  0.5231580000000 1.0
C      1  0.5675180000000  0.5329600000000  0.5016180000000 1.0
C      1  0.4885980000000  0.4881440000000  0.6068410000000 1.0
C      1  0.4261630000000  0.4358080000000  0.5463850000000 1.0
C      1  0.4933550000000  0.4778240000000  0.4865380000000 1.0
C      1  0.5141090000000  0.4726380000000  0.5805330000000 1.0
C      1  0.5702120000000  0.4450740000000  0.4439150000000 1.0
C      1  0.4783210000000  0.4145860000000  0.5570250000000 1.0
C      1  0.5270920000000  0.5786910000000  0.4639300000000 1.0
C      1  0.3981560000000  0.4918040000000  0.4842310000000 1.0
C      1  0.4364990000000  0.5673820000000  0.5203270000000 1.0
C      1  0.5795550000000  0.4696670000000  0.4776060000000 1.0
C      1  0.5076390000000  0.4337470000000  0.4987510000000 1.0
C      1  0.4397160000000  0.4844370000000  0.5400290000000 1.0
C      1  0.5114610000000  0.5050400000000  0.6036330000000 1.0
C      1  0.4927820000000  0.4561680000000  0.4101990000000 1.0
C      1  0.4307610000000  0.5241060000000  0.4163810000000 1.0
C      1  0.4259400000000  0.4980150000000  0.5120660000000 1.0
C      1  0.5888750000000  0.5251670000000  0.5265670000000 1.0
C      1  0.5228360000000  0.5472220000000  0.4156180000000 1.0
C      1  0.5303410000000  0.4842890000000  0.4733530000000 1.0
C      1  0.5059440000000  0.5249000000000  0.4640560000000 1.0
C      1  0.5621930000000  0.5328300000000  0.5451600000000 1.0
C      1  0.4280160000000  0.5016900000000  0.5668830000000 1.0
C      1  0.4565970000000  0.5675570000000  0.4352930000000 1.0
C      1  0.4791160000000  0.5102090000000  0.4526760000000 1.0
C      1  0.5266260000000  0.4554400000000  0.5105400000000 1.0
C      1  0.5675910000000  0.5181090000000  0.4273100000000 1.0
C      1  0.5936560000000  0.4884330000000  0.4535700000000 1.0
C      1  0.4611330000000  0.5110920000000  0.5374430000000 1.0
C      1  0.5632820000000  0.4417360000000  0.5290090000000 1.0
C      1  0.4483170000000  0.4217020000000  0.4986080000000 1.0
C      1  0.4479380000000  0.4267310000000  0.4592870000000 1.0
C      1  0.5511700000000  0.5155220000000  0.5793930000000 1.0
C      1  0.4961990000000  0.6130180000000  0.4852920000000 1.0
C      1  0.4701180000000  0.4743810000000  0.4375960000000 1.0
C      1  0.4541840000000  0.4500660000000  0.4973110000000 1.0
C      1  0.5892390000000  0.5485660000000  0.4806170000000 1.0
C      1  0.5108880000000  0.4961960000000  0.5560910000000 1.0
C      1  0.5024420000000  0.4784660000000  0.4338520000000 1.0
C      1  0.4905370000000  0.4570090000000  0.5455480000000 1.0
C      1  0.4593820000000  0.4564160000000  0.4641940000000 1.0
C      1  0.4276630000000  0.5336040000000  0.4940390000000 1.0
C      1  0.4560220000000  0.5409680000000  0.5291420000000 1.0
C      1  0.5547020000000  0.4384900000000  0.4723650000000 1.0
C      1  0.5386240000000  0.5189500000000  0.4158410000000 1.0
C      1  0.4567820000000  0.4323630000000  0.5429290000000 1.0
C      1  0.5618560000000  0.5782760000000  0.4834220000000 1.0
C      1  0.4798620000000  0.3985340000000  0.5061630000000 1.0
C      1  0.4264920000000  0.5639550000000  0.4879780000000 1.0
C      1  0.4355330000000  0.5708450000000  0.4620160000000 1.0
C      1  0.4595400000000  0.4956260000000  0.5074310000000 1.0
C      1  0.5890690000000  0.5017800000000  0.4833850000000 1.0
C      1  0.5315400000000  0.4907930000000  0.4003430000000 1.0
C      1  0.4595500000000  0.5901130000000  0.5090520000000 1.0
C      1  0.5645120000000  0.5195150000000  0.4704150000000 1.0
C      1  0.4840440000000  0.5132310000000  0.5605540000000 1.0
C      1  0.4709200000000  0.5540430000000  0.4700420000000 1.0
C      1  0.5724610000000  0.5041950000000  0.5563910000000 1.0
C      1  0.4172750000000  0.4595940000000  0.5453090000000 1.0
C      1  0.5212470000000  0.4396550000000  0.4018690000000 1.0
C      1  0.5361160000000  0.5385340000000  0.5797170000000 1.0
C      1  0.5381580000000  0.5165520000000  0.5097110000000 1.0
C      1  0.3851140000000  0.4666520000000  0.4777280000000 1.0
C      1  0.4895160000000  0.5512580000000  0.4937380000000 1.0
C      1  0.5229590000000  0.4676490000000  0.5420830000000 1.0
C      1  0.5340960000000  0.5137190000000  0.5433650000000 1.0
C      1  0.4946920000000  0.5555460000000  0.4049350000000 1.0
C      1  0.4431990000000  0.4791860000000  0.4190260000000 1.0
C      1  0.4313960000000  0.4853650000000  0.4810670000000 1.0
C      1  0.5099010000000  0.4300800000000  0.5380150000000 1.0
C      1  0.5292810000000  0.4472870000000  0.4515100000000 1.0
C      1  0.4648780000000  0.5848390000000  0.4625690000000 1.0
C      1  0.4573590000000  0.5268440000000  0.4111490000000 1.0
C      1  0.4860990000000  0.4842910000000  0.3979890000000 1.0
C      1  0.5380020000000  0.4905270000000  0.5920310000000 1.0
C      1  0.4617190000000  0.4618580000000  0.5280580000000 1.0
C      1  0.5996770000000  0.4532670000000  0.4981760000000 1.0
C      1  0.4582060000000  0.5240990000000  0.4930820000000 1.0
C      1  0.4925950000000  0.4283190000000  0.5762890000000 1.0
C      1  0.4887040000000  0.5226830000000  0.5081230000000 1.0
C      1  0.5120920000000  0.4043800000000  0.5153060000000 1.0
C      1  0.5973790000000  0.5510100000000  0.5408960000000 1.0
C      1  0.4702970000000  0.6020060000000  0.4855180000000 1.0
C      1  0.4725590000000  0.5777020000000  0.5566920000000 1.0
C      1  0.4986210000000  0.4251990000000  0.4203850000000 1.0
C      1  0.4101690000000  0.5183970000000  0.4742760000000 1.0
C      1  0.4176400000000  0.4726110000000  0.4554040000000 1.0
C      1  0.4230200000000  0.4891300000000  0.4341690000000 1.0
C      1  0.5146210000000  0.3945450000000  0.4843200000000 1.0
C      1  0.4035480000000  0.4471520000000  0.4612590000000 1.0
C      1  0.4684470000000  0.5524690000000  0.4150880000000 1.0
C      1  0.4763030000000  0.5647550000000  0.5188360000000 1.0
C      1  0.5770270000000  0.4912430000000  0.4314810000000 1.0
C      1  0.5565290000000  0.4879920000000  0.5116980000000 1.0
C      1  0.5187860000000  0.5961200000000  0.4886250000000 1.0
C      1  0.4894770000000  0.4555480000000  0.5965760000000 1.0
C      1  0.5471590000000  0.5772940000000  0.5324840000000 1.0
C      1  0.4090130000000  0.5552940000000  0.5363060000000 1.0
C      1  0.5974660000000  0.4954170000000  0.5350760000000 1.0
C      1  0.5223200000000  0.5876450000000  0.5160400000000 1.0
C      1  0.5394250000000  0.4384910000000  0.5480030000000 1.0
C      1  0.5250680000000  0.5445330000000  0.5377640000000 1.0
C      1  0.4499060000000  0.5486720000000  0.5913350000000 1.0
C      1  0.4668580000000  0.4047220000000  0.4757070000000 1.0
C      1  0.5113890000000  0.5057350000000  0.4917160000000 1.0
C      1  0.5758860000000  0.5420310000000  0.4500320000000 1.0
C      1  0.5196720000000  0.4422580000000  0.5744560000000 1.0
C      1  0.4252950000000  0.5181140000000  0.4470910000000 1.0
C      1  0.5725050000000  0.5653120000000  0.5504990000000 1.0
C      1  0.4207180000000  0.4252650000000  0.4559780000000 1.0
C      1  0.4523560000000  0.4859150000000  0.5778680000000 1.0
C      1  0.5365220000000  0.5739220000000  0.4316110000000 1.0
C      1  0.4534150000000  0.5277670000000  0.4613050000000 1.0
C      1  0.5631570000000  0.4665170000000  0.4277350000000 1.0
C      1  0.4812990000000  0.4284190000000  0.5197040000000 1.0
C      1  0.5068760000000  0.4227860000000  0.4469330000000 1.0
C      1  0.5378130000000  0.5131080000000  0.4628490000000 1.0
C      1  0.4732170000000  0.5295400000000  0.5879350000000 1.0
C      1  0.5509290000000  0.5621650000000  0.5047520000000 1.0
C      1  0.4345420000000  0.5546800000000  0.5697710000000 1.0
C      1  0.5479970000000  0.4668170000000  0.4899450000000 1.0
C      1  0.5314530000000  0.4647850000000  0.4223740000000 1.0
C      1  0.5230750000000  0.5007120000000  0.4376700000000 1.0
C      1  0.4825020000000  0.3929940000000  0.5396290000000 1.0
C      1  0.4663060000000  0.5009520000000  0.5969890000000 1.0
C      1  0.5877080000000  0.4443110000000  0.5777870000000 1.0
C      1  0.4943770000000  0.5521480000000  0.5618920000000 1.0
C      1  0.6029920000000  0.4834110000000  0.5064380000000 1.0
C      1  0.5088550000000  0.4925000000000  0.3849860000000 1.0
C      1  0.5742970000000  0.4598530000000  0.5626310000000 1.0
C      1  0.4216610000000  0.5297550000000  0.5554540000000 1.0
C      1  0.5586970000000  0.5678930000000  0.4552940000000 1.0
C      1  0.5481570000000  0.4801280000000  0.5612440000000 1.0
C      1  0.4998920000000  0.5754740000000  0.5375700000000 1.0
END
