TITL C-2847958-8115-419 -0.000655294719521128 125000 -331.246516326548 0 0 59 (C1) n - 1
REM
REM in /home/bkarasulu/work/CARBON/AIRSS/Generating-Clusters/AIREBO/with-SteepDescent/Only-C1/SD-CG-opt/Try1-1.4A-POS3A/HFTN-CG
REM
REM
REM
REM
REM
REM ./C.cell (11c1c37f851c82e70ff6c80c92926a4b)
REM
REM compiler GCC version 9.2.1 20190827 (Red Hat 9.2.1-1)
REM options -cpp -mtune=generic -march=x86-64 -g -O0 -fpre-include=/usr/include/finclude/math-vector-fortran.h
REM seed -1828344436 -100234930 1315891366 -2048851278 343744962 -417174383 -1174893478 -1999177943 511714501 -1845150830 2073325811 1981129555 1258626140 691902171 340892614 1971386525 914053023 2089681682 -1324102484 44107830 177766640 -1020725256 -1911013512 656359480 1240042159 -2079487734 106612387 85025502 -1867417573 -788698274 -753714833 1299536093 -1961406068
REM
CELL 1.54180   50.00000   50.00000   50.00000   90.00000   90.00000   90.00000
LATT -1
SFAC C  
C      1  0.5076790000000  0.5365000000000  0.4303000000000 1.0
C      1  0.5488160000000  0.4705870000000  0.5453730000000 1.0
C      1  0.4561880000000  0.4820170000000  0.4437610000000 1.0
C      1  0.5517350000000  0.4800520000000  0.4504200000000 1.0
C      1  0.4697140000000  0.5468010000000  0.5062530000000 1.0
C      1  0.4506510000000  0.5172030000000  0.4619010000000 1.0
C      1  0.5058060000000  0.4698560000000  0.4319750000000 1.0
C      1  0.5046580000000  0.4234330000000  0.4940480000000 1.0
C      1  0.5023060000000  0.5113700000000  0.5285940000000 1.0
C      1  0.4522900000000  0.5712420000000  0.4926400000000 1.0
C      1  0.5048100000000  0.5669470000000  0.4774010000000 1.0
C      1  0.5575770000000  0.4672350000000  0.4915170000000 1.0
C      1  0.4917690000000  0.4935860000000  0.5048350000000 1.0
C      1  0.4302970000000  0.4993760000000  0.4825130000000 1.0
C      1  0.5264780000000  0.5440010000000  0.5019690000000 1.0
C      1  0.4480340000000  0.5002310000000  0.5668840000000 1.0
C      1  0.4791090000000  0.5264320000000  0.4453380000000 1.0
C      1  0.4702260000000  0.5001720000000  0.4279110000000 1.0
C      1  0.4508050000000  0.4724560000000  0.5497450000000 1.0
C      1  0.5270270000000  0.5242000000000  0.5656920000000 1.0
C      1  0.4594290000000  0.5458640000000  0.4741210000000 1.0
C      1  0.5257800000000  0.4955220000000  0.5474380000000 1.0
C      1  0.4904110000000  0.4852090000000  0.4143920000000 1.0
C      1  0.5493610000000  0.4923370000000  0.4983000000000 1.0
C      1  0.4516940000000  0.5225850000000  0.5180950000000 1.0
C      1  0.4789670000000  0.4654990000000  0.5094060000000 1.0
C      1  0.5467110000000  0.5054170000000  0.5225210000000 1.0
C      1  0.4842680000000  0.5113420000000  0.5545570000000 1.0
C      1  0.4985870000000  0.5434210000000  0.5176250000000 1.0
C      1  0.5434140000000  0.5424720000000  0.5501360000000 1.0
C      1  0.4914040000000  0.5394330000000  0.4734690000000 1.0
C      1  0.5072280000000  0.4472520000000  0.4572600000000 1.0
C      1  0.4966680000000  0.4381680000000  0.5195190000000 1.0
C      1  0.5100240000000  0.4481520000000  0.5654500000000 1.0
C      1  0.5333680000000  0.5649450000000  0.4784680000000 1.0
C      1  0.5190120000000  0.4850140000000  0.4526480000000 1.0
C      1  0.4679210000000  0.5103470000000  0.4903770000000 1.0
C      1  0.4778070000000  0.5497600000000  0.5611480000000 1.0
C      1  0.4847220000000  0.4468470000000  0.4827460000000 1.0
C      1  0.4777070000000  0.4833250000000  0.5651960000000 1.0
C      1  0.5356150000000  0.5369050000000  0.4387660000000 1.0
C      1  0.5450770000000  0.5596820000000  0.4534250000000 1.0
C      1  0.5158940000000  0.4376490000000  0.5400490000000 1.0
C      1  0.5482190000000  0.4428220000000  0.5046890000000 1.0
C      1  0.5329670000000  0.5034360000000  0.4766290000000 1.0
C      1  0.5000950000000  0.5317950000000  0.5747130000000 1.0
C      1  0.4372540000000  0.4941070000000  0.5095780000000 1.0
C      1  0.5060550000000  0.4749290000000  0.5662010000000 1.0
C      1  0.4893030000000  0.5637390000000  0.5403350000000 1.0
C      1  0.5460980000000  0.5337400000000  0.5229200000000 1.0
C      1  0.5387360000000  0.4535220000000  0.4673460000000 1.0
C      1  0.4745560000000  0.4566140000000  0.4531070000000 1.0
C      1  0.5312170000000  0.4260830000000  0.4862980000000 1.0
C      1  0.4510920000000  0.4723010000000  0.5220470000000 1.0
C      1  0.5416030000000  0.4463310000000  0.5318220000000 1.0
C      1  0.4652870000000  0.4818680000000  0.4742230000000 1.0
C      1  0.4554300000000  0.5269200000000  0.5491820000000 1.0
C      1  0.5088620000000  0.5181200000000  0.4886460000000 1.0
C      1  0.5461820000000  0.5128300000000  0.4480810000000 1.0
END
