TITL C-2848503-6230-2 0.00234045319932703 125000 -1056.51611715385 0 0 192 (C1) n - 1
REM
REM in /home/bkarasulu/work/CARBON/AIRSS/Generating-Clusters/AIREBO/with-SteepDescent/Only-C1/SD-CG-opt/Try1-1.4A-POS3A/HFTN-CG
REM
REM
REM
REM
REM
REM ./C.cell (11c1c37f851c82e70ff6c80c92926a4b)
REM
REM compiler GCC version 9.2.1 20190827 (Red Hat 9.2.1-1)
REM options -cpp -mtune=generic -march=x86-64 -g -O0 -fpre-include=/usr/include/finclude/math-vector-fortran.h
REM seed 519016716 -121425606 684147039 -1037025983 -280490722 507647383 825522253 -359310823 491829610 531119962 394962360 1687434407 -16382531 -1147732985 -11933209 404053000 -1694310996 1665876955 -935313178 -374526856 -32248383 -394043674 -1244613859 -265755768 -1371793231 2064366369 2109842173 671559158 653826363 640211444 -858531109 -2031558147 -666141635
REM
CELL 1.54180   50.00000   50.00000   50.00000   90.00000   90.00000   90.00000
LATT -1
SFAC C  
C      1  0.4987310000000  0.4910460000000  0.4211020000000 1.0
C      1  0.5216680000000  0.4662240000000  0.5612410000000 1.0
C      1  0.6026970000000  0.5340280000000  0.5476600000000 1.0
C      1  0.4067280000000  0.5031010000000  0.5602490000000 1.0
C      1  0.5610500000000  0.4654950000000  0.5546160000000 1.0
C      1  0.5500250000000  0.4927800000000  0.4314250000000 1.0
C      1  0.4491860000000  0.4484820000000  0.5757150000000 1.0
C      1  0.5632870000000  0.4911360000000  0.4858770000000 1.0
C      1  0.4629130000000  0.5675450000000  0.4118620000000 1.0
C      1  0.4016880000000  0.4823680000000  0.5428690000000 1.0
C      1  0.4971130000000  0.4140660000000  0.4389260000000 1.0
C      1  0.4393230000000  0.5586230000000  0.4243070000000 1.0
C      1  0.5042390000000  0.5403060000000  0.6027800000000 1.0
C      1  0.4938600000000  0.5656550000000  0.4860290000000 1.0
C      1  0.4512450000000  0.4637810000000  0.4594630000000 1.0
C      1  0.5194830000000  0.5052350000000  0.5391780000000 1.0
C      1  0.4576860000000  0.4612010000000  0.6044020000000 1.0
C      1  0.5711200000000  0.4425510000000  0.5338520000000 1.0
C      1  0.6053990000000  0.4946620000000  0.4736280000000 1.0
C      1  0.4233150000000  0.4781520000000  0.4891590000000 1.0
C      1  0.3953140000000  0.5281950000000  0.5536140000000 1.0
C      1  0.4589170000000  0.4911700000000  0.4646190000000 1.0
C      1  0.4869150000000  0.4888010000000  0.3892990000000 1.0
C      1  0.5750830000000  0.5421880000000  0.5851430000000 1.0
C      1  0.5582150000000  0.5610500000000  0.5981980000000 1.0
C      1  0.4386690000000  0.4186110000000  0.4855930000000 1.0
C      1  0.5684680000000  0.4559010000000  0.4679750000000 1.0
C      1  0.5986600000000  0.4765260000000  0.5192890000000 1.0
C      1  0.4919700000000  0.4893780000000  0.5288110000000 1.0
C      1  0.5975690000000  0.5069650000000  0.5542250000000 1.0
C      1  0.4474780000000  0.5636210000000  0.4649430000000 1.0
C      1  0.5608010000000  0.4054520000000  0.4788620000000 1.0
C      1  0.4567060000000  0.5284840000000  0.5948420000000 1.0
C      1  0.4541460000000  0.5282890000000  0.4030130000000 1.0
C      1  0.5487900000000  0.5049430000000  0.6048030000000 1.0
C      1  0.4050030000000  0.4817910000000  0.4434480000000 1.0
C      1  0.4458090000000  0.4018270000000  0.5144770000000 1.0
C      1  0.4991800000000  0.4570850000000  0.4229620000000 1.0
C      1  0.4707750000000  0.5256020000000  0.5033010000000 1.0
C      1  0.5881630000000  0.4416390000000  0.4868410000000 1.0
C      1  0.3949690000000  0.5135390000000  0.4558070000000 1.0
C      1  0.3836030000000  0.4701510000000  0.5014570000000 1.0
C      1  0.4379340000000  0.5020430000000  0.5340860000000 1.0
C      1  0.5666340000000  0.4990460000000  0.5546190000000 1.0
C      1  0.5878420000000  0.5537920000000  0.5626540000000 1.0
C      1  0.5428800000000  0.4656450000000  0.6067720000000 1.0
C      1  0.4997420000000  0.3985000000000  0.5371280000000 1.0
C      1  0.5423730000000  0.4232430000000  0.4607020000000 1.0
C      1  0.5505860000000  0.5058710000000  0.5254190000000 1.0
C      1  0.5291210000000  0.4986760000000  0.5681380000000 1.0
C      1  0.5262410000000  0.4464460000000  0.3957050000000 1.0
C      1  0.4316020000000  0.4340110000000  0.5527070000000 1.0
C      1  0.5919760000000  0.5382840000000  0.4435240000000 1.0
C      1  0.5038060000000  0.3942040000000  0.4819260000000 1.0
C      1  0.5275870000000  0.4741280000000  0.4668090000000 1.0
C      1  0.4023570000000  0.4499510000000  0.5081840000000 1.0
C      1  0.5098970000000  0.5364380000000  0.3825300000000 1.0
C      1  0.4824860000000  0.5243640000000  0.6101180000000 1.0
C      1  0.4758400000000  0.3941200000000  0.5130660000000 1.0
C      1  0.4899220000000  0.4224650000000  0.5064620000000 1.0
C      1  0.5432270000000  0.5706370000000  0.5115650000000 1.0
C      1  0.4938020000000  0.5149110000000  0.5592850000000 1.0
C      1  0.4306640000000  0.5041350000000  0.4022350000000 1.0
C      1  0.4201560000000  0.4564730000000  0.5335960000000 1.0
C      1  0.4978800000000  0.5988490000000  0.5078340000000 1.0
C      1  0.5206730000000  0.4870930000000  0.5979610000000 1.0
C      1  0.4803750000000  0.5301390000000  0.4428850000000 1.0
C      1  0.4368940000000  0.4272890000000  0.4526430000000 1.0
C      1  0.5531440000000  0.4639190000000  0.4048690000000 1.0
C      1  0.4384870000000  0.5051950000000  0.5679350000000 1.0
C      1  0.6057320000000  0.5396020000000  0.5204350000000 1.0
C      1  0.4781910000000  0.5457130000000  0.3907390000000 1.0
C      1  0.4136890000000  0.5099210000000  0.4299910000000 1.0
C      1  0.4480820000000  0.4490960000000  0.4290430000000 1.0
C      1  0.4307710000000  0.4754460000000  0.4204940000000 1.0
C      1  0.5000260000000  0.5223620000000  0.4765830000000 1.0
C      1  0.5029820000000  0.5672490000000  0.5185400000000 1.0
C      1  0.4866390000000  0.5793860000000  0.5770650000000 1.0
C      1  0.5379870000000  0.4483920000000  0.4810680000000 1.0
C      1  0.4462720000000  0.4806450000000  0.5120840000000 1.0
C      1  0.5001040000000  0.4659770000000  0.4521140000000 1.0
C      1  0.5343090000000  0.3859900000000  0.5224960000000 1.0
C      1  0.5255200000000  0.5564740000000  0.4874630000000 1.0
C      1  0.5764510000000  0.5669290000000  0.4415580000000 1.0
C      1  0.3970650000000  0.5477750000000  0.4964600000000 1.0
C      1  0.5138070000000  0.5068630000000  0.3816230000000 1.0
C      1  0.5348260000000  0.5712780000000  0.5800540000000 1.0
C      1  0.5321590000000  0.5147860000000  0.4802740000000 1.0
C      1  0.5518330000000  0.4010830000000  0.5043990000000 1.0
C      1  0.5305360000000  0.4030370000000  0.5508290000000 1.0
C      1  0.4164040000000  0.5513030000000  0.5486430000000 1.0
C      1  0.5701170000000  0.5922750000000  0.4475620000000 1.0
C      1  0.5475320000000  0.5258150000000  0.4091930000000 1.0
C      1  0.5433070000000  0.5657730000000  0.5411700000000 1.0
C      1  0.4240360000000  0.5623530000000  0.5109670000000 1.0
C      1  0.5040650000000  0.5277090000000  0.5099210000000 1.0
C      1  0.4934710000000  0.4947100000000  0.5856520000000 1.0
C      1  0.5035190000000  0.5417900000000  0.5408700000000 1.0
C      1  0.4255750000000  0.5286910000000  0.5169520000000 1.0
C      1  0.4724400000000  0.5422160000000  0.4736730000000 1.0
C      1  0.4712080000000  0.5023980000000  0.4376460000000 1.0
C      1  0.6037900000000  0.5181820000000  0.4989150000000 1.0
C      1  0.5237130000000  0.4453910000000  0.5344390000000 1.0
C      1  0.4975110000000  0.5583660000000  0.4472120000000 1.0
C      1  0.5661050000000  0.5160330000000  0.5819180000000 1.0
C      1  0.5062080000000  0.3791550000000  0.5099250000000 1.0
C      1  0.3959950000000  0.4965920000000  0.4831160000000 1.0
C      1  0.4636980000000  0.5539060000000  0.5207730000000 1.0
C      1  0.4686550000000  0.5874680000000  0.5209830000000 1.0
C      1  0.5291620000000  0.5671160000000  0.4553500000000 1.0
C      1  0.4344650000000  0.5093740000000  0.6010170000000 1.0
C      1  0.5708780000000  0.5094080000000  0.4610380000000 1.0
C      1  0.5429970000000  0.5949450000000  0.5570470000000 1.0
C      1  0.4457910000000  0.5876670000000  0.4789600000000 1.0
C      1  0.4413860000000  0.4098430000000  0.5421770000000 1.0
C      1  0.5833080000000  0.4722330000000  0.4184500000000 1.0
C      1  0.5027630000000  0.5959650000000  0.4737580000000 1.0
C      1  0.5165780000000  0.4388350000000  0.5046910000000 1.0
C      1  0.5842740000000  0.4796010000000  0.4516420000000 1.0
C      1  0.5313720000000  0.6075970000000  0.4824770000000 1.0
C      1  0.4204050000000  0.4445850000000  0.4845380000000 1.0
C      1  0.5889240000000  0.4508180000000  0.5140450000000 1.0
C      1  0.5379650000000  0.5314400000000  0.5068340000000 1.0
C      1  0.5799080000000  0.4988640000000  0.5096100000000 1.0
C      1  0.4987230000000  0.4769810000000  0.4988370000000 1.0
C      1  0.5064060000000  0.5673650000000  0.5931980000000 1.0
C      1  0.4397090000000  0.5267130000000  0.4339270000000 1.0
C      1  0.5735150000000  0.5412600000000  0.4719220000000 1.0
C      1  0.3909820000000  0.5518170000000  0.5296720000000 1.0
C      1  0.4210380000000  0.5569810000000  0.4517640000000 1.0
C      1  0.5065080000000  0.5961940000000  0.4399560000000 1.0
C      1  0.5153430000000  0.5206300000000  0.4188570000000 1.0
C      1  0.5290330000000  0.5446220000000  0.5601560000000 1.0
C      1  0.4825800000000  0.5803220000000  0.4269030000000 1.0
C      1  0.5185790000000  0.6031530000000  0.5345860000000 1.0
C      1  0.3859950000000  0.4909140000000  0.5213790000000 1.0
C      1  0.5421600000000  0.4729540000000  0.5269030000000 1.0
C      1  0.5272110000000  0.5252980000000  0.5881430000000 1.0
C      1  0.5106440000000  0.4205530000000  0.4662330000000 1.0
C      1  0.4868260000000  0.4101400000000  0.6003480000000 1.0
C      1  0.6123810000000  0.4862240000000  0.5418910000000 1.0
C      1  0.5876240000000  0.4144820000000  0.4790670000000 1.0
C      1  0.4787970000000  0.5624370000000  0.5500190000000 1.0
C      1  0.4892220000000  0.4752310000000  0.5581060000000 1.0
C      1  0.5650220000000  0.5507010000000  0.4977360000000 1.0
C      1  0.5897680000000  0.5604950000000  0.5132940000000 1.0
C      1  0.5348790000000  0.5182020000000  0.4463120000000 1.0
C      1  0.5295210000000  0.5536150000000  0.4015000000000 1.0
C      1  0.4395080000000  0.4852290000000  0.6170480000000 1.0
C      1  0.5377500000000  0.6003820000000  0.5085020000000 1.0
C      1  0.4898660000000  0.5944370000000  0.5466260000000 1.0
C      1  0.4415330000000  0.5837980000000  0.5061930000000 1.0
C      1  0.5262430000000  0.4253460000000  0.5742820000000 1.0
C      1  0.5247440000000  0.5732080000000  0.4221770000000 1.0
C      1  0.5518090000000  0.5442100000000  0.4479450000000 1.0
C      1  0.4194360000000  0.4577650000000  0.4550250000000 1.0
C      1  0.4681170000000  0.4420940000000  0.4725110000000 1.0
C      1  0.5394740000000  0.4946380000000  0.3982750000000 1.0
C      1  0.4949340000000  0.5432830000000  0.4184890000000 1.0
C      1  0.5439360000000  0.4508780000000  0.5799760000000 1.0
C      1  0.4723840000000  0.4483990000000  0.4135730000000 1.0
C      1  0.5143600000000  0.4216280000000  0.4127020000000 1.0
C      1  0.4629940000000  0.5284670000000  0.5641500000000 1.0
C      1  0.4715850000000  0.4472790000000  0.5501180000000 1.0
C      1  0.4617690000000  0.4362890000000  0.5027990000000 1.0
C      1  0.4336220000000  0.5106790000000  0.4892500000000 1.0
C      1  0.3942360000000  0.5178870000000  0.5093710000000 1.0
C      1  0.5716520000000  0.5754980000000  0.5533920000000 1.0
C      1  0.6096770000000  0.5254980000000  0.4663410000000 1.0
C      1  0.5613990000000  0.4805440000000  0.6249780000000 1.0
C      1  0.5069530000000  0.4620890000000  0.3835090000000 1.0
C      1  0.4572270000000  0.4793390000000  0.5688650000000 1.0
C      1  0.4602630000000  0.4895310000000  0.4104010000000 1.0
C      1  0.5518140000000  0.4602760000000  0.4386540000000 1.0
C      1  0.5455020000000  0.5946950000000  0.4611440000000 1.0
C      1  0.4594340000000  0.3975450000000  0.5607250000000 1.0
C      1  0.4697520000000  0.4207820000000  0.4466210000000 1.0
C      1  0.5001130000000  0.4288220000000  0.5525070000000 1.0
C      1  0.4981370000000  0.4497250000000  0.4784840000000 1.0
C      1  0.5485010000000  0.4224780000000  0.5303160000000 1.0
C      1  0.5734480000000  0.5171840000000  0.4279880000000 1.0
C      1  0.4682740000000  0.5085850000000  0.5300050000000 1.0
C      1  0.4696080000000  0.4931170000000  0.4932900000000 1.0
C      1  0.4530800000000  0.4533320000000  0.5252450000000 1.0
C      1  0.5077220000000  0.4989270000000  0.4531750000000 1.0
C      1  0.4816410000000  0.4094300000000  0.5734640000000 1.0
C      1  0.4474730000000  0.5215110000000  0.4634310000000 1.0
C      1  0.4705160000000  0.4927690000000  0.6057200000000 1.0
C      1  0.4447750000000  0.5408080000000  0.5422940000000 1.0
C      1  0.3996010000000  0.5441290000000  0.4653040000000 1.0
C      1  0.5263920000000  0.4411340000000  0.4357930000000 1.0
C      1  0.5316910000000  0.4851460000000  0.4969370000000 1.0
END
