TITL C-2848498-1409-627 -0.000198316576334515 125000 -616.516072615441 0 0 117 (C1) n - 1
REM
REM in /home/bkarasulu/work/CARBON/AIRSS/Generating-Clusters/AIREBO/with-SteepDescent/Only-C1/SD-CG-opt/Try1-1.4A-POS3A/HFTN-CG
REM
REM
REM
REM
REM
REM ./C.cell (11c1c37f851c82e70ff6c80c92926a4b)
REM
REM compiler GCC version 9.2.1 20190827 (Red Hat 9.2.1-1)
REM options -cpp -mtune=generic -march=x86-64 -g -O0 -fpre-include=/usr/include/finclude/math-vector-fortran.h
REM seed 293530274 -93615555 -786784611 -887880805 1909652367 -1756362439 -26230463 638529568 -1711464568 2132597821 -993776387 1653164595 -357089403 821793153 -1763508745 1190258931 -1948396583 1672319964 830695022 1857740507 -1667352372 1175825407 -1980181778 108682466 182216815 1638303503 1751006277 1681588321 541670688 169269645 337480089 -1153030397 1617407471
REM
CELL 1.54180   50.00000   50.00000   50.00000   90.00000   90.00000   90.00000
LATT -1
SFAC C  
C      1  0.5842210000000  0.4719970000000  0.5263430000000 1.0
C      1  0.5271960000000  0.5987320000000  0.5130770000000 1.0
C      1  0.4922710000000  0.4171910000000  0.4924250000000 1.0
C      1  0.4596330000000  0.5433530000000  0.4923760000000 1.0
C      1  0.4846700000000  0.4357940000000  0.5552830000000 1.0
C      1  0.4165410000000  0.4781670000000  0.4738800000000 1.0
C      1  0.5113810000000  0.5649250000000  0.4604280000000 1.0
C      1  0.4058540000000  0.5251580000000  0.5016130000000 1.0
C      1  0.4910370000000  0.4585800000000  0.4692020000000 1.0
C      1  0.4944340000000  0.5737470000000  0.5463940000000 1.0
C      1  0.5424630000000  0.5685720000000  0.4567100000000 1.0
C      1  0.5884090000000  0.4490490000000  0.4803050000000 1.0
C      1  0.5289020000000  0.5480160000000  0.5056790000000 1.0
C      1  0.4139510000000  0.4728810000000  0.5210940000000 1.0
C      1  0.4401640000000  0.5481600000000  0.4648500000000 1.0
C      1  0.5068620000000  0.4587320000000  0.4989690000000 1.0
C      1  0.4757350000000  0.4284680000000  0.4652920000000 1.0
C      1  0.5290520000000  0.5170510000000  0.5942240000000 1.0
C      1  0.5814070000000  0.5324900000000  0.4966130000000 1.0
C      1  0.4502740000000  0.5129090000000  0.4804330000000 1.0
C      1  0.4952390000000  0.5137910000000  0.4384130000000 1.0
C      1  0.4454940000000  0.4397060000000  0.5070040000000 1.0
C      1  0.4276710000000  0.4501720000000  0.5286850000000 1.0
C      1  0.5014960000000  0.4809550000000  0.4458100000000 1.0
C      1  0.4580260000000  0.5016850000000  0.5321410000000 1.0
C      1  0.4453300000000  0.4265680000000  0.4567400000000 1.0
C      1  0.4702150000000  0.5171270000000  0.5598720000000 1.0
C      1  0.4292290000000  0.4826780000000  0.4424560000000 1.0
C      1  0.4587350000000  0.5320760000000  0.4192140000000 1.0
C      1  0.4819500000000  0.5496960000000  0.5172360000000 1.0
C      1  0.4303250000000  0.5169350000000  0.5237460000000 1.0
C      1  0.4360330000000  0.5083190000000  0.4255510000000 1.0
C      1  0.5323030000000  0.5126520000000  0.4740700000000 1.0
C      1  0.5049780000000  0.4569030000000  0.4140960000000 1.0
C      1  0.4568150000000  0.4513630000000  0.5434760000000 1.0
C      1  0.4962780000000  0.5508280000000  0.5709980000000 1.0
C      1  0.4578180000000  0.4697400000000  0.4968940000000 1.0
C      1  0.5255190000000  0.4726360000000  0.5755540000000 1.0
C      1  0.4871770000000  0.4832280000000  0.5719220000000 1.0
C      1  0.5045520000000  0.4366800000000  0.4320360000000 1.0
C      1  0.5312340000000  0.5314210000000  0.5710930000000 1.0
C      1  0.5697930000000  0.5049980000000  0.5017220000000 1.0
C      1  0.4885620000000  0.4888900000000  0.5383010000000 1.0
C      1  0.4889170000000  0.4281910000000  0.5241540000000 1.0
C      1  0.4855180000000  0.5391270000000  0.5936410000000 1.0
C      1  0.4635710000000  0.5593660000000  0.5411090000000 1.0
C      1  0.5565360000000  0.4431570000000  0.5332100000000 1.0
C      1  0.5734410000000  0.5469140000000  0.5327190000000 1.0
C      1  0.4319300000000  0.4494110000000  0.4642620000000 1.0
C      1  0.5116430000000  0.4945390000000  0.5926110000000 1.0
C      1  0.5581460000000  0.4737970000000  0.5044980000000 1.0
C      1  0.4129140000000  0.5191620000000  0.4418100000000 1.0
C      1  0.4210330000000  0.5062440000000  0.5546560000000 1.0
C      1  0.4891930000000  0.5445390000000  0.4277820000000 1.0
C      1  0.4541830000000  0.4725150000000  0.4631940000000 1.0
C      1  0.4947670000000  0.5325450000000  0.5425450000000 1.0
C      1  0.5172380000000  0.4165250000000  0.5235660000000 1.0
C      1  0.6024200000000  0.4915730000000  0.4831760000000 1.0
C      1  0.5541520000000  0.5041920000000  0.5300290000000 1.0
C      1  0.4660980000000  0.5005950000000  0.4102680000000 1.0
C      1  0.5596940000000  0.5543550000000  0.5036320000000 1.0
C      1  0.5769840000000  0.4861480000000  0.5569190000000 1.0
C      1  0.5371190000000  0.4551490000000  0.4838410000000 1.0
C      1  0.4491920000000  0.4710310000000  0.5695990000000 1.0
C      1  0.5174510000000  0.4739110000000  0.5425460000000 1.0
C      1  0.4965590000000  0.4892510000000  0.4070040000000 1.0
C      1  0.5463600000000  0.6000660000000  0.4932320000000 1.0
C      1  0.5139180000000  0.4422200000000  0.5666760000000 1.0
C      1  0.4926960000000  0.5060880000000  0.5092630000000 1.0
C      1  0.5070190000000  0.5724470000000  0.5148130000000 1.0
C      1  0.4591310000000  0.4175410000000  0.4999820000000 1.0
C      1  0.6065260000000  0.5379340000000  0.4923420000000 1.0
C      1  0.5392690000000  0.5530180000000  0.4307100000000 1.0
C      1  0.4811890000000  0.5096580000000  0.5911760000000 1.0
C      1  0.5214560000000  0.5080770000000  0.4205530000000 1.0
C      1  0.5275930000000  0.4360520000000  0.4573610000000 1.0
C      1  0.4651860000000  0.5804210000000  0.4769150000000 1.0
C      1  0.4806630000000  0.5704220000000  0.4482680000000 1.0
C      1  0.5231510000000  0.4177120000000  0.4844200000000 1.0
C      1  0.5271260000000  0.5225860000000  0.5394250000000 1.0
C      1  0.5236070000000  0.5142570000000  0.5066460000000 1.0
C      1  0.6009060000000  0.4679370000000  0.4986010000000 1.0
C      1  0.5274310000000  0.4765530000000  0.4242520000000 1.0
C      1  0.4806610000000  0.4609780000000  0.5205470000000 1.0
C      1  0.4299400000000  0.5527240000000  0.5060490000000 1.0
C      1  0.4435930000000  0.4978890000000  0.5689860000000 1.0
C      1  0.5565220000000  0.5501760000000  0.5605000000000 1.0
C      1  0.5241050000000  0.4835600000000  0.4704020000000 1.0
C      1  0.5135980000000  0.5398130000000  0.4777990000000 1.0
C      1  0.4766230000000  0.5078140000000  0.4618190000000 1.0
C      1  0.5449240000000  0.5252140000000  0.4300010000000 1.0
C      1  0.4383870000000  0.5475650000000  0.5361740000000 1.0
C      1  0.4837150000000  0.4877010000000  0.4851690000000 1.0
C      1  0.5551310000000  0.5146780000000  0.4538360000000 1.0
C      1  0.4696660000000  0.4779640000000  0.4342220000000 1.0
C      1  0.4417800000000  0.5789760000000  0.4902520000000 1.0
C      1  0.4747950000000  0.4556930000000  0.5785180000000 1.0
C      1  0.5452390000000  0.4404440000000  0.5639910000000 1.0
C      1  0.3963570000000  0.4972390000000  0.5162350000000 1.0
C      1  0.4325990000000  0.4923180000000  0.5003430000000 1.0
C      1  0.5591850000000  0.4672490000000  0.5795810000000 1.0
C      1  0.5708160000000  0.5197030000000  0.5529440000000 1.0
C      1  0.5551850000000  0.5759630000000  0.4808660000000 1.0
C      1  0.5246970000000  0.5602240000000  0.5539820000000 1.0
C      1  0.5032690000000  0.4124690000000  0.4544340000000 1.0
C      1  0.5152410000000  0.5584700000000  0.4162310000000 1.0
C      1  0.4536760000000  0.5551940000000  0.4416370000000 1.0
C      1  0.5401210000000  0.4324820000000  0.5094880000000 1.0
C      1  0.4942190000000  0.5797430000000  0.4844600000000 1.0
C      1  0.4455600000000  0.4568280000000  0.4274790000000 1.0
C      1  0.5484490000000  0.4740410000000  0.5429450000000 1.0
C      1  0.4192010000000  0.5243940000000  0.4727660000000 1.0
C      1  0.5267470000000  0.4822260000000  0.5110060000000 1.0
C      1  0.5718450000000  0.4944710000000  0.4694520000000 1.0
C      1  0.5663520000000  0.4613880000000  0.4676090000000 1.0
C      1  0.5892000000000  0.4389200000000  0.5319690000000 1.0
C      1  0.4874500000000  0.5272400000000  0.4846830000000 1.0
END
