TITL C-2848509-3138-219 0.00171272595151402 125000 -179.387425966749 0 0 34 (C1) n - 1
REM
REM in /home/bkarasulu/work/CARBON/AIRSS/Generating-Clusters/AIREBO/with-SteepDescent/Only-C1/SD-CG-opt/Try1-1.4A-POS3A/HFTN-CG
REM
REM
REM
REM
REM
REM ./C.cell (11c1c37f851c82e70ff6c80c92926a4b)
REM
REM compiler GCC version 9.2.1 20190827 (Red Hat 9.2.1-1)
REM options -cpp -mtune=generic -march=x86-64 -g -O0 -fpre-include=/usr/include/finclude/math-vector-fortran.h
REM seed -1154526036 1811546216 -1531370305 405438448 -1386682747 -36602102 -2120721382 -1656499662 -1350308383 997226981 645893927 2025014551 -609669711 -1970542453 1969301039 1919089316 783496343 1721150318 -582479253 1802006126 1098340106 1796826525 299444377 -1200064637 -927873635 1847517198 1549533795 1554723744 1124743909 -675668890 1920974606 -367452813 1035686916
REM
CELL 1.54180   50.00000   50.00000   50.00000   90.00000   90.00000   90.00000
LATT -1
SFAC C  
C      1  0.5458640000000  0.5279530000000  0.4367070000000 1.0
C      1  0.5129470000000  0.5190070000000  0.5456870000000 1.0
C      1  0.5393190000000  0.5165170000000  0.5262810000000 1.0
C      1  0.5802020000000  0.4641310000000  0.4882980000000 1.0
C      1  0.5196560000000  0.4637470000000  0.4872950000000 1.0
C      1  0.5020360000000  0.5635410000000  0.5233570000000 1.0
C      1  0.4572630000000  0.4759380000000  0.5240440000000 1.0
C      1  0.4789790000000  0.5340710000000  0.4888750000000 1.0
C      1  0.5148050000000  0.5118110000000  0.4802850000000 1.0
C      1  0.5024680000000  0.4754150000000  0.4692270000000 1.0
C      1  0.5270880000000  0.5281270000000  0.4550810000000 1.0
C      1  0.4618940000000  0.4693300000000  0.4481430000000 1.0
C      1  0.4907860000000  0.5648880000000  0.4970910000000 1.0
C      1  0.5487480000000  0.4767870000000  0.4917030000000 1.0
C      1  0.5623250000000  0.4547490000000  0.5125880000000 1.0
C      1  0.5185380000000  0.4594550000000  0.5407630000000 1.0
C      1  0.4719740000000  0.5301190000000  0.5219240000000 1.0
C      1  0.4470100000000  0.5197390000000  0.5079190000000 1.0
C      1  0.5301720000000  0.4993660000000  0.5020560000000 1.0
C      1  0.4453210000000  0.5379070000000  0.4824700000000 1.0
C      1  0.4992420000000  0.4740260000000  0.5627400000000 1.0
C      1  0.5101610000000  0.4897720000000  0.5278290000000 1.0
C      1  0.4833710000000  0.5021640000000  0.4779340000000 1.0
C      1  0.4998380000000  0.5402930000000  0.4627490000000 1.0
C      1  0.4552360000000  0.4860990000000  0.4757540000000 1.0
C      1  0.5146460000000  0.4470430000000  0.5094480000000 1.0
C      1  0.5072330000000  0.4990990000000  0.5703860000000 1.0
C      1  0.5417720000000  0.4415320000000  0.5255110000000 1.0
C      1  0.4886880000000  0.4619910000000  0.4479570000000 1.0
C      1  0.4317890000000  0.4744780000000  0.4536080000000 1.0
C      1  0.4884210000000  0.5860360000000  0.4800750000000 1.0
C      1  0.4814800000000  0.4733640000000  0.5365100000000 1.0
C      1  0.4940550000000  0.5394820000000  0.5359210000000 1.0
C      1  0.4466700000000  0.4920240000000  0.5037840000000 1.0
END
