TITL C-2847957-7266-236 -9.6342527107674e-06 125000 -611.871016000854 0 0 115 (C1) n - 1
REM
REM in /home/bkarasulu/work/CARBON/AIRSS/Generating-Clusters/AIREBO/with-SteepDescent/Only-C1/SD-CG-opt/Try1-1.4A-POS3A/HFTN-CG
REM
REM
REM
REM
REM
REM ./C.cell (11c1c37f851c82e70ff6c80c92926a4b)
REM
REM compiler GCC version 9.2.1 20190827 (Red Hat 9.2.1-1)
REM options -cpp -mtune=generic -march=x86-64 -g -O0 -fpre-include=/usr/include/finclude/math-vector-fortran.h
REM seed 785105844 75123263 2065527643 -1398794082 399838904 -280602884 2093330166 -409058321 361285949 -1318767983 1629279523 338767174 -921831277 1138086580 -1390825366 676887387 -444258357 -1406460231 -2081915598 1606160598 663950614 498693088 -197851113 686057367 -1492629530 414617195 2070787441 -1535012915 -279877288 -1618751116 1389356997 -2125569182 723012944
REM
CELL 1.54180   50.00000   50.00000   50.00000   90.00000   90.00000   90.00000
LATT -1
SFAC C  
C      1  0.5352530000000  0.5325350000000  0.4672190000000 1.0
C      1  0.4957650000000  0.4368870000000  0.4711340000000 1.0
C      1  0.5107490000000  0.5717450000000  0.4314820000000 1.0
C      1  0.4198540000000  0.4946910000000  0.4539520000000 1.0
C      1  0.5747480000000  0.5397610000000  0.4959870000000 1.0
C      1  0.4845170000000  0.4812180000000  0.5044320000000 1.0
C      1  0.5753090000000  0.5020950000000  0.5346740000000 1.0
C      1  0.4274740000000  0.5205210000000  0.5229310000000 1.0
C      1  0.5175760000000  0.5442200000000  0.5223240000000 1.0
C      1  0.5286080000000  0.4686320000000  0.5396770000000 1.0
C      1  0.5832500000000  0.5107000000000  0.5027470000000 1.0
C      1  0.4749990000000  0.5229180000000  0.5401890000000 1.0
C      1  0.5354890000000  0.5008630000000  0.5312920000000 1.0
C      1  0.4570450000000  0.4475570000000  0.5672720000000 1.0
C      1  0.4680580000000  0.5454680000000  0.5219000000000 1.0
C      1  0.4963570000000  0.4740640000000  0.4565110000000 1.0
C      1  0.5128670000000  0.5090880000000  0.4699670000000 1.0
C      1  0.5341350000000  0.5134230000000  0.5034880000000 1.0
C      1  0.5171100000000  0.5037140000000  0.4193540000000 1.0
C      1  0.4993050000000  0.4194640000000  0.5437550000000 1.0
C      1  0.5411800000000  0.5187820000000  0.4380600000000 1.0
C      1  0.4565800000000  0.4314480000000  0.4391920000000 1.0
C      1  0.5581040000000  0.5715730000000  0.5135220000000 1.0
C      1  0.5782080000000  0.4629260000000  0.4917020000000 1.0
C      1  0.5414270000000  0.5462270000000  0.4981480000000 1.0
C      1  0.4993920000000  0.4050160000000  0.4742250000000 1.0
C      1  0.4637920000000  0.5659190000000  0.4661160000000 1.0
C      1  0.4122040000000  0.5422920000000  0.4931460000000 1.0
C      1  0.5197720000000  0.5612710000000  0.4625490000000 1.0
C      1  0.5532700000000  0.4954520000000  0.5597620000000 1.0
C      1  0.4312120000000  0.4903550000000  0.5130300000000 1.0
C      1  0.5374880000000  0.5510220000000  0.4278930000000 1.0
C      1  0.4642770000000  0.5006210000000  0.4851360000000 1.0
C      1  0.4577300000000  0.4786770000000  0.5249890000000 1.0
C      1  0.4453210000000  0.4996310000000  0.5769380000000 1.0
C      1  0.5825560000000  0.5352150000000  0.5319960000000 1.0
C      1  0.4571270000000  0.4766250000000  0.5560420000000 1.0
C      1  0.4587760000000  0.4316450000000  0.5129560000000 1.0
C      1  0.4958880000000  0.5654580000000  0.5672550000000 1.0
C      1  0.4512110000000  0.5685990000000  0.5397020000000 1.0
C      1  0.4603720000000  0.4888990000000  0.4244490000000 1.0
C      1  0.5469880000000  0.4393630000000  0.4993390000000 1.0
C      1  0.4441290000000  0.5167280000000  0.4629800000000 1.0
C      1  0.4243440000000  0.5009830000000  0.5506350000000 1.0
C      1  0.4845120000000  0.4464920000000  0.4405160000000 1.0
C      1  0.5369670000000  0.5238110000000  0.5565600000000 1.0
C      1  0.4338720000000  0.5490370000000  0.4656340000000 1.0
C      1  0.4671100000000  0.5513240000000  0.4354730000000 1.0
C      1  0.5260340000000  0.4301660000000  0.5158820000000 1.0
C      1  0.4351770000000  0.4450150000000  0.4376450000000 1.0
C      1  0.4590730000000  0.5861310000000  0.4922660000000 1.0
C      1  0.5578700000000  0.4898190000000  0.4969770000000 1.0
C      1  0.5111250000000  0.4809610000000  0.4831400000000 1.0
C      1  0.4822180000000  0.4107620000000  0.5210870000000 1.0
C      1  0.5658510000000  0.5579140000000  0.5376380000000 1.0
C      1  0.5651200000000  0.5583800000000  0.4465780000000 1.0
C      1  0.4931770000000  0.5414830000000  0.4549660000000 1.0
C      1  0.4520240000000  0.5276480000000  0.5006160000000 1.0
C      1  0.4814770000000  0.4680200000000  0.4143670000000 1.0
C      1  0.4288870000000  0.5532150000000  0.5208260000000 1.0
C      1  0.5057000000000  0.5295090000000  0.4939510000000 1.0
C      1  0.4364990000000  0.4741590000000  0.4406560000000 1.0
C      1  0.5029480000000  0.4481040000000  0.5170680000000 1.0
C      1  0.5132060000000  0.4708330000000  0.4271520000000 1.0
C      1  0.5045910000000  0.5814890000000  0.5183950000000 1.0
C      1  0.5421100000000  0.4771790000000  0.4696300000000 1.0
C      1  0.5577960000000  0.4471940000000  0.4388290000000 1.0
C      1  0.4675600000000  0.4849380000000  0.4571190000000 1.0
C      1  0.5132070000000  0.4866400000000  0.5964220000000 1.0
C      1  0.4748390000000  0.5772870000000  0.5168080000000 1.0
C      1  0.5070150000000  0.5255110000000  0.5461230000000 1.0
C      1  0.4217780000000  0.4700300000000  0.5386020000000 1.0
C      1  0.5801160000000  0.5490960000000  0.4676480000000 1.0
C      1  0.4474850000000  0.5251870000000  0.5572090000000 1.0
C      1  0.4937920000000  0.4525360000000  0.5495160000000 1.0
C      1  0.5163840000000  0.4373200000000  0.4343680000000 1.0
C      1  0.4910930000000  0.5058320000000  0.5899110000000 1.0
C      1  0.5364490000000  0.5947180000000  0.4766080000000 1.0
C      1  0.4647100000000  0.5523450000000  0.5651490000000 1.0
C      1  0.4897210000000  0.3946480000000  0.4984870000000 1.0
C      1  0.5277430000000  0.4467700000000  0.4651160000000 1.0
C      1  0.4988830000000  0.4829750000000  0.5352360000000 1.0
C      1  0.5463880000000  0.5804110000000  0.4533550000000 1.0
C      1  0.5205330000000  0.5728200000000  0.4945220000000 1.0
C      1  0.4102030000000  0.4529090000000  0.4933580000000 1.0
C      1  0.5573240000000  0.4931610000000  0.4363180000000 1.0
C      1  0.4806340000000  0.4484590000000  0.4961540000000 1.0
C      1  0.5294760000000  0.4354130000000  0.5474120000000 1.0
C      1  0.4650600000000  0.5193650000000  0.4371780000000 1.0
C      1  0.4917890000000  0.5333410000000  0.5747970000000 1.0
C      1  0.4613370000000  0.5007500000000  0.6003540000000 1.0
C      1  0.5796290000000  0.4709900000000  0.5247140000000 1.0
C      1  0.5608870000000  0.4420510000000  0.4711260000000 1.0
C      1  0.4144850000000  0.4795100000000  0.4893910000000 1.0
C      1  0.4780500000000  0.4426040000000  0.5846570000000 1.0
C      1  0.5252980000000  0.5300670000000  0.4038040000000 1.0
C      1  0.4773770000000  0.5400940000000  0.4835830000000 1.0
C      1  0.4416290000000  0.4442450000000  0.5386430000000 1.0
C      1  0.5727130000000  0.4885450000000  0.4599780000000 1.0
C      1  0.5922870000000  0.4966310000000  0.4759500000000 1.0
C      1  0.5075080000000  0.4587890000000  0.5795220000000 1.0
C      1  0.4254670000000  0.4374980000000  0.5093980000000 1.0
C      1  0.5436530000000  0.5529530000000  0.5535850000000 1.0
C      1  0.5528820000000  0.4485720000000  0.5641770000000 1.0
C      1  0.5384760000000  0.4733730000000  0.5779390000000 1.0
C      1  0.5182690000000  0.4096970000000  0.4523220000000 1.0
C      1  0.4168530000000  0.5128140000000  0.4829110000000 1.0
C      1  0.5773340000000  0.4516650000000  0.5508760000000 1.0
C      1  0.5480660000000  0.4647480000000  0.5170880000000 1.0
C      1  0.4818070000000  0.4976050000000  0.5592530000000 1.0
C      1  0.4884520000000  0.5821900000000  0.4492670000000 1.0
C      1  0.4319400000000  0.5699310000000  0.4915000000000 1.0
C      1  0.4975510000000  0.5116230000000  0.4426490000000 1.0
C      1  0.5460410000000  0.4695220000000  0.4282370000000 1.0
C      1  0.5166680000000  0.5688760000000  0.5457620000000 1.0
END
