TITL C-2847954-6904-96 -0.000421051134322587 125000 -666.52305066137 0 0 120 (C1) n - 1
REM
REM in /home/bkarasulu/work/CARBON/AIRSS/Generating-Clusters/AIREBO/with-SteepDescent/Only-C1/SD-CG-opt/Try1-1.4A-POS3A/HFTN-CG
REM
REM
REM
REM
REM
REM ./C.cell (11c1c37f851c82e70ff6c80c92926a4b)
REM
REM compiler GCC version 9.2.1 20190827 (Red Hat 9.2.1-1)
REM options -cpp -mtune=generic -march=x86-64 -g -O0 -fpre-include=/usr/include/finclude/math-vector-fortran.h
REM seed -1873455091 705926334 363465862 -1012202958 2072087028 -2034651950 -1035147608 -1034501895 -1616232895 1363034646 -1859803990 -229448144 1937224222 1393729732 1858212379 65508318 1220403917 262886928 1683438775 -2061900030 1921714222 -181323729 -860810695 1202596819 -658395793 -892813430 171852147 2067870155 -1638979837 -1678658264 201380955 -1967831412 678494781
REM
CELL 1.54180   50.00000   50.00000   50.00000   90.00000   90.00000   90.00000
LATT -1
SFAC C  
C      1  0.5647690000000  0.5363120000000  0.4665640000000 1.0
C      1  0.4350310000000  0.5006380000000  0.5706080000000 1.0
C      1  0.5361810000000  0.4932820000000  0.5711830000000 1.0
C      1  0.5155830000000  0.4500430000000  0.5544100000000 1.0
C      1  0.4158020000000  0.4850760000000  0.4696400000000 1.0
C      1  0.4738170000000  0.4858360000000  0.5076440000000 1.0
C      1  0.5076850000000  0.5544410000000  0.4524030000000 1.0
C      1  0.4036510000000  0.4607220000000  0.5656810000000 1.0
C      1  0.5155030000000  0.4084180000000  0.4863430000000 1.0
C      1  0.4110170000000  0.5235130000000  0.5389760000000 1.0
C      1  0.4680540000000  0.5415470000000  0.5363190000000 1.0
C      1  0.4430090000000  0.4804840000000  0.4299230000000 1.0
C      1  0.5305270000000  0.5395590000000  0.4327940000000 1.0
C      1  0.6006560000000  0.4925760000000  0.5219280000000 1.0
C      1  0.4728870000000  0.4484940000000  0.5222870000000 1.0
C      1  0.5034460000000  0.4038360000000  0.5115660000000 1.0
C      1  0.4755410000000  0.5097250000000  0.5392210000000 1.0
C      1  0.4655760000000  0.4142070000000  0.5466220000000 1.0
C      1  0.5030620000000  0.5356560000000  0.4156300000000 1.0
C      1  0.4996910000000  0.5455880000000  0.5761550000000 1.0
C      1  0.5748190000000  0.5430900000000  0.5132130000000 1.0
C      1  0.4814890000000  0.4826450000000  0.4539830000000 1.0
C      1  0.4323020000000  0.5287670000000  0.4472120000000 1.0
C      1  0.4311030000000  0.5347690000000  0.5202230000000 1.0
C      1  0.5236360000000  0.5648020000000  0.5124280000000 1.0
C      1  0.5129070000000  0.5367180000000  0.5121190000000 1.0
C      1  0.4598940000000  0.5425650000000  0.4329100000000 1.0
C      1  0.5140300000000  0.4866440000000  0.5144560000000 1.0
C      1  0.5611950000000  0.5718990000000  0.5013130000000 1.0
C      1  0.5764550000000  0.4453250000000  0.4895210000000 1.0
C      1  0.5405220000000  0.5163460000000  0.4672130000000 1.0
C      1  0.4392670000000  0.5561990000000  0.4660650000000 1.0
C      1  0.4615610000000  0.4732270000000  0.4797120000000 1.0
C      1  0.4808260000000  0.5394810000000  0.5084010000000 1.0
C      1  0.4971070000000  0.4643510000000  0.4951440000000 1.0
C      1  0.4759900000000  0.4297460000000  0.4526930000000 1.0
C      1  0.5464230000000  0.4394870000000  0.5198140000000 1.0
C      1  0.5346020000000  0.4763690000000  0.5470140000000 1.0
C      1  0.4238040000000  0.5259590000000  0.5638920000000 1.0
C      1  0.4709690000000  0.4432440000000  0.4898820000000 1.0
C      1  0.5683200000000  0.4881140000000  0.4443280000000 1.0
C      1  0.5843240000000  0.5295790000000  0.4860930000000 1.0
C      1  0.4956120000000  0.5094620000000  0.4107050000000 1.0
C      1  0.5304480000000  0.4264040000000  0.5421150000000 1.0
C      1  0.5608180000000  0.4341880000000  0.4623190000000 1.0
C      1  0.5058110000000  0.4587400000000  0.4505510000000 1.0
C      1  0.4576690000000  0.5225400000000  0.4773500000000 1.0
C      1  0.4194990000000  0.5525700000000  0.4934920000000 1.0
C      1  0.6161750000000  0.4786880000000  0.5490380000000 1.0
C      1  0.4280040000000  0.4974490000000  0.4467180000000 1.0
C      1  0.5403630000000  0.4150140000000  0.4690600000000 1.0
C      1  0.4081850000000  0.4579320000000  0.4662300000000 1.0
C      1  0.5190940000000  0.5180760000000  0.5719660000000 1.0
C      1  0.4405250000000  0.4640680000000  0.5048540000000 1.0
C      1  0.5276960000000  0.5952590000000  0.5376280000000 1.0
C      1  0.5631150000000  0.4556760000000  0.4396590000000 1.0
C      1  0.5309780000000  0.5080780000000  0.5343980000000 1.0
C      1  0.4788620000000  0.4151290000000  0.5195940000000 1.0
C      1  0.5255760000000  0.4933590000000  0.4482880000000 1.0
C      1  0.5942330000000  0.5042880000000  0.4843100000000 1.0
C      1  0.4398210000000  0.4514810000000  0.4316830000000 1.0
C      1  0.4839570000000  0.5889090000000  0.4872330000000 1.0
C      1  0.5207810000000  0.4024350000000  0.5340700000000 1.0
C      1  0.5730440000000  0.4822070000000  0.4751480000000 1.0
C      1  0.4950670000000  0.5806280000000  0.4356810000000 1.0
C      1  0.4744370000000  0.4858260000000  0.4208650000000 1.0
C      1  0.5275150000000  0.5334720000000  0.6015000000000 1.0
C      1  0.4457320000000  0.5636370000000  0.5116390000000 1.0
C      1  0.5063020000000  0.4617610000000  0.4188960000000 1.0
C      1  0.4274730000000  0.4409360000000  0.4547500000000 1.0
C      1  0.5726820000000  0.4209760000000  0.5107690000000 1.0
C      1  0.5016110000000  0.5860530000000  0.5263660000000 1.0
C      1  0.4274100000000  0.5223590000000  0.4824100000000 1.0
C      1  0.5830260000000  0.4713200000000  0.5507390000000 1.0
C      1  0.5530610000000  0.5629220000000  0.4385850000000 1.0
C      1  0.4803660000000  0.4843490000000  0.5595130000000 1.0
C      1  0.4693740000000  0.5139820000000  0.4486950000000 1.0
C      1  0.5142730000000  0.4892650000000  0.4207740000000 1.0
C      1  0.5374070000000  0.4660570000000  0.4565820000000 1.0
C      1  0.4670860000000  0.5603890000000  0.4853760000000 1.0
C      1  0.4653230000000  0.4383880000000  0.4270670000000 1.0
C      1  0.4517760000000  0.5107130000000  0.5148910000000 1.0
C      1  0.5035440000000  0.5241610000000  0.5423370000000 1.0
C      1  0.4503050000000  0.4242580000000  0.4725860000000 1.0
C      1  0.4844720000000  0.5401700000000  0.4642610000000 1.0
C      1  0.5499260000000  0.5712360000000  0.5332820000000 1.0
C      1  0.4824770000000  0.5548160000000  0.4215160000000 1.0
C      1  0.4226300000000  0.4766380000000  0.5521370000000 1.0
C      1  0.5809340000000  0.4744300000000  0.5073000000000 1.0
C      1  0.5044860000000  0.4340570000000  0.4701900000000 1.0
C      1  0.4715140000000  0.5826320000000  0.5183030000000 1.0
C      1  0.4552570000000  0.5774680000000  0.5477240000000 1.0
C      1  0.5479230000000  0.4634790000000  0.4860050000000 1.0
C      1  0.4854130000000  0.4530590000000  0.5700590000000 1.0
C      1  0.6025880000000  0.5256140000000  0.5211310000000 1.0
C      1  0.4701100000000  0.5312270000000  0.5780740000000 1.0
C      1  0.4465140000000  0.5478570000000  0.5619850000000 1.0
C      1  0.5770670000000  0.5276010000000  0.5559050000000 1.0
C      1  0.4299020000000  0.4389040000000  0.4944730000000 1.0
C      1  0.5237870000000  0.5130910000000  0.4954410000000 1.0
C      1  0.5571410000000  0.5656030000000  0.4680450000000 1.0
C      1  0.4960860000000  0.4671660000000  0.5347220000000 1.0
C      1  0.5593470000000  0.4654580000000  0.5310480000000 1.0
C      1  0.4800960000000  0.4550290000000  0.4089770000000 1.0
C      1  0.5034240000000  0.5029710000000  0.4701590000000 1.0
C      1  0.4833620000000  0.5619660000000  0.5564530000000 1.0
C      1  0.4622640000000  0.5033770000000  0.5762920000000 1.0
C      1  0.4256900000000  0.4939140000000  0.5009560000000 1.0
C      1  0.4449090000000  0.4596460000000  0.5383510000000 1.0
C      1  0.5071880000000  0.5844760000000  0.4674980000000 1.0
C      1  0.5322930000000  0.5771060000000  0.4841580000000 1.0
C      1  0.5237790000000  0.4463820000000  0.4953910000000 1.0
C      1  0.5555690000000  0.5168090000000  0.4367220000000 1.0
C      1  0.5929680000000  0.5037490000000  0.5531110000000 1.0
C      1  0.5323370000000  0.5547750000000  0.5786520000000 1.0
C      1  0.5531890000000  0.5279100000000  0.5328640000000 1.0
C      1  0.4093970000000  0.4958330000000  0.5297760000000 1.0
C      1  0.4841450000000  0.5118430000000  0.4923370000000 1.0
C      1  0.4619100000000  0.4394850000000  0.5594350000000 1.0
C      1  0.5528380000000  0.5515430000000  0.5573070000000 1.0
END
