TITL C-2848506-1665-684 0.00164562855286688 125000 -275.120688883621 0 0 52 (C1) n - 1
REM
REM in /home/bkarasulu/work/CARBON/AIRSS/Generating-Clusters/AIREBO/with-SteepDescent/Only-C1/SD-CG-opt/Try1-1.4A-POS3A/HFTN-CG
REM
REM
REM
REM
REM
REM ./C.cell (11c1c37f851c82e70ff6c80c92926a4b)
REM
REM compiler GCC version 9.2.1 20190827 (Red Hat 9.2.1-1)
REM options -cpp -mtune=generic -march=x86-64 -g -O0 -fpre-include=/usr/include/finclude/math-vector-fortran.h
REM seed 792618679 1512466317 964715689 -140077719 1818265845 1936147312 -840463127 -182477624 -1882367236 -1159952779 734448357 953056271 -430452305 58437265 -1912526700 -1988106985 1521415886 41786817 -1407990488 604658182 -658312418 1036499523 1058652394 2086131701 2068275547 -1835437254 -1143387409 903936159 1489919233 -1012248061 -1323860716 -1625881567 1977761435
REM
CELL 1.54180   50.00000   50.00000   50.00000   90.00000   90.00000   90.00000
LATT -1
SFAC C  
C      1  0.5681810000000  0.5046300000000  0.5069850000000 1.0
C      1  0.4728370000000  0.4819270000000  0.5661000000000 1.0
C      1  0.5353980000000  0.5739430000000  0.5081380000000 1.0
C      1  0.4606480000000  0.4515110000000  0.5432260000000 1.0
C      1  0.4973450000000  0.4421140000000  0.4921970000000 1.0
C      1  0.5072600000000  0.4765360000000  0.4744590000000 1.0
C      1  0.5055270000000  0.4999590000000  0.5406070000000 1.0
C      1  0.4576150000000  0.5232340000000  0.5394440000000 1.0
C      1  0.4442560000000  0.4752090000000  0.4927990000000 1.0
C      1  0.4998770000000  0.4676870000000  0.4417010000000 1.0
C      1  0.4886410000000  0.4507230000000  0.5397350000000 1.0
C      1  0.4712260000000  0.4312550000000  0.4886170000000 1.0
C      1  0.5870540000000  0.5156090000000  0.4605820000000 1.0
C      1  0.5217950000000  0.4460540000000  0.4746590000000 1.0
C      1  0.5456590000000  0.4656940000000  0.4758580000000 1.0
C      1  0.5176360000000  0.5317430000000  0.4560350000000 1.0
C      1  0.5382540000000  0.5207170000000  0.5101760000000 1.0
C      1  0.5562490000000  0.4873630000000  0.5522050000000 1.0
C      1  0.5427920000000  0.5332080000000  0.4788720000000 1.0
C      1  0.4780850000000  0.5428260000000  0.5039850000000 1.0
C      1  0.4682870000000  0.5537220000000  0.5326590000000 1.0
C      1  0.5245670000000  0.4932310000000  0.4955720000000 1.0
C      1  0.4849410000000  0.5366780000000  0.4599020000000 1.0
C      1  0.4972790000000  0.4592120000000  0.5143450000000 1.0
C      1  0.4355560000000  0.5181310000000  0.4708730000000 1.0
C      1  0.5288630000000  0.4525820000000  0.5464400000000 1.0
C      1  0.4500880000000  0.4992770000000  0.5165100000000 1.0
C      1  0.5459600000000  0.4876990000000  0.4573180000000 1.0
C      1  0.5008380000000  0.5484410000000  0.5363700000000 1.0
C      1  0.4992920000000  0.4900270000000  0.5126610000000 1.0
C      1  0.4878860000000  0.5227570000000  0.5468970000000 1.0
C      1  0.5260920000000  0.5595640000000  0.4836160000000 1.0
C      1  0.4592060000000  0.5577210000000  0.4820290000000 1.0
C      1  0.4930270000000  0.5008790000000  0.4365990000000 1.0
C      1  0.5236940000000  0.4910600000000  0.4410620000000 1.0
C      1  0.4499240000000  0.4486690000000  0.4932930000000 1.0
C      1  0.4988470000000  0.5557620000000  0.4818320000000 1.0
C      1  0.5513630000000  0.4750960000000  0.5060270000000 1.0
C      1  0.4754060000000  0.4764750000000  0.4629270000000 1.0
C      1  0.4769160000000  0.5079990000000  0.4724860000000 1.0
C      1  0.4286950000000  0.5179880000000  0.4978470000000 1.0
C      1  0.5359530000000  0.5103470000000  0.5424840000000 1.0
C      1  0.4779720000000  0.5101170000000  0.5023580000000 1.0
C      1  0.5315390000000  0.4900860000000  0.5721670000000 1.0
C      1  0.5509810000000  0.4652000000000  0.5348380000000 1.0
C      1  0.4639040000000  0.5072970000000  0.4410760000000 1.0
C      1  0.5247120000000  0.5495350000000  0.5222770000000 1.0
C      1  0.5049910000000  0.4728790000000  0.5596840000000 1.0
C      1  0.4510650000000  0.5392590000000  0.4612580000000 1.0
C      1  0.4518210000000  0.4798610000000  0.5443990000000 1.0
C      1  0.5602250000000  0.5116230000000  0.4641410000000 1.0
C      1  0.4437740000000  0.4888840000000  0.4616730000000 1.0
END
