TITL C-2847947-6848-365 -0.00353258733021032 125000 -146.162229788559 0 0 27 (C1) n - 1
REM
REM in /home/bkarasulu/work/CARBON/AIRSS/Generating-Clusters/AIREBO/with-SteepDescent/Only-C1/SD-CG-opt/Try1-1.4A-POS3A/HFTN-CG
REM
REM
REM
REM
REM
REM ./C.cell (11c1c37f851c82e70ff6c80c92926a4b)
REM
REM compiler GCC version 9.2.1 20190827 (Red Hat 9.2.1-1)
REM options -cpp -mtune=generic -march=x86-64 -g -O0 -fpre-include=/usr/include/finclude/math-vector-fortran.h
REM seed -2065232946 -676687155 -915935519 1923045171 -1773316951 -2085674494 -1922418754 -112606211 1924037885 -290360814 565258140 1375606596 -1009690695 -1895831761 -29238150 -239444208 -1700266806 1799051132 -1671986599 -4429818 -528280156 984917482 -2230133 262103073 262455903 1880628455 -1540289607 -1601191450 1175944285 -854643189 2062516961 -1792890285 -1002808220
REM
CELL 1.54180   50.00000   50.00000   50.00000   90.00000   90.00000   90.00000
LATT -1
SFAC C  
C      1  0.5149010000000  0.4646060000000  0.4630090000000 1.0
C      1  0.4104140000000  0.4943490000000  0.5244030000000 1.0
C      1  0.5423110000000  0.4873040000000  0.5125380000000 1.0
C      1  0.4834820000000  0.5386830000000  0.4875080000000 1.0
C      1  0.5148720000000  0.5000880000000  0.4969920000000 1.0
C      1  0.5004740000000  0.4796390000000  0.4810590000000 1.0
C      1  0.5426100000000  0.4336760000000  0.5278800000000 1.0
C      1  0.5206980000000  0.5054720000000  0.5291700000000 1.0
C      1  0.5429680000000  0.5300270000000  0.4722550000000 1.0
C      1  0.5051260000000  0.5200530000000  0.5444040000000 1.0
C      1  0.4162730000000  0.5244480000000  0.5235520000000 1.0
C      1  0.4710250000000  0.5376150000000  0.5125160000000 1.0
C      1  0.4726970000000  0.4769480000000  0.4826270000000 1.0
C      1  0.5417270000000  0.4578570000000  0.5197640000000 1.0
C      1  0.4652370000000  0.4543370000000  0.5244700000000 1.0
C      1  0.4578750000000  0.4764490000000  0.4599840000000 1.0
C      1  0.5117770000000  0.5293760000000  0.4857730000000 1.0
C      1  0.5626160000000  0.5113290000000  0.4760090000000 1.0
C      1  0.4870870000000  0.5387480000000  0.5356500000000 1.0
C      1  0.4698680000000  0.5447680000000  0.4644810000000 1.0
C      1  0.4595870000000  0.4748420000000  0.5078250000000 1.0
C      1  0.5281830000000  0.4521910000000  0.4441300000000 1.0
C      1  0.4408780000000  0.4945100000000  0.5147700000000 1.0
C      1  0.5325190000000  0.5565910000000  0.4840980000000 1.0
C      1  0.5917160000000  0.4934220000000  0.5112300000000 1.0
C      1  0.4457930000000  0.5258810000000  0.5144630000000 1.0
C      1  0.5672850000000  0.4967930000000  0.4994360000000 1.0
END
