TITL C-2847953-8112-474 0.000871604379471714 125000 -620.24228910671 0 0 112 (C1) n - 1
REM
REM in /home/bkarasulu/work/CARBON/AIRSS/Generating-Clusters/AIREBO/with-SteepDescent/Only-C1/SD-CG-opt/Try1-1.4A-POS3A/HFTN-CG
REM
REM
REM
REM
REM
REM ./C.cell (11c1c37f851c82e70ff6c80c92926a4b)
REM
REM compiler GCC version 9.2.1 20190827 (Red Hat 9.2.1-1)
REM options -cpp -mtune=generic -march=x86-64 -g -O0 -fpre-include=/usr/include/finclude/math-vector-fortran.h
REM seed -2020055695 -662609854 -1500785802 1945294423 -468037406 -1463055883 2098184033 -362194125 1174257589 1561389694 -1789436262 546783073 1460226470 -2106866462 768013657 2115530460 904898613 855445685 892905068 -85316274 503363828 2018527669 962690480 -960832613 -1950038992 -803705328 179798270 -2088924450 1609128747 1255952007 -9442510 2016493505 -482427161
REM
CELL 1.54180   50.00000   50.00000   50.00000   90.00000   90.00000   90.00000
LATT -1
SFAC C  
C      1  0.4999710000000  0.5925000000000  0.5540720000000 1.0
C      1  0.5075070000000  0.5990430000000  0.5278320000000 1.0
C      1  0.4025660000000  0.4633530000000  0.5085480000000 1.0
C      1  0.4822750000000  0.5028530000000  0.5659110000000 1.0
C      1  0.4640820000000  0.5509880000000  0.5662060000000 1.0
C      1  0.4324140000000  0.4617380000000  0.5348130000000 1.0
C      1  0.5634130000000  0.5690710000000  0.4730530000000 1.0
C      1  0.4547710000000  0.4873470000000  0.4798550000000 1.0
C      1  0.5311300000000  0.4495600000000  0.4274890000000 1.0
C      1  0.5425520000000  0.4715750000000  0.5672210000000 1.0
C      1  0.4744430000000  0.5677170000000  0.4655750000000 1.0
C      1  0.5300980000000  0.4248710000000  0.5417020000000 1.0
C      1  0.4661860000000  0.5750880000000  0.5179590000000 1.0
C      1  0.4766220000000  0.4362710000000  0.4380740000000 1.0
C      1  0.4940750000000  0.4157810000000  0.4475770000000 1.0
C      1  0.4943070000000  0.5565210000000  0.5226020000000 1.0
C      1  0.5629890000000  0.4830130000000  0.4465920000000 1.0
C      1  0.5192720000000  0.5818700000000  0.4828320000000 1.0
C      1  0.4514270000000  0.4419980000000  0.5233490000000 1.0
C      1  0.5364870000000  0.4382040000000  0.5648520000000 1.0
C      1  0.5298460000000  0.5053450000000  0.4655210000000 1.0
C      1  0.5103280000000  0.4614630000000  0.4877010000000 1.0
C      1  0.5367880000000  0.5742620000000  0.4626140000000 1.0
C      1  0.5237040000000  0.5626390000000  0.4403470000000 1.0
C      1  0.5068910000000  0.4476790000000  0.4148510000000 1.0
C      1  0.5039220000000  0.5379310000000  0.4410790000000 1.0
C      1  0.4836500000000  0.4665550000000  0.4299190000000 1.0
C      1  0.5128140000000  0.4560180000000  0.5757660000000 1.0
C      1  0.5276040000000  0.3937630000000  0.4744730000000 1.0
C      1  0.4990270000000  0.4236470000000  0.5353960000000 1.0
C      1  0.4533010000000  0.5213700000000  0.5172930000000 1.0
C      1  0.5406710000000  0.4316220000000  0.4468420000000 1.0
C      1  0.5346590000000  0.5160500000000  0.5392820000000 1.0
C      1  0.4643260000000  0.5368730000000  0.4919050000000 1.0
C      1  0.5075760000000  0.4797190000000  0.4591470000000 1.0
C      1  0.4877350000000  0.4552090000000  0.5637540000000 1.0
C      1  0.4342220000000  0.4843530000000  0.4531400000000 1.0
C      1  0.4364770000000  0.5441950000000  0.5463060000000 1.0
C      1  0.5220670000000  0.4110890000000  0.4524700000000 1.0
C      1  0.4373930000000  0.4315570000000  0.4700190000000 1.0
C      1  0.4393640000000  0.5595500000000  0.5208380000000 1.0
C      1  0.5233140000000  0.3992250000000  0.5019090000000 1.0
C      1  0.4610280000000  0.5210210000000  0.5504120000000 1.0
C      1  0.5230030000000  0.4675800000000  0.5250200000000 1.0
C      1  0.5677540000000  0.4781000000000  0.5451660000000 1.0
C      1  0.4328510000000  0.5037870000000  0.5008280000000 1.0
C      1  0.4483740000000  0.4835340000000  0.5451950000000 1.0
C      1  0.4551700000000  0.5931880000000  0.4916410000000 1.0
C      1  0.5327240000000  0.5023670000000  0.5684060000000 1.0
C      1  0.5563080000000  0.5720800000000  0.5062890000000 1.0
C      1  0.4972700000000  0.4023590000000  0.5130760000000 1.0
C      1  0.4939110000000  0.5613110000000  0.5562860000000 1.0
C      1  0.5377770000000  0.5065480000000  0.4264840000000 1.0
C      1  0.5747830000000  0.4605830000000  0.4896810000000 1.0
C      1  0.4658200000000  0.5601130000000  0.4139530000000 1.0
C      1  0.5533650000000  0.4556560000000  0.5240480000000 1.0
C      1  0.4476000000000  0.4202950000000  0.4995800000000 1.0
C      1  0.4149000000000  0.5253910000000  0.4876050000000 1.0
C      1  0.4498550000000  0.4321090000000  0.4466030000000 1.0
C      1  0.4420470000000  0.5739450000000  0.4706860000000 1.0
C      1  0.4928000000000  0.5901140000000  0.4789660000000 1.0
C      1  0.5333760000000  0.4768330000000  0.4377070000000 1.0
C      1  0.5526300000000  0.4828070000000  0.4769170000000 1.0
C      1  0.5701650000000  0.5357750000000  0.4745080000000 1.0
C      1  0.5772160000000  0.5041940000000  0.4321860000000 1.0
C      1  0.4833480000000  0.6026700000000  0.5075470000000 1.0
C      1  0.5020960000000  0.5243470000000  0.4705750000000 1.0
C      1  0.5807610000000  0.5175560000000  0.5012230000000 1.0
C      1  0.4549310000000  0.4591050000000  0.4941540000000 1.0
C      1  0.4692900000000  0.5474070000000  0.5973000000000 1.0
C      1  0.4288380000000  0.5105440000000  0.5470060000000 1.0
C      1  0.4709240000000  0.4343580000000  0.5465820000000 1.0
C      1  0.5595500000000  0.5212190000000  0.5700200000000 1.0
C      1  0.4064300000000  0.5214990000000  0.4620250000000 1.0
C      1  0.5553370000000  0.5218940000000  0.4512670000000 1.0
C      1  0.5277850000000  0.5255820000000  0.5011260000000 1.0
C      1  0.5187000000000  0.4933600000000  0.4950520000000 1.0
C      1  0.4772130000000  0.4128410000000  0.4936160000000 1.0
C      1  0.5385480000000  0.4200280000000  0.5141700000000 1.0
C      1  0.4279280000000  0.5533510000000  0.4935160000000 1.0
C      1  0.5546250000000  0.4428930000000  0.4687450000000 1.0
C      1  0.4793330000000  0.3999600000000  0.4661670000000 1.0
C      1  0.4455830000000  0.5403160000000  0.4671300000000 1.0
C      1  0.4961810000000  0.4558680000000  0.5246900000000 1.0
C      1  0.4953770000000  0.5372640000000  0.6015510000000 1.0
C      1  0.5136770000000  0.5450870000000  0.5750940000000 1.0
C      1  0.5400900000000  0.5493760000000  0.5348250000000 1.0
C      1  0.5777880000000  0.5102460000000  0.5500000000000 1.0
C      1  0.5059100000000  0.5133080000000  0.5802480000000 1.0
C      1  0.4929030000000  0.5513980000000  0.4890130000000 1.0
C      1  0.4760900000000  0.4899220000000  0.4534610000000 1.0
C      1  0.4883620000000  0.5029070000000  0.5190590000000 1.0
C      1  0.5418240000000  0.5452260000000  0.5655990000000 1.0
C      1  0.4804360000000  0.4804400000000  0.5421580000000 1.0
C      1  0.5677290000000  0.4910570000000  0.5033930000000 1.0
C      1  0.4579790000000  0.5179420000000  0.4463030000000 1.0
C      1  0.4742100000000  0.5472690000000  0.4402600000000 1.0
C      1  0.5409070000000  0.4930800000000  0.5196290000000 1.0
C      1  0.4251620000000  0.5102200000000  0.4443310000000 1.0
C      1  0.4157540000000  0.4890890000000  0.5233810000000 1.0
C      1  0.5380520000000  0.4460110000000  0.4952510000000 1.0
C      1  0.5465460000000  0.5415910000000  0.4961540000000 1.0
C      1  0.4922660000000  0.4964930000000  0.4175120000000 1.0
C      1  0.5109820000000  0.5158640000000  0.4221720000000 1.0
C      1  0.5837640000000  0.5282970000000  0.5272560000000 1.0
C      1  0.5069410000000  0.5262120000000  0.5250110000000 1.0
C      1  0.4830010000000  0.4455270000000  0.4967450000000 1.0
C      1  0.5234510000000  0.5724070000000  0.5150670000000 1.0
C      1  0.4795800000000  0.5081080000000  0.4903280000000 1.0
C      1  0.5717080000000  0.5536020000000  0.5290920000000 1.0
C      1  0.5859220000000  0.4611400000000  0.5218100000000 1.0
C      1  0.4231970000000  0.4469570000000  0.4954600000000 1.0
END
