TITL C-2848496-4490-552 0.0112912565329884 125000 -81.3180777824467 0 0 16 (C1) n - 1
REM
REM in /home/bkarasulu/work/CARBON/AIRSS/Generating-Clusters/AIREBO/with-SteepDescent/Only-C1/SD-CG-opt/Try1-1.4A-POS3A/HFTN-CG
REM
REM
REM
REM
REM
REM ./C.cell (11c1c37f851c82e70ff6c80c92926a4b)
REM
REM compiler GCC version 9.2.1 20190827 (Red Hat 9.2.1-1)
REM options -cpp -mtune=generic -march=x86-64 -g -O0 -fpre-include=/usr/include/finclude/math-vector-fortran.h
REM seed 1813889769 1352068599 -2122383241 -864797515 71410837 -1404930874 -389362538 -930238914 271764505 348088209 -1796054378 -1320836943 -1132450338 5119342 1566749351 -1565575520 1506468278 944232190 294686807 -555869467 109098213 -1455732360 -2034521847 -1627959751 -1057385912 -1270678209 -61301438 -448205221 929173256 769983084 -1461280956 871089937 1748823380
REM
CELL 1.54180   50.00000   50.00000   50.00000   90.00000   90.00000   90.00000
LATT -1
SFAC C  
C      1  0.5081140000000  0.4570330000000  0.4806110000000 1.0
C      1  0.5359230000000  0.5044010000000  0.5586340000000 1.0
C      1  0.4761980000000  0.5323150000000  0.4643560000000 1.0
C      1  0.4659010000000  0.5431050000000  0.4418270000000 1.0
C      1  0.4904980000000  0.4302660000000  0.5160880000000 1.0
C      1  0.4833870000000  0.5055360000000  0.4651830000000 1.0
C      1  0.5137970000000  0.4433690000000  0.5061480000000 1.0
C      1  0.4950110000000  0.5897140000000  0.5526870000000 1.0
C      1  0.4927850000000  0.4804170000000  0.4652610000000 1.0
C      1  0.5284240000000  0.4845190000000  0.5432890000000 1.0
C      1  0.5229510000000  0.4649840000000  0.5263970000000 1.0
C      1  0.4840940000000  0.5628510000000  0.5085770000000 1.0
C      1  0.5352790000000  0.4247860000000  0.5026200000000 1.0
C      1  0.4884460000000  0.5760670000000  0.5312930000000 1.0
C      1  0.4789830000000  0.5475960000000  0.4873460000000 1.0
C      1  0.5002100000000  0.4530390000000  0.4496830000000 1.0
END
