TITL C-2847953-8112-352 -0.000628044869940201 125000 -459.659213907927 0 0 84 (C1) n - 1
REM
REM in /home/bkarasulu/work/CARBON/AIRSS/Generating-Clusters/AIREBO/with-SteepDescent/Only-C1/SD-CG-opt/Try1-1.4A-POS3A/HFTN-CG
REM
REM
REM
REM
REM
REM ./C.cell (11c1c37f851c82e70ff6c80c92926a4b)
REM
REM compiler GCC version 9.2.1 20190827 (Red Hat 9.2.1-1)
REM options -cpp -mtune=generic -march=x86-64 -g -O0 -fpre-include=/usr/include/finclude/math-vector-fortran.h
REM seed -1948316767 -1766397121 -1816015653 -520794144 1128771698 220224491 -264130494 940570390 111720211 1683398453 -2084780255 -2094357267 1476070073 398740011 -1446472004 -1636478459 115336370 -1497740980 1062036899 1727666469 -1461927028 -303026499 419050810 -375861786 -318510514 965582167 -1307798296 -2004171582 -1763769529 268086844 946237277 -1598635361 1788155360
REM
CELL 1.54180   50.00000   50.00000   50.00000   90.00000   90.00000   90.00000
LATT -1
SFAC C  
C      1  0.4742320000000  0.5150540000000  0.5396370000000 1.0
C      1  0.5255560000000  0.5782310000000  0.5123250000000 1.0
C      1  0.5368300000000  0.5710080000000  0.4670280000000 1.0
C      1  0.4860730000000  0.4987970000000  0.4084260000000 1.0
C      1  0.4982420000000  0.4971180000000  0.5861720000000 1.0
C      1  0.5137290000000  0.5093660000000  0.5391210000000 1.0
C      1  0.4864750000000  0.5310470000000  0.5122340000000 1.0
C      1  0.4887050000000  0.4567450000000  0.5585610000000 1.0
C      1  0.4385740000000  0.4649630000000  0.4371200000000 1.0
C      1  0.4415160000000  0.5140470000000  0.5166670000000 1.0
C      1  0.5617070000000  0.4411200000000  0.4463480000000 1.0
C      1  0.5419760000000  0.5844280000000  0.4914620000000 1.0
C      1  0.4400830000000  0.4500620000000  0.5116040000000 1.0
C      1  0.5339770000000  0.4346020000000  0.5590430000000 1.0
C      1  0.5498400000000  0.5066850000000  0.4252270000000 1.0
C      1  0.5423300000000  0.4841890000000  0.4406970000000 1.0
C      1  0.4875230000000  0.5812870000000  0.5512980000000 1.0
C      1  0.6005290000000  0.5003030000000  0.5309630000000 1.0
C      1  0.5354430000000  0.4838200000000  0.5334000000000 1.0
C      1  0.5064060000000  0.5156910000000  0.4650230000000 1.0
C      1  0.4958900000000  0.4603910000000  0.4683340000000 1.0
C      1  0.4630050000000  0.5508900000000  0.5001580000000 1.0
C      1  0.4762760000000  0.5787790000000  0.5254810000000 1.0
C      1  0.5328490000000  0.4949400000000  0.4701440000000 1.0
C      1  0.4886610000000  0.5220610000000  0.5966040000000 1.0
C      1  0.5507540000000  0.5433630000000  0.4602810000000 1.0
C      1  0.4526260000000  0.4871250000000  0.5582330000000 1.0
C      1  0.4941420000000  0.5058410000000  0.4348420000000 1.0
C      1  0.4517950000000  0.4076710000000  0.4318020000000 1.0
C      1  0.5124740000000  0.4176200000000  0.5269760000000 1.0
C      1  0.4628290000000  0.4816790000000  0.4824340000000 1.0
C      1  0.4423660000000  0.5389920000000  0.5368130000000 1.0
C      1  0.4497320000000  0.5637680000000  0.5236510000000 1.0
C      1  0.4702390000000  0.5029010000000  0.5021680000000 1.0
C      1  0.5307560000000  0.5830870000000  0.5639660000000 1.0
C      1  0.4728680000000  0.5690760000000  0.4793660000000 1.0
C      1  0.5086480000000  0.5650670000000  0.4621320000000 1.0
C      1  0.5007180000000  0.4939130000000  0.5144350000000 1.0
C      1  0.5760400000000  0.5069830000000  0.5329200000000 1.0
C      1  0.4904920000000  0.4122650000000  0.5046790000000 1.0
C      1  0.5228980000000  0.4607710000000  0.5116130000000 1.0
C      1  0.4405150000000  0.5141800000000  0.4565760000000 1.0
C      1  0.5019040000000  0.4310060000000  0.5559000000000 1.0
C      1  0.5085310000000  0.5393470000000  0.5367650000000 1.0
C      1  0.4965940000000  0.5555700000000  0.4387820000000 1.0
C      1  0.4378390000000  0.4652520000000  0.4886580000000 1.0
C      1  0.4684860000000  0.5542310000000  0.4359140000000 1.0
C      1  0.4476420000000  0.5379950000000  0.4430420000000 1.0
C      1  0.5309310000000  0.4485990000000  0.4115800000000 1.0
C      1  0.5448580000000  0.4575200000000  0.4329840000000 1.0
C      1  0.5400170000000  0.5403310000000  0.4924090000000 1.0
C      1  0.5845510000000  0.5054920000000  0.4702840000000 1.0
C      1  0.4970120000000  0.5566970000000  0.5617260000000 1.0
C      1  0.5208140000000  0.4995830000000  0.5694930000000 1.0
C      1  0.4806930000000  0.4842210000000  0.4546510000000 1.0
C      1  0.4777830000000  0.3973670000000  0.5286240000000 1.0
C      1  0.4470610000000  0.3858260000000  0.4182820000000 1.0
C      1  0.4841160000000  0.4332570000000  0.4750650000000 1.0
C      1  0.5385830000000  0.5312420000000  0.4332790000000 1.0
C      1  0.4936340000000  0.4454600000000  0.5053460000000 1.0
C      1  0.5580440000000  0.5550350000000  0.5139380000000 1.0
C      1  0.4355170000000  0.5149260000000  0.4844120000000 1.0
C      1  0.4496790000000  0.4891820000000  0.4457440000000 1.0
C      1  0.4597290000000  0.5312800000000  0.5596390000000 1.0
C      1  0.4789970000000  0.5414340000000  0.5780230000000 1.0
C      1  0.5295820000000  0.5648590000000  0.5399900000000 1.0
C      1  0.5501940000000  0.5066910000000  0.5538090000000 1.0
C      1  0.4975470000000  0.5707210000000  0.5027020000000 1.0
C      1  0.4482570000000  0.4392540000000  0.4355260000000 1.0
C      1  0.5192570000000  0.4679150000000  0.4813400000000 1.0
C      1  0.5499000000000  0.5383730000000  0.5412070000000 1.0
C      1  0.4668700000000  0.4221080000000  0.4559040000000 1.0
C      1  0.5491630000000  0.5166140000000  0.5150910000000 1.0
C      1  0.4845790000000  0.4041890000000  0.5522470000000 1.0
C      1  0.4693860000000  0.4623100000000  0.5129840000000 1.0
C      1  0.4786110000000  0.4814270000000  0.5370550000000 1.0
C      1  0.5064490000000  0.5419120000000  0.4869360000000 1.0
C      1  0.5382080000000  0.4249180000000  0.5205270000000 1.0
C      1  0.5109870000000  0.5332360000000  0.4296280000000 1.0
C      1  0.4775730000000  0.4785840000000  0.5768280000000 1.0
C      1  0.5598890000000  0.5140210000000  0.4699930000000 1.0
C      1  0.5463020000000  0.4529880000000  0.5350160000000 1.0
C      1  0.5259920000000  0.5038310000000  0.5004350000000 1.0
C      1  0.4319180000000  0.4952690000000  0.5422780000000 1.0
END
