TITL C-2847956-8218-156 -2.75980658663309e-05 125000 -1007.47233546838 0 0 190 (C1) n - 1
REM
REM in /home/bkarasulu/work/CARBON/AIRSS/Generating-Clusters/AIREBO/with-SteepDescent/Only-C1/SD-CG-opt/Try1-1.4A-POS3A/HFTN-CG
REM
REM
REM
REM
REM
REM ./C.cell (11c1c37f851c82e70ff6c80c92926a4b)
REM
REM compiler GCC version 9.2.1 20190827 (Red Hat 9.2.1-1)
REM options -cpp -mtune=generic -march=x86-64 -g -O0 -fpre-include=/usr/include/finclude/math-vector-fortran.h
REM seed -1637361114 -76982054 -1032861495 1484032480 -319971294 694505733 2106637618 979714296 -1574747133 -473823370 1519022798 1902008468 639393197 -298501592 -1274700281 -1085994118 -1331052266 521813379 738866110 1485223699 -707641141 1717556112 -1498069288 1772335730 77574905 1799330191 -1823232451 -155295380 -1856116713 660053638 -1629472595 2132887255 -163306560
REM
CELL 1.54180   50.00000   50.00000   50.00000   90.00000   90.00000   90.00000
LATT -1
SFAC C  
C      1  0.4107310000000  0.4859230000000  0.5336870000000 1.0
C      1  0.4551030000000  0.4984210000000  0.5612960000000 1.0
C      1  0.4712270000000  0.4299570000000  0.5706920000000 1.0
C      1  0.5550370000000  0.4631180000000  0.4370030000000 1.0
C      1  0.4560130000000  0.6021670000000  0.4514150000000 1.0
C      1  0.4310010000000  0.5862430000000  0.4981380000000 1.0
C      1  0.5500620000000  0.5411350000000  0.5927110000000 1.0
C      1  0.6166650000000  0.5149600000000  0.4733530000000 1.0
C      1  0.5544110000000  0.4580370000000  0.5077360000000 1.0
C      1  0.4378910000000  0.5243250000000  0.5218230000000 1.0
C      1  0.4007910000000  0.5505560000000  0.4835670000000 1.0
C      1  0.4633360000000  0.5441960000000  0.5111350000000 1.0
C      1  0.3939610000000  0.4742060000000  0.5064790000000 1.0
C      1  0.4195590000000  0.4973230000000  0.4853640000000 1.0
C      1  0.4592150000000  0.5015160000000  0.4855170000000 1.0
C      1  0.4954620000000  0.4721820000000  0.5271960000000 1.0
C      1  0.4981250000000  0.4730250000000  0.6211800000000 1.0
C      1  0.5468880000000  0.4138250000000  0.4571130000000 1.0
C      1  0.4173780000000  0.4362650000000  0.5335350000000 1.0
C      1  0.4706810000000  0.5161450000000  0.5421600000000 1.0
C      1  0.5349300000000  0.5377280000000  0.4409060000000 1.0
C      1  0.5220250000000  0.3800020000000  0.4595320000000 1.0
C      1  0.5754130000000  0.5432980000000  0.5683980000000 1.0
C      1  0.4231930000000  0.5028680000000  0.5603750000000 1.0
C      1  0.5032760000000  0.5592320000000  0.4816490000000 1.0
C      1  0.4662880000000  0.4655300000000  0.3977970000000 1.0
C      1  0.4778350000000  0.5338390000000  0.4059580000000 1.0
C      1  0.4795240000000  0.4335530000000  0.5091930000000 1.0
C      1  0.4457840000000  0.5660800000000  0.5509420000000 1.0
C      1  0.5768750000000  0.4392860000000  0.4135430000000 1.0
C      1  0.4606750000000  0.5388880000000  0.5783460000000 1.0
C      1  0.5228440000000  0.4851020000000  0.5426870000000 1.0
C      1  0.4994980000000  0.4119820000000  0.4673970000000 1.0
C      1  0.4338830000000  0.4443180000000  0.4309970000000 1.0
C      1  0.4596340000000  0.4371290000000  0.4099920000000 1.0
C      1  0.5729000000000  0.4364200000000  0.5250950000000 1.0
C      1  0.4941860000000  0.5776130000000  0.4267650000000 1.0
C      1  0.4520030000000  0.4001560000000  0.4449080000000 1.0
C      1  0.4289970000000  0.5755090000000  0.4392060000000 1.0
C      1  0.4785150000000  0.5159310000000  0.6082060000000 1.0
C      1  0.5593960000000  0.4834810000000  0.5267530000000 1.0
C      1  0.5556860000000  0.4127800000000  0.5289040000000 1.0
C      1  0.5257480000000  0.3860760000000  0.4872160000000 1.0
C      1  0.5345950000000  0.4474620000000  0.4748670000000 1.0
C      1  0.4931490000000  0.4389820000000  0.5839020000000 1.0
C      1  0.4351100000000  0.5250360000000  0.4808210000000 1.0
C      1  0.4342210000000  0.4259330000000  0.4897340000000 1.0
C      1  0.5885080000000  0.4989080000000  0.4509360000000 1.0
C      1  0.4933870000000  0.5392890000000  0.5689680000000 1.0
C      1  0.5259400000000  0.4984260000000  0.5115460000000 1.0
C      1  0.4930720000000  0.5073480000000  0.4200320000000 1.0
C      1  0.5115920000000  0.4838280000000  0.5737040000000 1.0
C      1  0.3929040000000  0.4687090000000  0.4786620000000 1.0
C      1  0.4617570000000  0.3999590000000  0.5267190000000 1.0
C      1  0.4745710000000  0.5499460000000  0.5427140000000 1.0
C      1  0.5388410000000  0.4166140000000  0.4885900000000 1.0
C      1  0.5873600000000  0.5239970000000  0.5277260000000 1.0
C      1  0.5632790000000  0.5839710000000  0.4146410000000 1.0
C      1  0.5248770000000  0.5710570000000  0.5846110000000 1.0
C      1  0.3960120000000  0.4960490000000  0.4586470000000 1.0
C      1  0.4960900000000  0.5068040000000  0.5226580000000 1.0
C      1  0.5014060000000  0.5318210000000  0.4421330000000 1.0
C      1  0.5284840000000  0.4343200000000  0.5493950000000 1.0
C      1  0.5779500000000  0.5031060000000  0.5078310000000 1.0
C      1  0.5241610000000  0.5575750000000  0.5084280000000 1.0
C      1  0.4443640000000  0.5923710000000  0.5431240000000 1.0
C      1  0.5422550000000  0.5689550000000  0.4295900000000 1.0
C      1  0.5894860000000  0.4591430000000  0.5424600000000 1.0
C      1  0.5468550000000  0.4404540000000  0.4130070000000 1.0
C      1  0.5984650000000  0.4320070000000  0.5057190000000 1.0
C      1  0.5315880000000  0.5178450000000  0.4066310000000 1.0
C      1  0.4490870000000  0.5297560000000  0.4084480000000 1.0
C      1  0.5060950000000  0.4542030000000  0.4617860000000 1.0
C      1  0.4611560000000  0.5774970000000  0.4309390000000 1.0
C      1  0.4857200000000  0.4869560000000  0.3975280000000 1.0
C      1  0.5084490000000  0.4269410000000  0.4970580000000 1.0
C      1  0.5785380000000  0.5739430000000  0.5062730000000 1.0
C      1  0.5590930000000  0.5349290000000  0.4171310000000 1.0
C      1  0.4928720000000  0.5745210000000  0.5912850000000 1.0
C      1  0.4129240000000  0.4250690000000  0.5116230000000 1.0
C      1  0.4266270000000  0.6038600000000  0.4554470000000 1.0
C      1  0.4221820000000  0.5162380000000  0.4506310000000 1.0
C      1  0.3894640000000  0.5254300000000  0.5018250000000 1.0
C      1  0.5466550000000  0.5340610000000  0.4787730000000 1.0
C      1  0.4573070000000  0.4034430000000  0.4943050000000 1.0
C      1  0.4305860000000  0.4233410000000  0.4575760000000 1.0
C      1  0.5440550000000  0.6008820000000  0.5353240000000 1.0
C      1  0.5227610000000  0.4992310000000  0.4337080000000 1.0
C      1  0.4794070000000  0.5907420000000  0.5737580000000 1.0
C      1  0.5020180000000  0.5007160000000  0.6106740000000 1.0
C      1  0.4553460000000  0.5027280000000  0.6008910000000 1.0
C      1  0.5469090000000  0.5093150000000  0.5437270000000 1.0
C      1  0.4543940000000  0.4499570000000  0.4973590000000 1.0
C      1  0.4291440000000  0.4718260000000  0.4201850000000 1.0
C      1  0.5126830000000  0.5885150000000  0.5309490000000 1.0
C      1  0.3726770000000  0.5002460000000  0.4405210000000 1.0
C      1  0.4885610000000  0.5260590000000  0.4981730000000 1.0
C      1  0.5119110000000  0.4992300000000  0.4659360000000 1.0
C      1  0.4697640000000  0.6050510000000  0.5243970000000 1.0
C      1  0.5703020000000  0.4700610000000  0.5627160000000 1.0
C      1  0.5481130000000  0.5617360000000  0.4623050000000 1.0
C      1  0.4935630000000  0.4527440000000  0.4239950000000 1.0
C      1  0.4160090000000  0.5483580000000  0.4531770000000 1.0
C      1  0.5631210000000  0.5131110000000  0.5678290000000 1.0
C      1  0.5849450000000  0.5389470000000  0.4250390000000 1.0
C      1  0.4614590000000  0.4764370000000  0.4633940000000 1.0
C      1  0.5836760000000  0.4722190000000  0.4947930000000 1.0
C      1  0.5841090000000  0.4466960000000  0.4441980000000 1.0
C      1  0.5254410000000  0.4783380000000  0.4867700000000 1.0
C      1  0.5283860000000  0.5674270000000  0.5530370000000 1.0
C      1  0.5183470000000  0.5322390000000  0.5909630000000 1.0
C      1  0.4928620000000  0.5709840000000  0.5095760000000 1.0
C      1  0.5219500000000  0.4120510000000  0.5245310000000 1.0
C      1  0.5579620000000  0.5702100000000  0.5796880000000 1.0
C      1  0.5685910000000  0.5164450000000  0.6020570000000 1.0
C      1  0.5176060000000  0.4298170000000  0.5738840000000 1.0
C      1  0.5441580000000  0.4600370000000  0.5461120000000 1.0
C      1  0.4676680000000  0.4738800000000  0.4307350000000 1.0
C      1  0.4874920000000  0.4199800000000  0.4172220000000 1.0
C      1  0.5360240000000  0.5400770000000  0.5341170000000 1.0
C      1  0.4769930000000  0.6011980000000  0.4709870000000 1.0
C      1  0.4301360000000  0.5432030000000  0.5926740000000 1.0
C      1  0.5518040000000  0.5091330000000  0.4482720000000 1.0
C      1  0.5206720000000  0.4552930000000  0.5113110000000 1.0
C      1  0.5942080000000  0.4454000000000  0.4767020000000 1.0
C      1  0.5671930000000  0.5494140000000  0.5269150000000 1.0
C      1  0.4331320000000  0.5567650000000  0.4881610000000 1.0
C      1  0.5193530000000  0.4304920000000  0.4179210000000 1.0
C      1  0.5463170000000  0.3867100000000  0.5111100000000 1.0
C      1  0.6163400000000  0.4943420000000  0.5008040000000 1.0
C      1  0.6004110000000  0.5466530000000  0.5482060000000 1.0
C      1  0.4622220000000  0.4648760000000  0.5268960000000 1.0
C      1  0.4317820000000  0.4627120000000  0.5420270000000 1.0
C      1  0.4925340000000  0.5771150000000  0.4596150000000 1.0
C      1  0.5113960000000  0.5572690000000  0.6129020000000 1.0
C      1  0.5998590000000  0.5268270000000  0.4462350000000 1.0
C      1  0.5149870000000  0.5639930000000  0.4154950000000 1.0
C      1  0.4369050000000  0.5334510000000  0.5545800000000 1.0
C      1  0.6026220000000  0.4755150000000  0.5228360000000 1.0
C      1  0.4828690000000  0.5162410000000  0.4660230000000 1.0
C      1  0.5637820000000  0.5054240000000  0.4792850000000 1.0
C      1  0.4554820000000  0.5221160000000  0.4467430000000 1.0
C      1  0.4285480000000  0.5468430000000  0.4209270000000 1.0
C      1  0.5045600000000  0.3857460000000  0.5117720000000 1.0
C      1  0.5581190000000  0.5833510000000  0.4805470000000 1.0
C      1  0.5690240000000  0.4284260000000  0.4657290000000 1.0
C      1  0.4797590000000  0.5465350000000  0.6054650000000 1.0
C      1  0.5538930000000  0.4747290000000  0.4685060000000 1.0
C      1  0.4955370000000  0.4601940000000  0.6445790000000 1.0
C      1  0.4697010000000  0.4236640000000  0.4718920000000 1.0
C      1  0.6015760000000  0.5693280000000  0.5308570000000 1.0
C      1  0.5132910000000  0.6063620000000  0.5020030000000 1.0
C      1  0.4829450000000  0.5827160000000  0.5463930000000 1.0
C      1  0.4855750000000  0.6090900000000  0.4962870000000 1.0
C      1  0.4596620000000  0.5779450000000  0.5091980000000 1.0
C      1  0.5300250000000  0.5012630000000  0.5918600000000 1.0
C      1  0.4799590000000  0.4550370000000  0.4755240000000 1.0
C      1  0.5787680000000  0.3666330000000  0.5525590000000 1.0
C      1  0.5084420000000  0.5288470000000  0.5435860000000 1.0
C      1  0.4808120000000  0.4019790000000  0.4407200000000 1.0
C      1  0.4049020000000  0.5589980000000  0.5162960000000 1.0
C      1  0.5458680000000  0.5789690000000  0.5108760000000 1.0
C      1  0.4913150000000  0.4679500000000  0.5904020000000 1.0
C      1  0.5212610000000  0.4666490000000  0.4352220000000 1.0
C      1  0.4119220000000  0.5093610000000  0.5123220000000 1.0
C      1  0.4392350000000  0.4614080000000  0.5722860000000 1.0
C      1  0.5606310000000  0.4867160000000  0.5883760000000 1.0
C      1  0.4787730000000  0.3779500000000  0.4983920000000 1.0
C      1  0.5612210000000  0.5742060000000  0.5473890000000 1.0
C      1  0.6058420000000  0.4831220000000  0.4713020000000 1.0
C      1  0.5683130000000  0.4902660000000  0.4262450000000 1.0
C      1  0.5358420000000  0.6084440000000  0.4862450000000 1.0
C      1  0.4322670000000  0.4730580000000  0.4734010000000 1.0
C      1  0.4116270000000  0.5494870000000  0.5384230000000 1.0
C      1  0.5202940000000  0.4076170000000  0.4407870000000 1.0
C      1  0.4319260000000  0.5140220000000  0.5903500000000 1.0
C      1  0.4643640000000  0.4381150000000  0.4436510000000 1.0
C      1  0.4140850000000  0.4506780000000  0.4658700000000 1.0
C      1  0.4633720000000  0.4775220000000  0.5850840000000 1.0
C      1  0.5655410000000  0.3819850000000  0.5372500000000 1.0
C      1  0.4578170000000  0.4971900000000  0.5170170000000 1.0
C      1  0.4733410000000  0.4354510000000  0.5404970000000 1.0
C      1  0.4469300000000  0.4996110000000  0.4227160000000 1.0
C      1  0.4905190000000  0.4064220000000  0.5362250000000 1.0
C      1  0.5088400000000  0.5396960000000  0.4031510000000 1.0
C      1  0.4633870000000  0.5523910000000  0.4781360000000 1.0
C      1  0.5579720000000  0.4990150000000  0.3999960000000 1.0
C      1  0.4189440000000  0.6041130000000  0.4823460000000 1.0
C      1  0.4739790000000  0.5509100000000  0.4484140000000 1.0
C      1  0.5173830000000  0.5291150000000  0.4811970000000 1.0
END
