TITL C-2848499-1157-535 -0.000372274736587613 125000 -292.882333854354 0 0 55 (C1) n - 1
REM
REM in /home/bkarasulu/work/CARBON/AIRSS/Generating-Clusters/AIREBO/with-SteepDescent/Only-C1/SD-CG-opt/Try1-1.4A-POS3A/HFTN-CG
REM
REM
REM
REM
REM
REM ./C.cell (11c1c37f851c82e70ff6c80c92926a4b)
REM
REM compiler GCC version 9.2.1 20190827 (Red Hat 9.2.1-1)
REM options -cpp -mtune=generic -march=x86-64 -g -O0 -fpre-include=/usr/include/finclude/math-vector-fortran.h
REM seed 1148604638 -326661954 1691568047 1740533166 -662927119 1539254114 -1604589085 1809501896 1466849702 -938596737 55858734 2116595543 -713620627 -1776186271 -591631125 -1247740810 1897537816 1483128362 -1204446242 -655147607 -533257661 -45262886 -1170043858 -1966741934 1707154417 1747155934 8847191 202574046 404111337 195136025 1782230451 1901627687 -2047930254
REM
CELL 1.54180   50.00000   50.00000   50.00000   90.00000   90.00000   90.00000
LATT -1
SFAC C  
C      1  0.5226520000000  0.4819080000000  0.5229490000000 1.0
C      1  0.4315390000000  0.4782500000000  0.5231570000000 1.0
C      1  0.5550700000000  0.5302040000000  0.4840580000000 1.0
C      1  0.5141360000000  0.5491880000000  0.5209250000000 1.0
C      1  0.4667790000000  0.4953370000000  0.5166610000000 1.0
C      1  0.5254440000000  0.4417760000000  0.5307640000000 1.0
C      1  0.5094370000000  0.4844300000000  0.5603370000000 1.0
C      1  0.5464850000000  0.4859020000000  0.4608170000000 1.0
C      1  0.5245870000000  0.4550190000000  0.5523550000000 1.0
C      1  0.4951290000000  0.5545040000000  0.4983780000000 1.0
C      1  0.5426550000000  0.5467110000000  0.5110720000000 1.0
C      1  0.4497240000000  0.5566290000000  0.4739340000000 1.0
C      1  0.5139340000000  0.4783070000000  0.4670810000000 1.0
C      1  0.4977350000000  0.5412930000000  0.5441020000000 1.0
C      1  0.4830030000000  0.4679900000000  0.4574300000000 1.0
C      1  0.4342700000000  0.4975730000000  0.5005980000000 1.0
C      1  0.5437390000000  0.5615310000000  0.4803590000000 1.0
C      1  0.5066260000000  0.5097220000000  0.4778710000000 1.0
C      1  0.5406240000000  0.5335190000000  0.4408290000000 1.0
C      1  0.4784150000000  0.5273820000000  0.4965590000000 1.0
C      1  0.4452440000000  0.5287860000000  0.4927280000000 1.0
C      1  0.5216790000000  0.4375270000000  0.4972260000000 1.0
C      1  0.4569050000000  0.4146430000000  0.5267660000000 1.0
C      1  0.4736130000000  0.5748560000000  0.5089850000000 1.0
C      1  0.5578860000000  0.5339280000000  0.5360720000000 1.0
C      1  0.4823920000000  0.4404660000000  0.4544870000000 1.0
C      1  0.4843950000000  0.4880370000000  0.4921430000000 1.0
C      1  0.5326380000000  0.5086080000000  0.5646050000000 1.0
C      1  0.4926620000000  0.4711490000000  0.5349290000000 1.0
C      1  0.5095380000000  0.4673670000000  0.4989720000000 1.0
C      1  0.4439750000000  0.4556660000000  0.4878280000000 1.0
C      1  0.4391640000000  0.5435640000000  0.5229100000000 1.0
C      1  0.5022660000000  0.4254350000000  0.4714560000000 1.0
C      1  0.4425530000000  0.5053060000000  0.4682650000000 1.0
C      1  0.5263700000000  0.5521810000000  0.4572660000000 1.0
C      1  0.4680630000000  0.5560840000000  0.5365100000000 1.0
C      1  0.5469890000000  0.4410820000000  0.4740290000000 1.0
C      1  0.5622180000000  0.4648600000000  0.4726880000000 1.0
C      1  0.4592860000000  0.4790110000000  0.4743130000000 1.0
C      1  0.5695740000000  0.5067660000000  0.5347960000000 1.0
C      1  0.5739490000000  0.4724970000000  0.4968760000000 1.0
C      1  0.4696600000000  0.5438390000000  0.4561020000000 1.0
C      1  0.4585350000000  0.4734170000000  0.5382140000000 1.0
C      1  0.4713830000000  0.4450580000000  0.5301880000000 1.0
C      1  0.5305210000000  0.5143460000000  0.5311580000000 1.0
C      1  0.4666270000000  0.5239660000000  0.5261780000000 1.0
C      1  0.4583270000000  0.5208760000000  0.4457640000000 1.0
C      1  0.5548180000000  0.4884960000000  0.5139850000000 1.0
C      1  0.5342240000000  0.5100600000000  0.4975930000000 1.0
C      1  0.4515530000000  0.4367910000000  0.5047270000000 1.0
C      1  0.4998270000000  0.5413570000000  0.4673750000000 1.0
C      1  0.5216790000000  0.4463530000000  0.4583890000000 1.0
C      1  0.5523770000000  0.5126290000000  0.4573700000000 1.0
C      1  0.5023500000000  0.5183720000000  0.5590720000000 1.0
C      1  0.4547800000000  0.5794440000000  0.4898000000000 1.0
END
