TITL C-2848509-3138-534 0.00241355456901346 125000 -866.443508648154 0 0 159 (C1) n - 1
REM
REM in /home/bkarasulu/work/CARBON/AIRSS/Generating-Clusters/AIREBO/with-SteepDescent/Only-C1/SD-CG-opt/Try1-1.4A-POS3A/HFTN-CG
REM
REM
REM
REM
REM
REM ./C.cell (11c1c37f851c82e70ff6c80c92926a4b)
REM
REM compiler GCC version 9.2.1 20190827 (Red Hat 9.2.1-1)
REM options -cpp -mtune=generic -march=x86-64 -g -O0 -fpre-include=/usr/include/finclude/math-vector-fortran.h
REM seed 316661868 982348487 168860631 1749303957 233512293 -1286379036 -766710522 1647672964 -212492369 1438373550 -1858652595 1996572375 695442122 1130864926 -390148830 2099684360 1887590421 748046888 1385175523 -194092176 -41487646 -1640103797 -1126271118 1102807373 -16116113 160824316 -1749930032 -971642659 1175211359 -1291430639 913485566 -1016556152 265719125
REM
CELL 1.54180   50.00000   50.00000   50.00000   90.00000   90.00000   90.00000
LATT -1
SFAC C  
C      1  0.4503370000000  0.4208570000000  0.4704670000000 1.0
C      1  0.4832440000000  0.4189700000000  0.4788650000000 1.0
C      1  0.4554300000000  0.4566410000000  0.5477030000000 1.0
C      1  0.5976360000000  0.5103720000000  0.5156630000000 1.0
C      1  0.4818880000000  0.4570540000000  0.5056450000000 1.0
C      1  0.5737150000000  0.4112700000000  0.4999630000000 1.0
C      1  0.5415970000000  0.5274980000000  0.5907860000000 1.0
C      1  0.4834260000000  0.4768790000000  0.5258550000000 1.0
C      1  0.4398560000000  0.5715490000000  0.4882690000000 1.0
C      1  0.5511210000000  0.4982940000000  0.4620430000000 1.0
C      1  0.5639470000000  0.5502040000000  0.4407850000000 1.0
C      1  0.5391840000000  0.4411970000000  0.4809160000000 1.0
C      1  0.5048290000000  0.4787160000000  0.4759060000000 1.0
C      1  0.4310980000000  0.4827130000000  0.4202400000000 1.0
C      1  0.4777120000000  0.4008200000000  0.5070790000000 1.0
C      1  0.5639930000000  0.4583490000000  0.5577030000000 1.0
C      1  0.4203710000000  0.4599090000000  0.4311280000000 1.0
C      1  0.4703780000000  0.5731680000000  0.5662380000000 1.0
C      1  0.4234600000000  0.5286730000000  0.4422490000000 1.0
C      1  0.4342990000000  0.6205960000000  0.4815190000000 1.0
C      1  0.5104910000000  0.4529830000000  0.4067070000000 1.0
C      1  0.4696370000000  0.5187030000000  0.4431250000000 1.0
C      1  0.4797660000000  0.5010490000000  0.4827830000000 1.0
C      1  0.5827320000000  0.5517360000000  0.5219130000000 1.0
C      1  0.4997580000000  0.4512130000000  0.4379750000000 1.0
C      1  0.4193030000000  0.5078150000000  0.4254530000000 1.0
C      1  0.4340950000000  0.4294770000000  0.4946910000000 1.0
C      1  0.5147960000000  0.5688350000000  0.4905780000000 1.0
C      1  0.5861530000000  0.5168040000000  0.4673100000000 1.0
C      1  0.4882870000000  0.4681460000000  0.5970950000000 1.0
C      1  0.5211980000000  0.4858190000000  0.5048580000000 1.0
C      1  0.4498250000000  0.5435440000000  0.4386410000000 1.0
C      1  0.5104810000000  0.5548970000000  0.4415600000000 1.0
C      1  0.5812910000000  0.5082250000000  0.5454130000000 1.0
C      1  0.4069730000000  0.5454010000000  0.5222870000000 1.0
C      1  0.5232110000000  0.4794550000000  0.4014130000000 1.0
C      1  0.4787660000000  0.4784290000000  0.5567640000000 1.0
C      1  0.5594830000000  0.5269840000000  0.5272870000000 1.0
C      1  0.5257010000000  0.5515620000000  0.5727380000000 1.0
C      1  0.4348940000000  0.4331940000000  0.4445500000000 1.0
C      1  0.4385500000000  0.5553010000000  0.5163170000000 1.0
C      1  0.4662020000000  0.5476520000000  0.4124210000000 1.0
C      1  0.3862990000000  0.5007450000000  0.4978760000000 1.0
C      1  0.5622790000000  0.4449890000000  0.4207550000000 1.0
C      1  0.6057660000000  0.5208610000000  0.5596860000000 1.0
C      1  0.5573300000000  0.5851710000000  0.5014890000000 1.0
C      1  0.4169210000000  0.5072700000000  0.5767740000000 1.0
C      1  0.4173360000000  0.4558600000000  0.4629920000000 1.0
C      1  0.4317620000000  0.5186820000000  0.5974530000000 1.0
C      1  0.5208150000000  0.4022520000000  0.4616550000000 1.0
C      1  0.5249630000000  0.4841670000000  0.4510620000000 1.0
C      1  0.5500570000000  0.4585420000000  0.5076340000000 1.0
C      1  0.4603330000000  0.4089170000000  0.5264490000000 1.0
C      1  0.4630570000000  0.4714410000000  0.4840400000000 1.0
C      1  0.5311030000000  0.4335660000000  0.4250340000000 1.0
C      1  0.5293040000000  0.5379560000000  0.5161070000000 1.0
C      1  0.6018100000000  0.4539390000000  0.4681610000000 1.0
C      1  0.4420410000000  0.5684430000000  0.5667540000000 1.0
C      1  0.4920500000000  0.4498440000000  0.4676530000000 1.0
C      1  0.4693620000000  0.5342150000000  0.5505070000000 1.0
C      1  0.5144700000000  0.4097420000000  0.4358210000000 1.0
C      1  0.4991880000000  0.4354940000000  0.5113550000000 1.0
C      1  0.5289640000000  0.5255470000000  0.4863120000000 1.0
C      1  0.4692490000000  0.5079010000000  0.5684900000000 1.0
C      1  0.5516110000000  0.5854850000000  0.4544040000000 1.0
C      1  0.4985820000000  0.5961180000000  0.5166250000000 1.0
C      1  0.4664980000000  0.4138070000000  0.5758270000000 1.0
C      1  0.5013960000000  0.5256330000000  0.5283150000000 1.0
C      1  0.4229750000000  0.5249840000000  0.4736420000000 1.0
C      1  0.4996270000000  0.5245790000000  0.4450950000000 1.0
C      1  0.5680600000000  0.4733310000000  0.4313190000000 1.0
C      1  0.4992450000000  0.5505200000000  0.5513850000000 1.0
C      1  0.4398140000000  0.4688790000000  0.5245850000000 1.0
C      1  0.4912110000000  0.5985960000000  0.4619290000000 1.0
C      1  0.4347680000000  0.4143180000000  0.5167680000000 1.0
C      1  0.4620460000000  0.4613610000000  0.5962510000000 1.0
C      1  0.5165510000000  0.5484970000000  0.4026410000000 1.0
C      1  0.4893120000000  0.5518780000000  0.4872730000000 1.0
C      1  0.5263490000000  0.4765850000000  0.5887680000000 1.0
C      1  0.5306870000000  0.4219870000000  0.5534600000000 1.0
C      1  0.5108580000000  0.6014710000000  0.4869040000000 1.0
C      1  0.4616030000000  0.5540360000000  0.4687660000000 1.0
C      1  0.4006670000000  0.5272950000000  0.4946050000000 1.0
C      1  0.5155410000000  0.5678030000000  0.5248180000000 1.0
C      1  0.4886570000000  0.5517960000000  0.5864610000000 1.0
C      1  0.4338220000000  0.4945530000000  0.4696920000000 1.0
C      1  0.5388250000000  0.5685090000000  0.4286190000000 1.0
C      1  0.5067480000000  0.4614160000000  0.5552250000000 1.0
C      1  0.4661260000000  0.6024160000000  0.5138570000000 1.0
C      1  0.5019740000000  0.4319680000000  0.5409320000000 1.0
C      1  0.4176440000000  0.4913500000000  0.4981970000000 1.0
C      1  0.4834760000000  0.5732170000000  0.4511210000000 1.0
C      1  0.5120350000000  0.5015100000000  0.4247560000000 1.0
C      1  0.5321070000000  0.5604800000000  0.4671960000000 1.0
C      1  0.5314320000000  0.5247910000000  0.4098130000000 1.0
C      1  0.5701530000000  0.4536280000000  0.4589730000000 1.0
C      1  0.4770810000000  0.4560040000000  0.4143510000000 1.0
C      1  0.4822220000000  0.5028310000000  0.4083710000000 1.0
C      1  0.5637460000000  0.5260080000000  0.4196470000000 1.0
C      1  0.4594090000000  0.5169570000000  0.5956830000000 1.0
C      1  0.5311210000000  0.5135930000000  0.5520780000000 1.0
C      1  0.5013770000000  0.5253540000000  0.4758970000000 1.0
C      1  0.5813710000000  0.5715070000000  0.4607550000000 1.0
C      1  0.5497450000000  0.4954250000000  0.4130880000000 1.0
C      1  0.4322780000000  0.4615740000000  0.4922400000000 1.0
C      1  0.5372200000000  0.4539150000000  0.4505080000000 1.0
C      1  0.5301660000000  0.4707070000000  0.5323880000000 1.0
C      1  0.4706120000000  0.4271140000000  0.5484180000000 1.0
C      1  0.4182990000000  0.4781270000000  0.5741330000000 1.0
C      1  0.5662020000000  0.4243450000000  0.4764080000000 1.0
C      1  0.4563940000000  0.5264450000000  0.5185710000000 1.0
C      1  0.4558720000000  0.4914230000000  0.4503110000000 1.0
C      1  0.5419430000000  0.5967270000000  0.4815070000000 1.0
C      1  0.5435680000000  0.4759800000000  0.6141200000000 1.0
C      1  0.4870180000000  0.4080830000000  0.4302550000000 1.0
C      1  0.4943770000000  0.5013950000000  0.5123760000000 1.0
C      1  0.5812790000000  0.5630010000000  0.4916320000000 1.0
C      1  0.5010030000000  0.4971460000000  0.5900710000000 1.0
C      1  0.4426190000000  0.4636140000000  0.5757750000000 1.0
C      1  0.5010260000000  0.5113690000000  0.5591870000000 1.0
C      1  0.5467720000000  0.5046550000000  0.5035280000000 1.0
C      1  0.4003700000000  0.4750160000000  0.5518020000000 1.0
C      1  0.4633670000000  0.4820730000000  0.4184900000000 1.0
C      1  0.5980380000000  0.5334280000000  0.4906480000000 1.0
C      1  0.5833210000000  0.4744860000000  0.5413470000000 1.0
C      1  0.5462630000000  0.5803620000000  0.5264350000000 1.0
C      1  0.4076790000000  0.5630840000000  0.4932270000000 1.0
C      1  0.4711040000000  0.5250820000000  0.3980930000000 1.0
C      1  0.5491350000000  0.5313810000000  0.4627670000000 1.0
C      1  0.5429040000000  0.4830860000000  0.5613930000000 1.0
C      1  0.5832280000000  0.4572660000000  0.5151010000000 1.0
C      1  0.4035670000000  0.4963750000000  0.5350830000000 1.0
C      1  0.5619060000000  0.4744430000000  0.4825320000000 1.0
C      1  0.4350600000000  0.5026300000000  0.5244710000000 1.0
C      1  0.4762230000000  0.5770640000000  0.5329340000000 1.0
C      1  0.4791980000000  0.5232720000000  0.6127300000000 1.0
C      1  0.5763830000000  0.5003580000000  0.4929780000000 1.0
C      1  0.5260630000000  0.4223620000000  0.5812120000000 1.0
C      1  0.4809480000000  0.5498160000000  0.5159130000000 1.0
C      1  0.4132400000000  0.5252700000000  0.5490920000000 1.0
C      1  0.5037100000000  0.5780180000000  0.5709090000000 1.0
C      1  0.4902760000000  0.5638250000000  0.4162220000000 1.0
C      1  0.6056590000000  0.4547880000000  0.4933240000000 1.0
C      1  0.4652330000000  0.4319760000000  0.4322600000000 1.0
C      1  0.5767870000000  0.5045880000000  0.4406490000000 1.0
C      1  0.5715360000000  0.4283490000000  0.5224520000000 1.0
C      1  0.5485840000000  0.5417740000000  0.5549510000000 1.0
C      1  0.5110340000000  0.4483740000000  0.5856790000000 1.0
C      1  0.4639440000000  0.4595330000000  0.4521970000000 1.0
C      1  0.4463790000000  0.6000570000000  0.4948970000000 1.0
C      1  0.5086640000000  0.5274480000000  0.5993020000000 1.0
C      1  0.5632880000000  0.5643160000000  0.5409370000000 1.0
C      1  0.4376170000000  0.5461140000000  0.5478060000000 1.0
C      1  0.5557760000000  0.4331780000000  0.5455620000000 1.0
C      1  0.4712580000000  0.3990300000000  0.4540650000000 1.0
C      1  0.4551670000000  0.5246260000000  0.4846280000000 1.0
C      1  0.5811260000000  0.3854940000000  0.5014650000000 1.0
C      1  0.5159560000000  0.4220590000000  0.4876360000000 1.0
C      1  0.5633150000000  0.5070110000000  0.5743350000000 1.0
END
