TITL C-2848498-1409-2 0.000407316485161023 125000 -103.311923958097 0 0 21 (C1) n - 1
REM
REM in /home/bkarasulu/work/CARBON/AIRSS/Generating-Clusters/AIREBO/with-SteepDescent/Only-C1/SD-CG-opt/Try1-1.4A-POS3A/HFTN-CG
REM
REM
REM
REM
REM
REM ./C.cell (11c1c37f851c82e70ff6c80c92926a4b)
REM
REM compiler GCC version 9.2.1 20190827 (Red Hat 9.2.1-1)
REM options -cpp -mtune=generic -march=x86-64 -g -O0 -fpre-include=/usr/include/finclude/math-vector-fortran.h
REM seed 1322125312 -13264673 -117850663 -1993866599 1027341272 831986054 847133433 -119081622 -1850731814 847865473 724388814 714956000 1337530770 508697354 1855913121 7042330 -876870969 -876377516 990954177 661974205 -1790356199 1234889269 -83637952 -161464483 557150823 -1414423370 -1552465542 1859294464 -1673551115 -559546581 -963925990 885573877 -641140064
REM
CELL 1.54180   50.00000   50.00000   50.00000   90.00000   90.00000   90.00000
LATT -1
SFAC C  
C      1  0.5236330000000  0.5500170000000  0.5036310000000 1.0
C      1  0.4749520000000  0.4810170000000  0.4990610000000 1.0
C      1  0.4756390000000  0.4267870000000  0.5085490000000 1.0
C      1  0.4449890000000  0.4305620000000  0.5619420000000 1.0
C      1  0.5606700000000  0.5236380000000  0.4845150000000 1.0
C      1  0.4927850000000  0.5585070000000  0.5082120000000 1.0
C      1  0.4239920000000  0.4247960000000  0.5408270000000 1.0
C      1  0.5075750000000  0.5365440000000  0.5283700000000 1.0
C      1  0.5490000000000  0.4780160000000  0.4715420000000 1.0
C      1  0.5125110000000  0.5080190000000  0.4816840000000 1.0
C      1  0.4827730000000  0.5094550000000  0.4893070000000 1.0
C      1  0.5223610000000  0.4849110000000  0.4713610000000 1.0
C      1  0.5787100000000  0.5409730000000  0.4956790000000 1.0
C      1  0.5672930000000  0.4984790000000  0.4739900000000 1.0
C      1  0.4527360000000  0.4393790000000  0.5300050000000 1.0
C      1  0.4669430000000  0.5173750000000  0.4670310000000 1.0
C      1  0.5288970000000  0.5465370000000  0.4553650000000 1.0
C      1  0.5315800000000  0.5328420000000  0.4800830000000 1.0
C      1  0.4702920000000  0.4578070000000  0.5088840000000 1.0
C      1  0.4783500000000  0.5282250000000  0.5131800000000 1.0
C      1  0.4543170000000  0.5261160000000  0.5267820000000 1.0
END
