TITL C-2848508-1660-262 0.00106181469483056 125000 -355.800536694221 0 0 66 (C1) n - 1
REM
REM in /home/bkarasulu/work/CARBON/AIRSS/Generating-Clusters/AIREBO/with-SteepDescent/Only-C1/SD-CG-opt/Try1-1.4A-POS3A/HFTN-CG
REM
REM
REM
REM
REM
REM ./C.cell (11c1c37f851c82e70ff6c80c92926a4b)
REM
REM compiler GCC version 9.2.1 20190827 (Red Hat 9.2.1-1)
REM options -cpp -mtune=generic -march=x86-64 -g -O0 -fpre-include=/usr/include/finclude/math-vector-fortran.h
REM seed -133460151 1297842786 482152305 -1109834226 1774103873 1628467736 -114063127 -981865000 -475769826 -1557669401 231751519 -1783883775 466840099 -1188184401 -1958689857 -1776254654 -573286492 1801038149 -248824242 549493546 750927378 1049586788 -331882371 2063254740 818022180 760489611 -1673548957 1886507482 961844341 -1245421759 2076731506 -1168961783 -994022578
REM
CELL 1.54180   50.00000   50.00000   50.00000   90.00000   90.00000   90.00000
LATT -1
SFAC C  
C      1  0.4085710000000  0.4832930000000  0.4942630000000 1.0
C      1  0.5100850000000  0.4729880000000  0.5367460000000 1.0
C      1  0.5365210000000  0.4881400000000  0.4951030000000 1.0
C      1  0.5521650000000  0.5610440000000  0.5175330000000 1.0
C      1  0.5380400000000  0.4598490000000  0.5487490000000 1.0
C      1  0.4533120000000  0.4573570000000  0.4504130000000 1.0
C      1  0.5297210000000  0.4614300000000  0.4556310000000 1.0
C      1  0.4818500000000  0.4837100000000  0.5643090000000 1.0
C      1  0.5795360000000  0.4695100000000  0.4882620000000 1.0
C      1  0.5095300000000  0.4194890000000  0.5405560000000 1.0
C      1  0.4695880000000  0.5263510000000  0.4178000000000 1.0
C      1  0.4593970000000  0.5269310000000  0.5529810000000 1.0
C      1  0.4434890000000  0.5355700000000  0.5049400000000 1.0
C      1  0.5207000000000  0.4289560000000  0.4954190000000 1.0
C      1  0.5136950000000  0.5052300000000  0.5878130000000 1.0
C      1  0.5393250000000  0.4416890000000  0.4761160000000 1.0
C      1  0.3842880000000  0.4778740000000  0.4896260000000 1.0
C      1  0.5362460000000  0.5214740000000  0.5486430000000 1.0
C      1  0.4922660000000  0.5159150000000  0.5054540000000 1.0
C      1  0.5472830000000  0.5526410000000  0.5433930000000 1.0
C      1  0.5244230000000  0.4959460000000  0.4362060000000 1.0
C      1  0.5582580000000  0.4781340000000  0.5535290000000 1.0
C      1  0.5085350000000  0.5022860000000  0.5548990000000 1.0
C      1  0.4630200000000  0.5162790000000  0.4881100000000 1.0
C      1  0.5726140000000  0.4936950000000  0.4750180000000 1.0
C      1  0.4697430000000  0.5161150000000  0.4558990000000 1.0
C      1  0.5033190000000  0.5369650000000  0.4580860000000 1.0
C      1  0.5148800000000  0.5484330000000  0.5108690000000 1.0
C      1  0.5250630000000  0.5174200000000  0.5013410000000 1.0
C      1  0.4598820000000  0.5443560000000  0.4397310000000 1.0
C      1  0.5475130000000  0.5654070000000  0.4551740000000 1.0
C      1  0.5066910000000  0.5705170000000  0.4934380000000 1.0
C      1  0.4741780000000  0.4594180000000  0.4324530000000 1.0
C      1  0.4331450000000  0.4926340000000  0.5330530000000 1.0
C      1  0.5059220000000  0.4819350000000  0.4686370000000 1.0
C      1  0.5398660000000  0.5669380000000  0.4860010000000 1.0
C      1  0.5214410000000  0.5299500000000  0.4346520000000 1.0
C      1  0.5500060000000  0.5368270000000  0.4957770000000 1.0
C      1  0.4780840000000  0.4623190000000  0.5411130000000 1.0
C      1  0.4617780000000  0.5013800000000  0.5722230000000 1.0
C      1  0.5602570000000  0.5018120000000  0.5121090000000 1.0
C      1  0.5453830000000  0.5487540000000  0.4361750000000 1.0
C      1  0.5106760000000  0.5379420000000  0.5371480000000 1.0
C      1  0.4485300000000  0.4639620000000  0.5294970000000 1.0
C      1  0.5020810000000  0.4703410000000  0.4375810000000 1.0
C      1  0.5754830000000  0.5187540000000  0.4911240000000 1.0
C      1  0.5443020000000  0.4906390000000  0.4620020000000 1.0
C      1  0.4321670000000  0.4402630000000  0.5401640000000 1.0
C      1  0.4941560000000  0.5101780000000  0.4300730000000 1.0
C      1  0.4802090000000  0.5683610000000  0.4830000000000 1.0
C      1  0.5569010000000  0.5022470000000  0.5393890000000 1.0
C      1  0.4985810000000  0.5093270000000  0.4726990000000 1.0
C      1  0.4852290000000  0.5195640000000  0.5371580000000 1.0
C      1  0.4812160000000  0.5543220000000  0.4584610000000 1.0
C      1  0.4394020000000  0.4718990000000  0.4994670000000 1.0
C      1  0.5320500000000  0.4344760000000  0.5333740000000 1.0
C      1  0.5582690000000  0.4534400000000  0.4964790000000 1.0
C      1  0.4538730000000  0.4564190000000  0.4785570000000 1.0
C      1  0.4389730000000  0.5195110000000  0.5320660000000 1.0
C      1  0.4783820000000  0.4472580000000  0.4883730000000 1.0
C      1  0.4337090000000  0.5043810000000  0.4948940000000 1.0
C      1  0.4999590000000  0.4626650000000  0.4908080000000 1.0
C      1  0.4571550000000  0.5519420000000  0.5649170000000 1.0
C      1  0.4860190000000  0.4320070000000  0.5467600000000 1.0
C      1  0.5276420000000  0.4589770000000  0.5102020000000 1.0
C      1  0.4554290000000  0.5641660000000  0.4975630000000 1.0
END
