TITL C-2848498-1409-519 1.67239008724161e-05 125000 -84.5490405802335 0 0 16 (C1) n - 1
REM
REM in /home/bkarasulu/work/CARBON/AIRSS/Generating-Clusters/AIREBO/with-SteepDescent/Only-C1/SD-CG-opt/Try1-1.4A-POS3A/HFTN-CG
REM
REM
REM
REM
REM
REM ./C.cell (11c1c37f851c82e70ff6c80c92926a4b)
REM
REM compiler GCC version 9.2.1 20190827 (Red Hat 9.2.1-1)
REM options -cpp -mtune=generic -march=x86-64 -g -O0 -fpre-include=/usr/include/finclude/math-vector-fortran.h
REM seed -536321061 -2035049194 -1508645264 1583475653 1050283264 28221990 -1517033809 -1786130850 -1745397341 -2005383956 -2026539096 444856530 -1568064993 1550580892 1136446564 710627113 323455738 -1749197725 667464087 905253538 -1552175238 -596080487 953732198 -492962857 978937747 41999517 1851188750 1300001861 2100329053 1168421476 -284606847 -138323613 -1292886267
REM
CELL 1.54180   50.00000   50.00000   50.00000   90.00000   90.00000   90.00000
LATT -1
SFAC C  
C      1  0.4969540000000  0.4606260000000  0.4976820000000 1.0
C      1  0.4938290000000  0.5315460000000  0.4859780000000 1.0
C      1  0.4826580000000  0.4392850000000  0.5060370000000 1.0
C      1  0.4837950000000  0.4947720000000  0.5304460000000 1.0
C      1  0.5210860000000  0.4571900000000  0.4831860000000 1.0
C      1  0.5188000000000  0.5519090000000  0.4974370000000 1.0
C      1  0.5214130000000  0.4404430000000  0.4619740000000 1.0
C      1  0.4850360000000  0.5059310000000  0.4823730000000 1.0
C      1  0.4855910000000  0.5602620000000  0.5003190000000 1.0
C      1  0.5431080000000  0.5607410000000  0.4909790000000 1.0
C      1  0.5431590000000  0.4707120000000  0.4909760000000 1.0
C      1  0.4997020000000  0.5423240000000  0.5238840000000 1.0
C      1  0.4704180000000  0.4789080000000  0.5476440000000 1.0
C      1  0.4721530000000  0.4984870000000  0.4598060000000 1.0
C      1  0.4883170000000  0.4870470000000  0.5034610000000 1.0
C      1  0.4939830000000  0.5198160000000  0.5378170000000 1.0
END
