TITL C-2848497-6229-665 -0.00158945938909967 125000 -785.251043819462 0 0 148 (C1) n - 1
REM
REM in /home/bkarasulu/work/CARBON/AIRSS/Generating-Clusters/AIREBO/with-SteepDescent/Only-C1/SD-CG-opt/Try1-1.4A-POS3A/HFTN-CG
REM
REM
REM
REM
REM
REM ./C.cell (11c1c37f851c82e70ff6c80c92926a4b)
REM
REM compiler GCC version 9.2.1 20190827 (Red Hat 9.2.1-1)
REM options -cpp -mtune=generic -march=x86-64 -g -O0 -fpre-include=/usr/include/finclude/math-vector-fortran.h
REM seed -1313234025 2040072315 -25365625 1839961035 29796288 1895384244 1552816041 -1273053890 1495664409 -1826576844 267133817 -325380597 353475603 -91809103 1249552771 -1263424775 -276084308 673357827 -300493780 372430924 -2015676761 -412731949 1045304713 -1372049199 70683985 1486213459 -517866092 1131583608 -678788116 260853176 -649659672 -1516683185 23091858
REM
CELL 1.54180   50.00000   50.00000   50.00000   90.00000   90.00000   90.00000
LATT -1
SFAC C  
C      1  0.4062810000000  0.4752520000000  0.5237150000000 1.0
C      1  0.5448200000000  0.5542310000000  0.4225940000000 1.0
C      1  0.5124130000000  0.3897110000000  0.4938050000000 1.0
C      1  0.4630420000000  0.5024690000000  0.4106180000000 1.0
C      1  0.4244100000000  0.5764520000000  0.5015760000000 1.0
C      1  0.4673410000000  0.5041660000000  0.4443040000000 1.0
C      1  0.4873710000000  0.5355620000000  0.4783380000000 1.0
C      1  0.4836450000000  0.4779600000000  0.4345090000000 1.0
C      1  0.4787590000000  0.4752100000000  0.5905120000000 1.0
C      1  0.4570860000000  0.4184500000000  0.5563370000000 1.0
C      1  0.4292490000000  0.4871930000000  0.5038030000000 1.0
C      1  0.4716920000000  0.4087820000000  0.4716580000000 1.0
C      1  0.4413470000000  0.4644560000000  0.4815610000000 1.0
C      1  0.5862060000000  0.4745970000000  0.4946220000000 1.0
C      1  0.5784910000000  0.5059820000000  0.5173350000000 1.0
C      1  0.4857900000000  0.5393260000000  0.5329270000000 1.0
C      1  0.5320440000000  0.5352700000000  0.5715900000000 1.0
C      1  0.5845610000000  0.5430600000000  0.5037320000000 1.0
C      1  0.5529800000000  0.5491320000000  0.5029300000000 1.0
C      1  0.5240980000000  0.4233290000000  0.5704270000000 1.0
C      1  0.5097950000000  0.4996750000000  0.4332480000000 1.0
C      1  0.5130620000000  0.4805680000000  0.5924330000000 1.0
C      1  0.4538460000000  0.5347770000000  0.5301700000000 1.0
C      1  0.4863030000000  0.4478570000000  0.4501060000000 1.0
C      1  0.6054720000000  0.4993110000000  0.4977160000000 1.0
C      1  0.4194110000000  0.4339600000000  0.5020540000000 1.0
C      1  0.5717930000000  0.4647470000000  0.5521730000000 1.0
C      1  0.5187500000000  0.4578690000000  0.4144600000000 1.0
C      1  0.5540110000000  0.6082130000000  0.5076130000000 1.0
C      1  0.5038460000000  0.5627870000000  0.4730810000000 1.0
C      1  0.5415700000000  0.4264890000000  0.5424920000000 1.0
C      1  0.5390560000000  0.5285730000000  0.4677560000000 1.0
C      1  0.4503830000000  0.4405300000000  0.5121840000000 1.0
C      1  0.5377310000000  0.5615990000000  0.4757370000000 1.0
C      1  0.5405380000000  0.4660850000000  0.5131040000000 1.0
C      1  0.4662820000000  0.4507820000000  0.5614590000000 1.0
C      1  0.5692330000000  0.5132190000000  0.4272850000000 1.0
C      1  0.5837830000000  0.4856400000000  0.4518090000000 1.0
C      1  0.4693500000000  0.5706410000000  0.5609010000000 1.0
C      1  0.4400960000000  0.5349900000000  0.4803210000000 1.0
C      1  0.4917720000000  0.5828700000000  0.5444450000000 1.0
C      1  0.5673600000000  0.5435380000000  0.4425680000000 1.0
C      1  0.4809570000000  0.6071840000000  0.5291720000000 1.0
C      1  0.4925980000000  0.5798140000000  0.4297590000000 1.0
C      1  0.5457020000000  0.5626070000000  0.5607260000000 1.0
C      1  0.5708120000000  0.4360280000000  0.5527940000000 1.0
C      1  0.5023580000000  0.5482640000000  0.5612850000000 1.0
C      1  0.5756900000000  0.4289640000000  0.4925190000000 1.0
C      1  0.5192200000000  0.5912360000000  0.4396520000000 1.0
C      1  0.4526910000000  0.5096050000000  0.4991300000000 1.0
C      1  0.4558290000000  0.5803540000000  0.4954470000000 1.0
C      1  0.4351150000000  0.4216910000000  0.4804360000000 1.0
C      1  0.5943400000000  0.5244140000000  0.4855920000000 1.0
C      1  0.4188800000000  0.5128020000000  0.5236340000000 1.0
C      1  0.4496970000000  0.5439930000000  0.5619830000000 1.0
C      1  0.4202400000000  0.4773970000000  0.4612760000000 1.0
C      1  0.4978140000000  0.5163900000000  0.5643930000000 1.0
C      1  0.5652020000000  0.5709980000000  0.4580060000000 1.0
C      1  0.5509410000000  0.5925650000000  0.4806340000000 1.0
C      1  0.4959670000000  0.4434820000000  0.4186910000000 1.0
C      1  0.4980410000000  0.4655790000000  0.4958170000000 1.0
C      1  0.4590930000000  0.5773800000000  0.4649990000000 1.0
C      1  0.5204860000000  0.4526230000000  0.5370600000000 1.0
C      1  0.4515080000000  0.4954170000000  0.5871770000000 1.0
C      1  0.5089370000000  0.5623640000000  0.5234180000000 1.0
C      1  0.5617570000000  0.4882500000000  0.4763820000000 1.0
C      1  0.5097350000000  0.5072400000000  0.5375250000000 1.0
C      1  0.4188700000000  0.4673720000000  0.5531770000000 1.0
C      1  0.4601460000000  0.4402290000000  0.4668020000000 1.0
C      1  0.4755850000000  0.5565300000000  0.5895600000000 1.0
C      1  0.4916100000000  0.4206040000000  0.5616010000000 1.0
C      1  0.4666790000000  0.4659890000000  0.5041880000000 1.0
C      1  0.5169830000000  0.5287060000000  0.4919570000000 1.0
C      1  0.4983160000000  0.5287050000000  0.4468690000000 1.0
C      1  0.5352610000000  0.4802250000000  0.4034430000000 1.0
C      1  0.4866100000000  0.4502980000000  0.5349960000000 1.0
C      1  0.5226910000000  0.5857950000000  0.5562260000000 1.0
C      1  0.4492840000000  0.5531390000000  0.4562910000000 1.0
C      1  0.5491620000000  0.5265890000000  0.5449020000000 1.0
C      1  0.5690370000000  0.4743950000000  0.5229720000000 1.0
C      1  0.4847340000000  0.4189730000000  0.5280190000000 1.0
C      1  0.4040940000000  0.5000980000000  0.4749360000000 1.0
C      1  0.5369510000000  0.4126920000000  0.4543630000000 1.0
C      1  0.5632570000000  0.4977730000000  0.5561840000000 1.0
C      1  0.5511780000000  0.4300590000000  0.4370590000000 1.0
C      1  0.4878450000000  0.5505240000000  0.4236930000000 1.0
C      1  0.5130610000000  0.4817210000000  0.4686990000000 1.0
C      1  0.4634640000000  0.5248710000000  0.5867360000000 1.0
C      1  0.4338040000000  0.4385600000000  0.5418050000000 1.0
C      1  0.5546170000000  0.5157140000000  0.4951210000000 1.0
C      1  0.4850350000000  0.4419470000000  0.5872440000000 1.0
C      1  0.5217700000000  0.5975340000000  0.4684520000000 1.0
C      1  0.5772930000000  0.5423360000000  0.5336100000000 1.0
C      1  0.5134640000000  0.4375390000000  0.5074030000000 1.0
C      1  0.5227630000000  0.5330600000000  0.4156660000000 1.0
C      1  0.5159070000000  0.5042170000000  0.4001020000000 1.0
C      1  0.4040220000000  0.4452940000000  0.5235750000000 1.0
C      1  0.5306030000000  0.4940730000000  0.5056670000000 1.0
C      1  0.4292410000000  0.5233810000000  0.4348140000000 1.0
C      1  0.4714100000000  0.4807220000000  0.5344690000000 1.0
C      1  0.5054660000000  0.4091460000000  0.4667490000000 1.0
C      1  0.4642630000000  0.5477970000000  0.5005200000000 1.0
C      1  0.4849690000000  0.5812790000000  0.4575310000000 1.0
C      1  0.5026050000000  0.5753810000000  0.5818120000000 1.0
C      1  0.5235260000000  0.5316210000000  0.5229600000000 1.0
C      1  0.4793990000000  0.5980650000000  0.5030160000000 1.0
C      1  0.4888920000000  0.5217540000000  0.4073400000000 1.0
C      1  0.4826240000000  0.4900030000000  0.5629400000000 1.0
C      1  0.5876110000000  0.5167450000000  0.5476570000000 1.0
C      1  0.4218060000000  0.5293520000000  0.5532830000000 1.0
C      1  0.4156790000000  0.5515410000000  0.4947400000000 1.0
C      1  0.5812760000000  0.5185530000000  0.4589490000000 1.0
C      1  0.4532490000000  0.4086700000000  0.5237070000000 1.0
C      1  0.5209710000000  0.4060200000000  0.5177440000000 1.0
C      1  0.5269840000000  0.4849810000000  0.5452710000000 1.0
C      1  0.5365090000000  0.4237950000000  0.4865040000000 1.0
C      1  0.4465360000000  0.5024540000000  0.5378270000000 1.0
C      1  0.5065930000000  0.5838450000000  0.4964670000000 1.0
C      1  0.4918110000000  0.5258590000000  0.6027550000000 1.0
C      1  0.5601070000000  0.4832990000000  0.4175490000000 1.0
C      1  0.5286860000000  0.4728150000000  0.4421050000000 1.0
C      1  0.5606190000000  0.4619830000000  0.4440440000000 1.0
C      1  0.5147090000000  0.4422250000000  0.4680240000000 1.0
C      1  0.4243270000000  0.4766520000000  0.4328270000000 1.0
C      1  0.4853850000000  0.4032610000000  0.5006680000000 1.0
C      1  0.5404430000000  0.5982620000000  0.5296110000000 1.0
C      1  0.4190990000000  0.5027740000000  0.4187710000000 1.0
C      1  0.4445080000000  0.4655010000000  0.5726020000000 1.0
C      1  0.5457460000000  0.4737300000000  0.5704580000000 1.0
C      1  0.4219580000000  0.5195880000000  0.4609720000000 1.0
C      1  0.5424400000000  0.5660880000000  0.5279160000000 1.0
C      1  0.5383140000000  0.5164630000000  0.4410630000000 1.0
C      1  0.5171010000000  0.5116010000000  0.5909450000000 1.0
C      1  0.5673750000000  0.4448510000000  0.4726340000000 1.0
C      1  0.5568290000000  0.4198810000000  0.5131720000000 1.0
C      1  0.4480220000000  0.3967160000000  0.4935820000000 1.0
C      1  0.4264440000000  0.4987490000000  0.5643840000000 1.0
C      1  0.4723870000000  0.5058630000000  0.4734490000000 1.0
C      1  0.5393090000000  0.4628690000000  0.4792690000000 1.0
C      1  0.5400660000000  0.5810640000000  0.4231510000000 1.0
C      1  0.4061300000000  0.5228530000000  0.4975270000000 1.0
C      1  0.4678440000000  0.4542250000000  0.4137660000000 1.0
C      1  0.4490230000000  0.4766260000000  0.4146480000000 1.0
C      1  0.5070770000000  0.4589150000000  0.5676880000000 1.0
C      1  0.4995760000000  0.4994310000000  0.4928330000000 1.0
C      1  0.5309110000000  0.4511290000000  0.5894090000000 1.0
C      1  0.4596870000000  0.5352510000000  0.4326820000000 1.0
C      1  0.4816820000000  0.5088560000000  0.5183650000000 1.0
END
