TITL C-2848503-6230-215 0.000544672691408245 125000 -766.969855291442 0 0 145 (C1) n - 1
REM
REM in /home/bkarasulu/work/CARBON/AIRSS/Generating-Clusters/AIREBO/with-SteepDescent/Only-C1/SD-CG-opt/Try1-1.4A-POS3A/HFTN-CG
REM
REM
REM
REM
REM
REM ./C.cell (11c1c37f851c82e70ff6c80c92926a4b)
REM
REM compiler GCC version 9.2.1 20190827 (Red Hat 9.2.1-1)
REM options -cpp -mtune=generic -march=x86-64 -g -O0 -fpre-include=/usr/include/finclude/math-vector-fortran.h
REM seed 1738571588 23898745 -1605863434 1632669424 -650110266 1537704037 -719556611 757423738 1253549016 -337654072 1545826091 1946580323 1697406748 1103020085 1416667384 634646500 -433166370 535926136 204644752 1190033401 -477457552 -786540185 2127073771 -236672459 -981719105 -257414919 -452239290 -1333034215 178541059 900381703 -2113150035 1572257211 -1384602292
REM
CELL 1.54180   50.00000   50.00000   50.00000   90.00000   90.00000   90.00000
LATT -1
SFAC C  
C      1  0.5302020000000  0.5060480000000  0.5982220000000 1.0
C      1  0.4901040000000  0.5695800000000  0.4067780000000 1.0
C      1  0.5532700000000  0.4195250000000  0.4498210000000 1.0
C      1  0.5393780000000  0.4543670000000  0.4798700000000 1.0
C      1  0.4823220000000  0.3970730000000  0.5315670000000 1.0
C      1  0.4337090000000  0.4700720000000  0.4389720000000 1.0
C      1  0.5398680000000  0.4581230000000  0.5391460000000 1.0
C      1  0.4801210000000  0.4855690000000  0.5147310000000 1.0
C      1  0.4676960000000  0.5952430000000  0.5030780000000 1.0
C      1  0.4813960000000  0.5693980000000  0.4942530000000 1.0
C      1  0.4674380000000  0.4395880000000  0.5671900000000 1.0
C      1  0.4573970000000  0.4997560000000  0.4514350000000 1.0
C      1  0.5088000000000  0.5699180000000  0.4786010000000 1.0
C      1  0.5549040000000  0.4905630000000  0.4743450000000 1.0
C      1  0.5627740000000  0.4744500000000  0.4454390000000 1.0
C      1  0.4586880000000  0.4190170000000  0.5424180000000 1.0
C      1  0.4463710000000  0.5401550000000  0.4311340000000 1.0
C      1  0.5042140000000  0.3991240000000  0.5152660000000 1.0
C      1  0.4908950000000  0.4467090000000  0.5460390000000 1.0
C      1  0.5080570000000  0.5157510000000  0.4347120000000 1.0
C      1  0.4130130000000  0.4909990000000  0.4504470000000 1.0
C      1  0.5914340000000  0.5435310000000  0.5289800000000 1.0
C      1  0.4704770000000  0.5087680000000  0.5475530000000 1.0
C      1  0.5486750000000  0.4795640000000  0.4148550000000 1.0
C      1  0.5607370000000  0.5280850000000  0.4345140000000 1.0
C      1  0.4317640000000  0.5527560000000  0.4934590000000 1.0
C      1  0.5457000000000  0.4555030000000  0.5716200000000 1.0
C      1  0.3983310000000  0.4925930000000  0.4874230000000 1.0
C      1  0.4678580000000  0.6169150000000  0.4859580000000 1.0
C      1  0.5111480000000  0.4104360000000  0.4839530000000 1.0
C      1  0.4665110000000  0.4567230000000  0.4839520000000 1.0
C      1  0.4154410000000  0.4893360000000  0.5142730000000 1.0
C      1  0.5432650000000  0.4189530000000  0.5462510000000 1.0
C      1  0.4646540000000  0.5387900000000  0.5906740000000 1.0
C      1  0.4862790000000  0.4985230000000  0.4838410000000 1.0
C      1  0.4624690000000  0.4870280000000  0.5846310000000 1.0
C      1  0.5936510000000  0.4692300000000  0.5032960000000 1.0
C      1  0.4301850000000  0.4361480000000  0.5495060000000 1.0
C      1  0.5733000000000  0.4654870000000  0.5594040000000 1.0
C      1  0.5619950000000  0.5114800000000  0.4996270000000 1.0
C      1  0.4190170000000  0.4666310000000  0.5610020000000 1.0
C      1  0.4713100000000  0.5985920000000  0.5350150000000 1.0
C      1  0.4918260000000  0.4894200000000  0.5751240000000 1.0
C      1  0.4857340000000  0.5208740000000  0.5726250000000 1.0
C      1  0.4241640000000  0.4757340000000  0.4773990000000 1.0
C      1  0.5811750000000  0.4432830000000  0.5080720000000 1.0
C      1  0.4756530000000  0.5395150000000  0.4138380000000 1.0
C      1  0.5259370000000  0.4860980000000  0.5479260000000 1.0
C      1  0.5238640000000  0.4791650000000  0.4381000000000 1.0
C      1  0.5495030000000  0.5578960000000  0.4457200000000 1.0
C      1  0.5428800000000  0.4122850000000  0.4771760000000 1.0
C      1  0.5112130000000  0.5630430000000  0.5259800000000 1.0
C      1  0.4325740000000  0.5365300000000  0.5803100000000 1.0
C      1  0.4371240000000  0.5559710000000  0.4600010000000 1.0
C      1  0.4455890000000  0.4477370000000  0.4586920000000 1.0
C      1  0.4940300000000  0.4483770000000  0.5143380000000 1.0
C      1  0.5653920000000  0.4335760000000  0.4867890000000 1.0
C      1  0.5284170000000  0.4194580000000  0.5693330000000 1.0
C      1  0.5469190000000  0.4450180000000  0.4418740000000 1.0
C      1  0.4514250000000  0.5333130000000  0.5131170000000 1.0
C      1  0.4097590000000  0.5239340000000  0.5376940000000 1.0
C      1  0.5679870000000  0.4403380000000  0.5368490000000 1.0
C      1  0.4401380000000  0.5822920000000  0.5160820000000 1.0
C      1  0.5681190000000  0.5666980000000  0.5220710000000 1.0
C      1  0.4904820000000  0.5096380000000  0.4062410000000 1.0
C      1  0.4679410000000  0.5718160000000  0.5497260000000 1.0
C      1  0.5767370000000  0.5954500000000  0.5251410000000 1.0
C      1  0.4496550000000  0.4861630000000  0.5404920000000 1.0
C      1  0.5542690000000  0.4727880000000  0.5048690000000 1.0
C      1  0.5235110000000  0.4572040000000  0.5871370000000 1.0
C      1  0.4541010000000  0.4211810000000  0.4460970000000 1.0
C      1  0.4239220000000  0.5421540000000  0.5544640000000 1.0
C      1  0.5094450000000  0.5432750000000  0.4147910000000 1.0
C      1  0.4515010000000  0.5253720000000  0.4679130000000 1.0
C      1  0.4509670000000  0.4651560000000  0.5672110000000 1.0
C      1  0.5568170000000  0.5503720000000  0.5474300000000 1.0
C      1  0.5310890000000  0.4363910000000  0.5067630000000 1.0
C      1  0.4440190000000  0.5564960000000  0.5365730000000 1.0
C      1  0.4486900000000  0.5101190000000  0.5831640000000 1.0
C      1  0.5115390000000  0.4602930000000  0.4126440000000 1.0
C      1  0.5213470000000  0.5448530000000  0.4596340000000 1.0
C      1  0.5161880000000  0.4508030000000  0.4552470000000 1.0
C      1  0.5813120000000  0.5361420000000  0.5001720000000 1.0
C      1  0.4945520000000  0.4772280000000  0.5443980000000 1.0
C      1  0.5677820000000  0.5816350000000  0.4406900000000 1.0
C      1  0.5586710000000  0.4949080000000  0.5506440000000 1.0
C      1  0.5425050000000  0.5634980000000  0.5710680000000 1.0
C      1  0.4970120000000  0.5547850000000  0.5548180000000 1.0
C      1  0.5232940000000  0.5149910000000  0.4757850000000 1.0
C      1  0.4538840000000  0.4882730000000  0.4825290000000 1.0
C      1  0.4944790000000  0.4416870000000  0.4322120000000 1.0
C      1  0.4175760000000  0.4597140000000  0.5284750000000 1.0
C      1  0.4245130000000  0.4450660000000  0.4822550000000 1.0
C      1  0.4190320000000  0.5252610000000  0.4780270000000 1.0
C      1  0.5154760000000  0.4836390000000  0.5917900000000 1.0
C      1  0.5169520000000  0.5310070000000  0.5635820000000 1.0
C      1  0.4446250000000  0.5034130000000  0.5115900000000 1.0
C      1  0.5229990000000  0.5471660000000  0.4995020000000 1.0
C      1  0.5285740000000  0.5784740000000  0.5501460000000 1.0
C      1  0.5697790000000  0.5443190000000  0.4698540000000 1.0
C      1  0.5214110000000  0.4684770000000  0.5125220000000 1.0
C      1  0.4504630000000  0.4925700000000  0.4204730000000 1.0
C      1  0.5194960000000  0.4909600000000  0.4003020000000 1.0
C      1  0.4681990000000  0.4282710000000  0.5119190000000 1.0
C      1  0.3910380000000  0.5140990000000  0.4622720000000 1.0
C      1  0.4757600000000  0.4701060000000  0.4275000000000 1.0
C      1  0.4815180000000  0.5480850000000  0.5188370000000 1.0
C      1  0.4966220000000  0.4411450000000  0.4813710000000 1.0
C      1  0.4115820000000  0.5309010000000  0.5107270000000 1.0
C      1  0.4887940000000  0.5358470000000  0.4542360000000 1.0
C      1  0.5840260000000  0.5187670000000  0.4525290000000 1.0
C      1  0.4805760000000  0.4175660000000  0.4423610000000 1.0
C      1  0.4966940000000  0.5297680000000  0.4867480000000 1.0
C      1  0.4193950000000  0.5239600000000  0.4440480000000 1.0
C      1  0.5281850000000  0.4146480000000  0.5226390000000 1.0
C      1  0.5881840000000  0.6465860000000  0.5289630000000 1.0
C      1  0.5730090000000  0.5199820000000  0.5683530000000 1.0
C      1  0.4949800000000  0.4008040000000  0.4581210000000 1.0
C      1  0.4869680000000  0.5173080000000  0.5232500000000 1.0
C      1  0.6048800000000  0.4791050000000  0.4779240000000 1.0
C      1  0.5159470000000  0.5011860000000  0.5209100000000 1.0
C      1  0.4230510000000  0.4114250000000  0.5166670000000 1.0
C      1  0.5261260000000  0.5683210000000  0.4239640000000 1.0
C      1  0.5922180000000  0.5329030000000  0.5538290000000 1.0
C      1  0.4690270000000  0.5542740000000  0.4716280000000 1.0
C      1  0.5400840000000  0.5079200000000  0.4298500000000 1.0
C      1  0.5363620000000  0.5213300000000  0.5128260000000 1.0
C      1  0.4355270000000  0.4375130000000  0.5100030000000 1.0
C      1  0.5897380000000  0.4912190000000  0.4556040000000 1.0
C      1  0.4881630000000  0.4780200000000  0.3968410000000 1.0
C      1  0.5427420000000  0.5238540000000  0.5425640000000 1.0
C      1  0.5817390000000  0.6211970000000  0.5281000000000 1.0
C      1  0.4066260000000  0.4941760000000  0.5453980000000 1.0
C      1  0.5082810000000  0.5912310000000  0.4170210000000 1.0
C      1  0.4425010000000  0.5175950000000  0.4096020000000 1.0
C      1  0.5530530000000  0.5590490000000  0.4951360000000 1.0
C      1  0.4884670000000  0.4924580000000  0.4498950000000 1.0
C      1  0.5457440000000  0.5311460000000  0.5816910000000 1.0
C      1  0.5237170000000  0.4845510000000  0.4826420000000 1.0
C      1  0.5748510000000  0.4910920000000  0.5209470000000 1.0
C      1  0.4548990000000  0.4650480000000  0.5148320000000 1.0
C      1  0.4495930000000  0.4501310000000  0.4189930000000 1.0
C      1  0.4777940000000  0.5637940000000  0.5798680000000 1.0
C      1  0.5006800000000  0.4371780000000  0.5758830000000 1.0
C      1  0.6318150000000  0.4770530000000  0.4747780000000 1.0
END
