TITL C-2848506-1665-38 0.000986302454464701 125000 -131.541003507432 0 0 25 (C1) n - 1
REM
REM in /home/bkarasulu/work/CARBON/AIRSS/Generating-Clusters/AIREBO/with-SteepDescent/Only-C1/SD-CG-opt/Try1-1.4A-POS3A/HFTN-CG
REM
REM
REM
REM
REM
REM ./C.cell (11c1c37f851c82e70ff6c80c92926a4b)
REM
REM compiler GCC version 9.2.1 20190827 (Red Hat 9.2.1-1)
REM options -cpp -mtune=generic -march=x86-64 -g -O0 -fpre-include=/usr/include/finclude/math-vector-fortran.h
REM seed 916251346 1422566221 -1082339927 -1562045583 1793074630 1905173470 -1892560916 2071516818 -433947038 1689975180 400291137 -724099318 -1035820130 1552237214 667345392 628661223 -1556537572 -1195460460 1414026655 -1302487745 163684700 -1630670292 2097248766 -972081697 -1059708388 1721191382 700104271 495522136 132802219 -768601594 1814324741 302762159 -1427316406
REM
CELL 1.54180   50.00000   50.00000   50.00000   90.00000   90.00000   90.00000
LATT -1
SFAC C  
C      1  0.4362100000000  0.5254510000000  0.4990200000000 1.0
C      1  0.5277170000000  0.4616990000000  0.4755440000000 1.0
C      1  0.4889250000000  0.4760950000000  0.4622950000000 1.0
C      1  0.4865590000000  0.5474370000000  0.4991760000000 1.0
C      1  0.5127320000000  0.4809420000000  0.4939150000000 1.0
C      1  0.4698730000000  0.5203160000000  0.4992340000000 1.0
C      1  0.5040240000000  0.5619430000000  0.5142720000000 1.0
C      1  0.5309780000000  0.5535590000000  0.5128470000000 1.0
C      1  0.4766760000000  0.4620060000000  0.5279330000000 1.0
C      1  0.4845590000000  0.4984130000000  0.4863080000000 1.0
C      1  0.5016950000000  0.5332410000000  0.4774930000000 1.0
C      1  0.5414060000000  0.5024010000000  0.5372120000000 1.0
C      1  0.4509840000000  0.5073610000000  0.5234300000000 1.0
C      1  0.5086490000000  0.4685060000000  0.5224320000000 1.0
C      1  0.4895050000000  0.4493340000000  0.5015760000000 1.0
C      1  0.5029090000000  0.5065380000000  0.4564770000000 1.0
C      1  0.4304630000000  0.4922950000000  0.5456170000000 1.0
C      1  0.5425760000000  0.4460790000000  0.4618200000000 1.0
C      1  0.4566780000000  0.4772130000000  0.5356970000000 1.0
C      1  0.4891620000000  0.4512810000000  0.4735230000000 1.0
C      1  0.5295230000000  0.4804890000000  0.5408700000000 1.0
C      1  0.5388490000000  0.5218510000000  0.5151310000000 1.0
C      1  0.5330340000000  0.5225950000000  0.4613750000000 1.0
C      1  0.5224540000000  0.5100310000000  0.4911460000000 1.0
C      1  0.5438610000000  0.5429250000000  0.4856580000000 1.0
END
