TITL C-2847952-8118-445 0.00226567565983876 125000 -101.337875770638 0 0 19 (C1) n - 1
REM
REM in /home/bkarasulu/work/CARBON/AIRSS/Generating-Clusters/AIREBO/with-SteepDescent/Only-C1/SD-CG-opt/Try1-1.4A-POS3A/HFTN-CG
REM
REM
REM
REM
REM
REM ./C.cell (11c1c37f851c82e70ff6c80c92926a4b)
REM
REM compiler GCC version 9.2.1 20190827 (Red Hat 9.2.1-1)
REM options -cpp -mtune=generic -march=x86-64 -g -O0 -fpre-include=/usr/include/finclude/math-vector-fortran.h
REM seed 1284320041 -578979760 1693101063 -1550295444 -1437588467 -1040256165 -1923636059 1681691346 -1934950032 288196604 426452204 220885254 -664996611 -738367005 2108247680 1378515151 -648888729 1472893525 1508050751 -294625133 -1473041673 1213940003 1316869651 -1027374965 -1412859055 1010349931 302038964 1753117672 -417276395 -1451175667 621446559 -1918665331 -1322916761
REM
CELL 1.54180   50.00000   50.00000   50.00000   90.00000   90.00000   90.00000
LATT -1
SFAC C  
C      1  0.4698460000000  0.4945680000000  0.4725500000000 1.0
C      1  0.4882640000000  0.5154680000000  0.4801680000000 1.0
C      1  0.4843230000000  0.5426320000000  0.4799590000000 1.0
C      1  0.4746300000000  0.4759030000000  0.5165630000000 1.0
C      1  0.5062900000000  0.5055910000000  0.5025510000000 1.0
C      1  0.5427400000000  0.4842750000000  0.5261460000000 1.0
C      1  0.4822800000000  0.4729390000000  0.4585800000000 1.0
C      1  0.4845870000000  0.5581400000000  0.5078260000000 1.0
C      1  0.5541900000000  0.4869970000000  0.4876160000000 1.0
C      1  0.4974870000000  0.4571370000000  0.4759290000000 1.0
C      1  0.4560980000000  0.4841980000000  0.4959230000000 1.0
C      1  0.4797080000000  0.5749340000000  0.4804470000000 1.0
C      1  0.5360820000000  0.5049310000000  0.5039300000000 1.0
C      1  0.5501330000000  0.4600880000000  0.4952160000000 1.0
C      1  0.5272950000000  0.4594510000000  0.5155270000000 1.0
C      1  0.4922700000000  0.5439740000000  0.5304310000000 1.0
C      1  0.4780900000000  0.4944440000000  0.5380080000000 1.0
C      1  0.4942900000000  0.5159190000000  0.5288050000000 1.0
C      1  0.5013960000000  0.4684110000000  0.5038260000000 1.0
END
