TITL C-2848505-4874-109 -0.000542030030583465 125000 -604.686366536245 0 0 111 (C1) n - 1
REM
REM in /home/bkarasulu/work/CARBON/AIRSS/Generating-Clusters/AIREBO/with-SteepDescent/Only-C1/SD-CG-opt/Try1-1.4A-POS3A/HFTN-CG
REM
REM
REM
REM
REM
REM ./C.cell (11c1c37f851c82e70ff6c80c92926a4b)
REM
REM compiler GCC version 9.2.1 20190827 (Red Hat 9.2.1-1)
REM options -cpp -mtune=generic -march=x86-64 -g -O0 -fpre-include=/usr/include/finclude/math-vector-fortran.h
REM seed 1551464491 -564375993 699366236 -1930300687 -399067734 -1875529581 1041171938 222365132 -870895345 -1384289230 -601619267 -1377891613 1865808830 -40925220 -1594066765 421020958 -144623536 -1474432064 515156907 567092965 -1170289617 176489495 1954004992 2141915487 2026814396 -876284085 756651731 -2058675226 838214052 -325714593 1835158107 -431257371 858319302
REM
CELL 1.54180   50.00000   50.00000   50.00000   90.00000   90.00000   90.00000
LATT -1
SFAC C  
C      1  0.4994350000000  0.4530270000000  0.4609370000000 1.0
C      1  0.5663250000000  0.5662500000000  0.5330820000000 1.0
C      1  0.4500100000000  0.4163900000000  0.4976470000000 1.0
C      1  0.4360730000000  0.4911120000000  0.5585560000000 1.0
C      1  0.4601860000000  0.4266020000000  0.5210010000000 1.0
C      1  0.5192280000000  0.4987990000000  0.5406310000000 1.0
C      1  0.4821630000000  0.4753790000000  0.5248290000000 1.0
C      1  0.5348720000000  0.4896030000000  0.5996780000000 1.0
C      1  0.4787720000000  0.4460880000000  0.4176870000000 1.0
C      1  0.4471800000000  0.5375020000000  0.5594950000000 1.0
C      1  0.4629740000000  0.5461650000000  0.5130100000000 1.0
C      1  0.4648230000000  0.4895470000000  0.4832320000000 1.0
C      1  0.5276950000000  0.4839830000000  0.4041380000000 1.0
C      1  0.4655660000000  0.5260060000000  0.5368790000000 1.0
C      1  0.5506280000000  0.5283390000000  0.5686330000000 1.0
C      1  0.4907450000000  0.4207190000000  0.5299840000000 1.0
C      1  0.5508750000000  0.4958060000000  0.5785110000000 1.0
C      1  0.5053290000000  0.4183640000000  0.4995630000000 1.0
C      1  0.4596960000000  0.4673840000000  0.4145890000000 1.0
C      1  0.4748020000000  0.5388290000000  0.5793870000000 1.0
C      1  0.5027220000000  0.5416880000000  0.4533410000000 1.0
C      1  0.5112910000000  0.4174450000000  0.4471160000000 1.0
C      1  0.4655240000000  0.5153030000000  0.4624990000000 1.0
C      1  0.5498790000000  0.5188190000000  0.5039780000000 1.0
C      1  0.4835970000000  0.5645750000000  0.4970550000000 1.0
C      1  0.4886740000000  0.5849330000000  0.5458030000000 1.0
C      1  0.4369360000000  0.5614680000000  0.5390300000000 1.0
C      1  0.5065010000000  0.4261640000000  0.5549980000000 1.0
C      1  0.4242300000000  0.4787840000000  0.4628110000000 1.0
C      1  0.4889000000000  0.5258400000000  0.5045780000000 1.0
C      1  0.5561960000000  0.4668910000000  0.4395870000000 1.0
C      1  0.4567590000000  0.4860050000000  0.5768730000000 1.0
C      1  0.5353660000000  0.5196490000000  0.4572170000000 1.0
C      1  0.4798100000000  0.5341360000000  0.3968800000000 1.0
C      1  0.4858340000000  0.4701930000000  0.5819460000000 1.0
C      1  0.4545410000000  0.5519050000000  0.4394930000000 1.0
C      1  0.5369380000000  0.4794280000000  0.5241290000000 1.0
C      1  0.5620620000000  0.4782200000000  0.5600540000000 1.0
C      1  0.4442110000000  0.4864800000000  0.5302830000000 1.0
C      1  0.4243250000000  0.5168510000000  0.5583330000000 1.0
C      1  0.4542430000000  0.4558870000000  0.5243910000000 1.0
C      1  0.4334320000000  0.5533230000000  0.5061980000000 1.0
C      1  0.5576390000000  0.5417560000000  0.4671800000000 1.0
C      1  0.4615410000000  0.5059820000000  0.5096930000000 1.0
C      1  0.4372100000000  0.4758410000000  0.4348080000000 1.0
C      1  0.5530580000000  0.4375130000000  0.4902280000000 1.0
C      1  0.4800590000000  0.6109220000000  0.5467850000000 1.0
C      1  0.5879760000000  0.5011270000000  0.4703090000000 1.0
C      1  0.5690320000000  0.4901450000000  0.5289580000000 1.0
C      1  0.5147140000000  0.4834040000000  0.4611060000000 1.0
C      1  0.5716270000000  0.4497650000000  0.4644650000000 1.0
C      1  0.4168780000000  0.5266400000000  0.5049820000000 1.0
C      1  0.5016160000000  0.4946500000000  0.5046220000000 1.0
C      1  0.5270170000000  0.5367840000000  0.5916010000000 1.0
C      1  0.4210900000000  0.4928660000000  0.5065680000000 1.0
C      1  0.5130100000000  0.4073630000000  0.4697710000000 1.0
C      1  0.4369920000000  0.5254700000000  0.4520600000000 1.0
C      1  0.5124190000000  0.5801310000000  0.4511010000000 1.0
C      1  0.5274720000000  0.5134710000000  0.4185450000000 1.0
C      1  0.4812270000000  0.5391270000000  0.4744240000000 1.0
C      1  0.5181540000000  0.5427080000000  0.5005040000000 1.0
C      1  0.5218630000000  0.5144280000000  0.4852000000000 1.0
C      1  0.5225920000000  0.4429590000000  0.4849850000000 1.0
C      1  0.5109390000000  0.4863740000000  0.5679440000000 1.0
C      1  0.5273880000000  0.5569970000000  0.4710530000000 1.0
C      1  0.4377920000000  0.5693380000000  0.4796500000000 1.0
C      1  0.4663910000000  0.4214210000000  0.4283250000000 1.0
C      1  0.5852730000000  0.4855300000000  0.4998740000000 1.0
C      1  0.4266190000000  0.4543870000000  0.4793300000000 1.0
C      1  0.5762990000000  0.5156130000000  0.5503140000000 1.0
C      1  0.4844630000000  0.5659430000000  0.5645140000000 1.0
C      1  0.5019920000000  0.5316680000000  0.4227440000000 1.0
C      1  0.5340460000000  0.4263640000000  0.5511400000000 1.0
C      1  0.4454020000000  0.4334000000000  0.4752630000000 1.0
C      1  0.5475740000000  0.4214600000000  0.5202250000000 1.0
C      1  0.5326990000000  0.4600370000000  0.4183020000000 1.0
C      1  0.5370850000000  0.4915490000000  0.4422610000000 1.0
C      1  0.4623810000000  0.4712150000000  0.4541860000000 1.0
C      1  0.5845970000000  0.4788480000000  0.4518270000000 1.0
C      1  0.5264200000000  0.4754440000000  0.4920270000000 1.0
C      1  0.5040170000000  0.5752180000000  0.5190170000000 1.0
C      1  0.5183930000000  0.5586620000000  0.5440620000000 1.0
C      1  0.5326440000000  0.5683820000000  0.4331160000000 1.0
C      1  0.4655960000000  0.5758970000000  0.4744390000000 1.0
C      1  0.5390090000000  0.5424080000000  0.4321700000000 1.0
C      1  0.4922060000000  0.4477510000000  0.5105470000000 1.0
C      1  0.5545560000000  0.4487340000000  0.5620040000000 1.0
C      1  0.4769130000000  0.5072440000000  0.5701530000000 1.0
C      1  0.5022280000000  0.4951570000000  0.5988270000000 1.0
C      1  0.5776890000000  0.4362040000000  0.5136350000000 1.0
C      1  0.5479830000000  0.5598520000000  0.5552420000000 1.0
C      1  0.4072630000000  0.5214560000000  0.5368660000000 1.0
C      1  0.4813840000000  0.5749880000000  0.4474560000000 1.0
C      1  0.4835460000000  0.4639950000000  0.4868560000000 1.0
C      1  0.5087790000000  0.4452610000000  0.4291820000000 1.0
C      1  0.4794940000000  0.5560480000000  0.4205220000000 1.0
C      1  0.5248690000000  0.5816150000000  0.4943850000000 1.0
C      1  0.4270620000000  0.5570500000000  0.4559700000000 1.0
C      1  0.5302530000000  0.5268960000000  0.5414510000000 1.0
C      1  0.4288090000000  0.5086980000000  0.4786640000000 1.0
C      1  0.5825500000000  0.5292120000000  0.4653480000000 1.0
C      1  0.4941340000000  0.4401370000000  0.5751220000000 1.0
C      1  0.5533880000000  0.4535590000000  0.5298120000000 1.0
C      1  0.5551580000000  0.4936120000000  0.4916440000000 1.0
C      1  0.5452270000000  0.5462330000000  0.5178240000000 1.0
C      1  0.4253940000000  0.4613720000000  0.5069530000000 1.0
C      1  0.4685350000000  0.4397550000000  0.4558210000000 1.0
C      1  0.4868530000000  0.5021700000000  0.5407900000000 1.0
C      1  0.5881910000000  0.4561850000000  0.4920590000000 1.0
C      1  0.4865380000000  0.4914920000000  0.4503440000000 1.0
C      1  0.5014400000000  0.5262360000000  0.5947840000000 1.0
END
