TITL C-2848502-4955-154 0.000342186355200376 125000 -1011.31750819626 0 0 187 (C1) n - 1
REM
REM in /home/bkarasulu/work/CARBON/AIRSS/Generating-Clusters/AIREBO/with-SteepDescent/Only-C1/SD-CG-opt/Try1-1.4A-POS3A/HFTN-CG
REM
REM
REM
REM
REM
REM ./C.cell (11c1c37f851c82e70ff6c80c92926a4b)
REM
REM compiler GCC version 9.2.1 20190827 (Red Hat 9.2.1-1)
REM options -cpp -mtune=generic -march=x86-64 -g -O0 -fpre-include=/usr/include/finclude/math-vector-fortran.h
REM seed 1851921412 -390399268 -610533451 -258111137 1219920297 1424230695 -1416012141 -1248890718 813520497 -231391756 -1523831401 159296971 1448922722 1571444647 1344187664 1477445948 -2115285758 811726570 648921871 640982173 -359690422 -1259633241 431734009 -1135186110 65844315 1220015108 236388611 212594148 -553483820 559820983 -1435149401 1770416314 -942247891
REM
CELL 1.54180   50.00000   50.00000   50.00000   90.00000   90.00000   90.00000
LATT -1
SFAC C  
C      1  0.5080030000000  0.6082940000000  0.4848070000000 1.0
C      1  0.3956740000000  0.4749240000000  0.4725530000000 1.0
C      1  0.5830480000000  0.4993690000000  0.4266870000000 1.0
C      1  0.4112970000000  0.5581460000000  0.5104190000000 1.0
C      1  0.4489750000000  0.4628200000000  0.5619690000000 1.0
C      1  0.4925500000000  0.5474520000000  0.4124370000000 1.0
C      1  0.5409660000000  0.5414450000000  0.4131190000000 1.0
C      1  0.4528230000000  0.4255580000000  0.4451090000000 1.0
C      1  0.5371650000000  0.4018550000000  0.5475250000000 1.0
C      1  0.5571950000000  0.4940290000000  0.5154310000000 1.0
C      1  0.5077810000000  0.4132320000000  0.5724360000000 1.0
C      1  0.4709650000000  0.4586610000000  0.4878140000000 1.0
C      1  0.4425930000000  0.5554240000000  0.4071880000000 1.0
C      1  0.4784440000000  0.4258280000000  0.5657070000000 1.0
C      1  0.5076690000000  0.5007240000000  0.5437480000000 1.0
C      1  0.5364100000000  0.4531400000000  0.4689480000000 1.0
C      1  0.4679920000000  0.4411350000000  0.4202500000000 1.0
C      1  0.4057680000000  0.4205690000000  0.5229460000000 1.0
C      1  0.5397170000000  0.6095460000000  0.5214810000000 1.0
C      1  0.4649300000000  0.5196790000000  0.4448470000000 1.0
C      1  0.5109930000000  0.4663320000000  0.3897770000000 1.0
C      1  0.5800880000000  0.3847960000000  0.5158130000000 1.0
C      1  0.4887450000000  0.5358380000000  0.5710570000000 1.0
C      1  0.4290460000000  0.4433920000000  0.4545410000000 1.0
C      1  0.5072690000000  0.5317930000000  0.4673810000000 1.0
C      1  0.4057590000000  0.4881580000000  0.5556340000000 1.0
C      1  0.4943240000000  0.5264660000000  0.4363890000000 1.0
C      1  0.5344510000000  0.5893410000000  0.4947690000000 1.0
C      1  0.5959420000000  0.4494160000000  0.5209680000000 1.0
C      1  0.5310400000000  0.4140530000000  0.4783800000000 1.0
C      1  0.4448980000000  0.4948630000000  0.5520240000000 1.0
C      1  0.5111130000000  0.5833160000000  0.5769320000000 1.0
C      1  0.5989750000000  0.5155210000000  0.5162360000000 1.0
C      1  0.3939890000000  0.5250420000000  0.4966380000000 1.0
C      1  0.5288410000000  0.5469000000000  0.5460280000000 1.0
C      1  0.5188560000000  0.5093060000000  0.6145090000000 1.0
C      1  0.4938210000000  0.5663980000000  0.4376920000000 1.0
C      1  0.4399050000000  0.4451500000000  0.4921520000000 1.0
C      1  0.4602380000000  0.5652540000000  0.5812340000000 1.0
C      1  0.4248210000000  0.4897370000000  0.5777420000000 1.0
C      1  0.4308040000000  0.4073030000000  0.5208470000000 1.0
C      1  0.4414710000000  0.5642970000000  0.4395460000000 1.0
C      1  0.5570140000000  0.5217360000000  0.4996000000000 1.0
C      1  0.4209330000000  0.4779610000000  0.4230410000000 1.0
C      1  0.4748900000000  0.4528550000000  0.6054500000000 1.0
C      1  0.4795550000000  0.6057240000000  0.4663080000000 1.0
C      1  0.4605090000000  0.5674020000000  0.5312010000000 1.0
C      1  0.4250570000000  0.5106530000000  0.5952970000000 1.0
C      1  0.5416110000000  0.5159980000000  0.5522910000000 1.0
C      1  0.5085030000000  0.5705990000000  0.4978130000000 1.0
C      1  0.4929840000000  0.5636820000000  0.5901210000000 1.0
C      1  0.5695810000000  0.5394190000000  0.5685310000000 1.0
C      1  0.5613920000000  0.4326060000000  0.4291240000000 1.0
C      1  0.4734930000000  0.4097200000000  0.4914600000000 1.0
C      1  0.4895010000000  0.5187940000000  0.5264860000000 1.0
C      1  0.5476930000000  0.4148530000000  0.5722830000000 1.0
C      1  0.4034450000000  0.4454990000000  0.5120040000000 1.0
C      1  0.4851940000000  0.4889900000000  0.4936580000000 1.0
C      1  0.4970410000000  0.4921510000000  0.5812410000000 1.0
C      1  0.4950860000000  0.5492840000000  0.5404570000000 1.0
C      1  0.4970400000000  0.3840700000000  0.4566230000000 1.0
C      1  0.4114120000000  0.4722900000000  0.5263500000000 1.0
C      1  0.4679440000000  0.5522630000000  0.4513060000000 1.0
C      1  0.5382900000000  0.4130790000000  0.5091730000000 1.0
C      1  0.5614740000000  0.5474510000000  0.5364400000000 1.0
C      1  0.6009350000000  0.4065200000000  0.4594730000000 1.0
C      1  0.5345700000000  0.5316480000000  0.5992550000000 1.0
C      1  0.4621680000000  0.4452740000000  0.5814440000000 1.0
C      1  0.4644300000000  0.4936490000000  0.4144260000000 1.0
C      1  0.4717830000000  0.5071920000000  0.5641470000000 1.0
C      1  0.5586580000000  0.5639040000000  0.4257450000000 1.0
C      1  0.4082630000000  0.4483580000000  0.4801060000000 1.0
C      1  0.4096180000000  0.4965800000000  0.4897910000000 1.0
C      1  0.5963510000000  0.5540500000000  0.4938560000000 1.0
C      1  0.4908190000000  0.3877090000000  0.5055970000000 1.0
C      1  0.5197260000000  0.3871640000000  0.4673800000000 1.0
C      1  0.5527720000000  0.4806750000000  0.4091470000000 1.0
C      1  0.5429420000000  0.4421650000000  0.5232560000000 1.0
C      1  0.4821960000000  0.4024530000000  0.5412990000000 1.0
C      1  0.5453240000000  0.5604110000000  0.5094420000000 1.0
C      1  0.4089380000000  0.4929010000000  0.4488630000000 1.0
C      1  0.5876620000000  0.4518140000000  0.4887470000000 1.0
C      1  0.4777110000000  0.6111120000000  0.5275180000000 1.0
C      1  0.4512110000000  0.4686470000000  0.4333160000000 1.0
C      1  0.4204980000000  0.5406830000000  0.4277810000000 1.0
C      1  0.5094520000000  0.4368880000000  0.4766950000000 1.0
C      1  0.5600220000000  0.5838240000000  0.5546090000000 1.0
C      1  0.4913850000000  0.4333260000000  0.4516760000000 1.0
C      1  0.4448420000000  0.4157690000000  0.4967640000000 1.0
C      1  0.3975760000000  0.5028570000000  0.5199580000000 1.0
C      1  0.5177500000000  0.5432310000000  0.3950870000000 1.0
C      1  0.4513110000000  0.5270790000000  0.4876770000000 1.0
C      1  0.4956350000000  0.4632040000000  0.5631600000000 1.0
C      1  0.4877330000000  0.4763580000000  0.4073120000000 1.0
C      1  0.4890230000000  0.5535980000000  0.5072690000000 1.0
C      1  0.5048380000000  0.5166490000000  0.3900800000000 1.0
C      1  0.5316270000000  0.4849920000000  0.5620450000000 1.0
C      1  0.5575420000000  0.5913730000000  0.4728790000000 1.0
C      1  0.5386020000000  0.4910490000000  0.5948070000000 1.0
C      1  0.5223060000000  0.4429120000000  0.4005990000000 1.0
C      1  0.4995280000000  0.4659420000000  0.6027690000000 1.0
C      1  0.4652440000000  0.5434120000000  0.3973360000000 1.0
C      1  0.4860910000000  0.5229880000000  0.4927480000000 1.0
C      1  0.4430670000000  0.5183020000000  0.4222220000000 1.0
C      1  0.5162530000000  0.6188240000000  0.5327360000000 1.0
C      1  0.5639830000000  0.4623590000000  0.5574520000000 1.0
C      1  0.5346370000000  0.4742980000000  0.5306470000000 1.0
C      1  0.4862730000000  0.5946680000000  0.4376590000000 1.0
C      1  0.4903060000000  0.4413210000000  0.5376700000000 1.0
C      1  0.4765780000000  0.5161140000000  0.3935440000000 1.0
C      1  0.5243860000000  0.5024090000000  0.4871290000000 1.0
C      1  0.5977050000000  0.4958610000000  0.5351590000000 1.0
C      1  0.5992820000000  0.5054940000000  0.4854500000000 1.0
C      1  0.5474830000000  0.4482290000000  0.4114590000000 1.0
C      1  0.5366140000000  0.5697950000000  0.5688580000000 1.0
C      1  0.4598010000000  0.5352870000000  0.5278980000000 1.0
C      1  0.5834700000000  0.4540640000000  0.4550730000000 1.0
C      1  0.4570130000000  0.4480530000000  0.5357420000000 1.0
C      1  0.4698190000000  0.5853110000000  0.4895620000000 1.0
C      1  0.4761580000000  0.4064700000000  0.4609060000000 1.0
C      1  0.4778390000000  0.5746300000000  0.5551730000000 1.0
C      1  0.5408620000000  0.4473010000000  0.5715540000000 1.0
C      1  0.3997370000000  0.5176860000000  0.5486820000000 1.0
C      1  0.5896460000000  0.4282970000000  0.4419810000000 1.0
C      1  0.4195250000000  0.5399970000000  0.5607310000000 1.0
C      1  0.5699530000000  0.5064180000000  0.4742180000000 1.0
C      1  0.4549310000000  0.4160410000000  0.5353280000000 1.0
C      1  0.4962630000000  0.6019600000000  0.5545880000000 1.0
C      1  0.4319620000000  0.5811110000000  0.4627330000000 1.0
C      1  0.4671290000000  0.5560430000000  0.4813670000000 1.0
C      1  0.5052770000000  0.4645290000000  0.4294220000000 1.0
C      1  0.4205450000000  0.5660260000000  0.4825770000000 1.0
C      1  0.5173510000000  0.5191300000000  0.5759250000000 1.0
C      1  0.5225350000000  0.4949270000000  0.4027870000000 1.0
C      1  0.5883300000000  0.5416670000000  0.5196410000000 1.0
C      1  0.4399240000000  0.5085220000000  0.5211930000000 1.0
C      1  0.5740880000000  0.4432030000000  0.5368550000000 1.0
C      1  0.5550020000000  0.5139490000000  0.4157880000000 1.0
C      1  0.5543110000000  0.4273550000000  0.4605930000000 1.0
C      1  0.4270840000000  0.5392310000000  0.5290780000000 1.0
C      1  0.5330580000000  0.4723640000000  0.4428840000000 1.0
C      1  0.5123590000000  0.3993940000000  0.5263940000000 1.0
C      1  0.4630890000000  0.5904520000000  0.5153720000000 1.0
C      1  0.4824870000000  0.4840920000000  0.5449020000000 1.0
C      1  0.5676760000000  0.4946080000000  0.5477700000000 1.0
C      1  0.5178660000000  0.5019350000000  0.4357320000000 1.0
C      1  0.4267280000000  0.4969640000000  0.4016450000000 1.0
C      1  0.5275370000000  0.5355830000000  0.4944450000000 1.0
C      1  0.5577670000000  0.5628970000000  0.4575710000000 1.0
C      1  0.5007670000000  0.4320790000000  0.4211180000000 1.0
C      1  0.5208440000000  0.5928300000000  0.4574120000000 1.0
C      1  0.6127180000000  0.5352150000000  0.4810850000000 1.0
C      1  0.5670250000000  0.4025660000000  0.5019440000000 1.0
C      1  0.5252360000000  0.5639760000000  0.4477160000000 1.0
C      1  0.5014040000000  0.4926080000000  0.4639810000000 1.0
C      1  0.4121010000000  0.5225960000000  0.4510590000000 1.0
C      1  0.5786940000000  0.4202030000000  0.4799930000000 1.0
C      1  0.6107950000000  0.4711570000000  0.5313670000000 1.0
C      1  0.3820570000000  0.5521400000000  0.5102700000000 1.0
C      1  0.5512150000000  0.5503750000000  0.5878590000000 1.0
C      1  0.4700270000000  0.4825100000000  0.5203060000000 1.0
C      1  0.5214780000000  0.4320330000000  0.5476270000000 1.0
C      1  0.5681470000000  0.5005630000000  0.5964910000000 1.0
C      1  0.5767150000000  0.5128010000000  0.5734490000000 1.0
C      1  0.4195990000000  0.5336000000000  0.4785550000000 1.0
C      1  0.4978900000000  0.6249310000000  0.5093550000000 1.0
C      1  0.5279290000000  0.4617750000000  0.5943250000000 1.0
C      1  0.4902480000000  0.4366370000000  0.5038870000000 1.0
C      1  0.4455770000000  0.6048990000000  0.4650020000000 1.0
C      1  0.4435260000000  0.4940840000000  0.4905870000000 1.0
C      1  0.5585350000000  0.4635180000000  0.5004790000000 1.0
C      1  0.5646740000000  0.5184370000000  0.4480750000000 1.0
C      1  0.5480780000000  0.4837600000000  0.4780280000000 1.0
C      1  0.4423780000000  0.5367160000000  0.5862590000000 1.0
C      1  0.5665030000000  0.4725050000000  0.4392180000000 1.0
C      1  0.5560650000000  0.5866350000000  0.5282430000000 1.0
C      1  0.5331170000000  0.5310340000000  0.4445370000000 1.0
C      1  0.4894360000000  0.5091330000000  0.6097010000000 1.0
C      1  0.5145820000000  0.4825240000000  0.5093010000000 1.0
C      1  0.6101180000000  0.4767660000000  0.4833410000000 1.0
C      1  0.5667930000000  0.5510280000000  0.4851390000000 1.0
C      1  0.4670560000000  0.4977600000000  0.4662630000000 1.0
C      1  0.4420260000000  0.4688840000000  0.5134140000000 1.0
C      1  0.4271010000000  0.5698530000000  0.5751480000000 1.0
C      1  0.4344700000000  0.4758330000000  0.4633130000000 1.0
C      1  0.4680040000000  0.4529450000000  0.4583680000000 1.0
C      1  0.4713040000000  0.5299800000000  0.5996580000000 1.0
END
