TITL C-2848503-6230-565 -0.00143533150734116 125000 -838.579819936973 0 0 157 (C1) n - 1
REM
REM in /home/bkarasulu/work/CARBON/AIRSS/Generating-Clusters/AIREBO/with-SteepDescent/Only-C1/SD-CG-opt/Try1-1.4A-POS3A/HFTN-CG
REM
REM
REM
REM
REM
REM ./C.cell (11c1c37f851c82e70ff6c80c92926a4b)
REM
REM compiler GCC version 9.2.1 20190827 (Red Hat 9.2.1-1)
REM options -cpp -mtune=generic -march=x86-64 -g -O0 -fpre-include=/usr/include/finclude/math-vector-fortran.h
REM seed 1620365380 -24793257 -554524443 1957158438 -620107747 1071625255 -1857684474 1735405216 1768173696 -1498247045 -928832608 -2006802124 -873802943 -1464706478 -362864067 -300506452 137601919 428014166 1775424918 -1237927428 -311822207 -183320962 -2049156181 1598715547 2044209946 2139689231 -1552165689 -1979200729 1670842266 -1490507940 1157940812 605982435 -441851315
REM
CELL 1.54180   50.00000   50.00000   50.00000   90.00000   90.00000   90.00000
LATT -1
SFAC C  
C      1  0.5224400000000  0.5190060000000  0.5307590000000 1.0
C      1  0.4578060000000  0.5511100000000  0.5806620000000 1.0
C      1  0.4327200000000  0.5545480000000  0.5577220000000 1.0
C      1  0.5208860000000  0.6012380000000  0.5305590000000 1.0
C      1  0.4173800000000  0.4503470000000  0.5138990000000 1.0
C      1  0.5349030000000  0.4921740000000  0.4452610000000 1.0
C      1  0.4257150000000  0.4794360000000  0.5297810000000 1.0
C      1  0.5435700000000  0.4329210000000  0.4505140000000 1.0
C      1  0.5372760000000  0.4684470000000  0.4204780000000 1.0
C      1  0.5002390000000  0.4942550000000  0.4019270000000 1.0
C      1  0.5156640000000  0.5238330000000  0.5720810000000 1.0
C      1  0.5728930000000  0.4120440000000  0.5026400000000 1.0
C      1  0.5036400000000  0.4179280000000  0.5335360000000 1.0
C      1  0.4474990000000  0.4483090000000  0.5639700000000 1.0
C      1  0.5416810000000  0.5227310000000  0.6019860000000 1.0
C      1  0.3833180000000  0.5841600000000  0.5152510000000 1.0
C      1  0.5364470000000  0.5429990000000  0.5437930000000 1.0
C      1  0.5847910000000  0.4755860000000  0.4209120000000 1.0
C      1  0.6006380000000  0.5305080000000  0.5400560000000 1.0
C      1  0.4587270000000  0.4617690000000  0.4535030000000 1.0
C      1  0.4306640000000  0.5672910000000  0.4392700000000 1.0
C      1  0.5622730000000  0.4346800000000  0.5647500000000 1.0
C      1  0.5159760000000  0.4780160000000  0.5326600000000 1.0
C      1  0.4007320000000  0.5437200000000  0.5536160000000 1.0
C      1  0.3861980000000  0.5046810000000  0.4722860000000 1.0
C      1  0.5704290000000  0.4783250000000  0.5404820000000 1.0
C      1  0.4295390000000  0.5242760000000  0.5729200000000 1.0
C      1  0.4586900000000  0.4286540000000  0.4310870000000 1.0
C      1  0.5482090000000  0.5146190000000  0.5692120000000 1.0
C      1  0.4660970000000  0.5257030000000  0.5890150000000 1.0
C      1  0.5047750000000  0.4699780000000  0.4592590000000 1.0
C      1  0.5275410000000  0.5806410000000  0.4710100000000 1.0
C      1  0.5129760000000  0.3949930000000  0.5210310000000 1.0
C      1  0.5664610000000  0.5579840000000  0.5049240000000 1.0
C      1  0.5462930000000  0.5345700000000  0.4906230000000 1.0
C      1  0.5752090000000  0.3858510000000  0.5104600000000 1.0
C      1  0.5310330000000  0.4065760000000  0.4678670000000 1.0
C      1  0.4951680000000  0.4197090000000  0.4795480000000 1.0
C      1  0.4879300000000  0.4468020000000  0.4511270000000 1.0
C      1  0.4697210000000  0.5563480000000  0.4765820000000 1.0
C      1  0.4249430000000  0.4635600000000  0.5673630000000 1.0
C      1  0.3993330000000  0.5012840000000  0.4982880000000 1.0
C      1  0.5647980000000  0.4667030000000  0.5016130000000 1.0
C      1  0.5336650000000  0.4990230000000  0.4060360000000 1.0
C      1  0.4465470000000  0.4373860000000  0.5131240000000 1.0
C      1  0.6005590000000  0.5504250000000  0.4858350000000 1.0
C      1  0.4758550000000  0.4994070000000  0.5181890000000 1.0
C      1  0.4193570000000  0.4829640000000  0.4775050000000 1.0
C      1  0.6070600000000  0.4997450000000  0.4782570000000 1.0
C      1  0.5065720000000  0.4185950000000  0.4475360000000 1.0
C      1  0.5763220000000  0.4449870000000  0.5437450000000 1.0
C      1  0.5967850000000  0.5497380000000  0.5179930000000 1.0
C      1  0.4640630000000  0.5246730000000  0.5355960000000 1.0
C      1  0.5173530000000  0.4473750000000  0.4087360000000 1.0
C      1  0.4375500000000  0.5099670000000  0.5062710000000 1.0
C      1  0.4556880000000  0.5186310000000  0.4352430000000 1.0
C      1  0.5056300000000  0.5619820000000  0.5670090000000 1.0
C      1  0.5817410000000  0.4328700000000  0.4511100000000 1.0
C      1  0.4713950000000  0.5048040000000  0.3864780000000 1.0
C      1  0.5543810000000  0.5142770000000  0.4282730000000 1.0
C      1  0.4739960000000  0.4663370000000  0.5104950000000 1.0
C      1  0.5023500000000  0.5480990000000  0.4185530000000 1.0
C      1  0.5423250000000  0.5687480000000  0.4204440000000 1.0
C      1  0.5820460000000  0.5004300000000  0.4236110000000 1.0
C      1  0.4567710000000  0.5660950000000  0.4289200000000 1.0
C      1  0.5760740000000  0.5003040000000  0.5733890000000 1.0
C      1  0.4773560000000  0.5730090000000  0.5740880000000 1.0
C      1  0.4778360000000  0.5998180000000  0.5018390000000 1.0
C      1  0.4254520000000  0.5528460000000  0.4623830000000 1.0
C      1  0.4433340000000  0.4776690000000  0.5010770000000 1.0
C      1  0.5148570000000  0.4191210000000  0.4180360000000 1.0
C      1  0.5974360000000  0.4745490000000  0.4800670000000 1.0
C      1  0.4757580000000  0.5505640000000  0.4482010000000 1.0
C      1  0.5351980000000  0.4471990000000  0.5753700000000 1.0
C      1  0.4861260000000  0.5184790000000  0.4438050000000 1.0
C      1  0.4475300000000  0.4575450000000  0.4216730000000 1.0
C      1  0.4651250000000  0.5810790000000  0.5260750000000 1.0
C      1  0.5208060000000  0.4419890000000  0.4834510000000 1.0
C      1  0.5828920000000  0.4335600000000  0.5185660000000 1.0
C      1  0.5700150000000  0.5182340000000  0.5048090000000 1.0
C      1  0.4377430000000  0.5241220000000  0.4599990000000 1.0
C      1  0.4935040000000  0.4548970000000  0.5434550000000 1.0
C      1  0.3941140000000  0.4844380000000  0.4250540000000 1.0
C      1  0.5148330000000  0.3957780000000  0.4938960000000 1.0
C      1  0.4472520000000  0.4821880000000  0.3943950000000 1.0
C      1  0.4916770000000  0.5358320000000  0.5516920000000 1.0
C      1  0.4291510000000  0.5672870000000  0.4891760000000 1.0
C      1  0.4309150000000  0.5572330000000  0.5238650000000 1.0
C      1  0.5051460000000  0.4958740000000  0.5828960000000 1.0
C      1  0.4035800000000  0.4999900000000  0.5247550000000 1.0
C      1  0.5502330000000  0.4937040000000  0.5059690000000 1.0
C      1  0.5546360000000  0.5081870000000  0.5364310000000 1.0
C      1  0.4554930000000  0.5793310000000  0.5528140000000 1.0
C      1  0.4807840000000  0.5651770000000  0.4111640000000 1.0
C      1  0.5332740000000  0.5497300000000  0.5830840000000 1.0
C      1  0.5226110000000  0.5767860000000  0.4376920000000 1.0
C      1  0.5022950000000  0.4943640000000  0.4358730000000 1.0
C      1  0.4526910000000  0.4087680000000  0.5012050000000 1.0
C      1  0.4754410000000  0.5054960000000  0.4838100000000 1.0
C      1  0.4652670000000  0.4483020000000  0.5855650000000 1.0
C      1  0.5438440000000  0.4612210000000  0.5278140000000 1.0
C      1  0.5305910000000  0.5086320000000  0.4746370000000 1.0
C      1  0.4959810000000  0.5027750000000  0.5446460000000 1.0
C      1  0.4224120000000  0.4321080000000  0.4670600000000 1.0
C      1  0.5378650000000  0.4636540000000  0.4638930000000 1.0
C      1  0.5466870000000  0.4712410000000  0.5963180000000 1.0
C      1  0.5081790000000  0.5513970000000  0.4518890000000 1.0
C      1  0.5757590000000  0.5638390000000  0.4745050000000 1.0
C      1  0.5622490000000  0.4186870000000  0.4751070000000 1.0
C      1  0.5542000000000  0.5636660000000  0.4581020000000 1.0
C      1  0.5560820000000  0.5614570000000  0.5636540000000 1.0
C      1  0.4527860000000  0.5298590000000  0.4890690000000 1.0
C      1  0.5234860000000  0.4444850000000  0.5123000000000 1.0
C      1  0.4653100000000  0.4096010000000  0.4767980000000 1.0
C      1  0.5208460000000  0.4746680000000  0.5661470000000 1.0
C      1  0.5006580000000  0.6138020000000  0.5210200000000 1.0
C      1  0.4624400000000  0.5493980000000  0.5151660000000 1.0
C      1  0.4854880000000  0.4461160000000  0.4185840000000 1.0
C      1  0.5187250000000  0.5688900000000  0.5369530000000 1.0
C      1  0.4687220000000  0.4749360000000  0.5940430000000 1.0
C      1  0.5699640000000  0.5373580000000  0.5448320000000 1.0
C      1  0.4079510000000  0.4525250000000  0.4858640000000 1.0
C      1  0.4472130000000  0.4980810000000  0.5485510000000 1.0
C      1  0.4689450000000  0.5214540000000  0.6162600000000 1.0
C      1  0.4473430000000  0.4500980000000  0.4815820000000 1.0
C      1  0.4864140000000  0.4294810000000  0.5850700000000 1.0
C      1  0.5736520000000  0.4788040000000  0.5914540000000 1.0
C      1  0.5962700000000  0.4538370000000  0.5019020000000 1.0
C      1  0.4179230000000  0.4949470000000  0.5655310000000 1.0
C      1  0.5185090000000  0.4919190000000  0.5017000000000 1.0
C      1  0.5308700000000  0.4939110000000  0.6003570000000 1.0
C      1  0.3986590000000  0.5166790000000  0.5480410000000 1.0
C      1  0.4003970000000  0.4906620000000  0.4503450000000 1.0
C      1  0.5048990000000  0.6028840000000  0.4828200000000 1.0
C      1  0.4949660000000  0.4783160000000  0.4865480000000 1.0
C      1  0.4562240000000  0.5825670000000  0.4873150000000 1.0
C      1  0.5199860000000  0.5723730000000  0.5031410000000 1.0
C      1  0.4491670000000  0.4196550000000  0.4557990000000 1.0
C      1  0.4502710000000  0.5115740000000  0.4097950000000 1.0
C      1  0.4493840000000  0.4925080000000  0.4646550000000 1.0
C      1  0.5496950000000  0.5802360000000  0.5177030000000 1.0
C      1  0.4623280000000  0.4489700000000  0.5373150000000 1.0
C      1  0.5010380000000  0.5254240000000  0.4735620000000 1.0
C      1  0.5923720000000  0.5031510000000  0.5492360000000 1.0
C      1  0.4737680000000  0.4985200000000  0.5700710000000 1.0
C      1  0.4905880000000  0.4366990000000  0.5086500000000 1.0
C      1  0.4740050000000  0.4759810000000  0.4134970000000 1.0
C      1  0.5559740000000  0.5860650000000  0.5461080000000 1.0
C      1  0.4058430000000  0.5731850000000  0.5107890000000 1.0
C      1  0.5081140000000  0.4336570000000  0.5628490000000 1.0
C      1  0.5120900000000  0.5258650000000  0.4060340000000 1.0
C      1  0.5650190000000  0.4535990000000  0.4299570000000 1.0
C      1  0.5949890000000  0.5214930000000  0.4899100000000 1.0
C      1  0.5711100000000  0.4587790000000  0.4691220000000 1.0
C      1  0.5553100000000  0.5442480000000  0.4327690000000 1.0
C      1  0.5157120000000  0.5317770000000  0.5035760000000 1.0
C      1  0.4930570000000  0.5539680000000  0.5007270000000 1.0
END
