TITL C-2847947-6848-646 0.000163157590217215 125000 -165.458340987386 0 0 30 (C1) n - 1
REM
REM in /home/bkarasulu/work/CARBON/AIRSS/Generating-Clusters/AIREBO/with-SteepDescent/Only-C1/SD-CG-opt/Try1-1.4A-POS3A/HFTN-CG
REM
REM
REM
REM
REM
REM ./C.cell (11c1c37f851c82e70ff6c80c92926a4b)
REM
REM compiler GCC version 9.2.1 20190827 (Red Hat 9.2.1-1)
REM options -cpp -mtune=generic -march=x86-64 -g -O0 -fpre-include=/usr/include/finclude/math-vector-fortran.h
REM seed -958069744 -173119674 -673819323 -2017022606 -1184836966 1089467187 1707883307 1595935560 126268418 1923452726 -1604183570 1886264682 2088175127 -745463262 -330558445 -1315654851 -243125179 51011357 -2009635252 523311482 -450734241 -2141808206 -193607162 2127101724 -1808311292 1788794682 -672233158 -520916598 -1965460974 828451850 -1153479205 908001908 -1459233637
REM
CELL 1.54180   50.00000   50.00000   50.00000   90.00000   90.00000   90.00000
LATT -1
SFAC C  
C      1  0.5158860000000  0.4002520000000  0.4736520000000 1.0
C      1  0.5114750000000  0.5616300000000  0.5010080000000 1.0
C      1  0.5067370000000  0.4446650000000  0.4555570000000 1.0
C      1  0.4673530000000  0.4202470000000  0.4730410000000 1.0
C      1  0.5007450000000  0.4628370000000  0.5163540000000 1.0
C      1  0.5081240000000  0.5818390000000  0.5202070000000 1.0
C      1  0.5063930000000  0.4838120000000  0.4942780000000 1.0
C      1  0.4997710000000  0.4772070000000  0.5409650000000 1.0
C      1  0.5055740000000  0.5049260000000  0.5371830000000 1.0
C      1  0.4895500000000  0.4790160000000  0.4657670000000 1.0
C      1  0.4734290000000  0.4663900000000  0.4183810000000 1.0
C      1  0.5240210000000  0.3766700000000  0.4822600000000 1.0
C      1  0.5000770000000  0.4372430000000  0.5082980000000 1.0
C      1  0.4865430000000  0.6147160000000  0.4925250000000 1.0
C      1  0.4578720000000  0.4376970000000  0.4568820000000 1.0
C      1  0.4893810000000  0.5565920000000  0.5881750000000 1.0
C      1  0.4780300000000  0.4578380000000  0.4443030000000 1.0
C      1  0.5074570000000  0.5264300000000  0.5544800000000 1.0
C      1  0.4957880000000  0.4222380000000  0.4829380000000 1.0
C      1  0.5100120000000  0.5095190000000  0.5094250000000 1.0
C      1  0.4681960000000  0.6204290000000  0.4746980000000 1.0
C      1  0.5214940000000  0.4696030000000  0.4684770000000 1.0
C      1  0.5014820000000  0.5520860000000  0.5637510000000 1.0
C      1  0.4756350000000  0.5607430000000  0.6101030000000 1.0
C      1  0.5171570000000  0.6283730000000  0.5264310000000 1.0
C      1  0.5091310000000  0.5730090000000  0.5467680000000 1.0
C      1  0.5195560000000  0.4182270000000  0.4510310000000 1.0
C      1  0.5329660000000  0.4119710000000  0.4285960000000 1.0
C      1  0.5161920000000  0.5349940000000  0.5011940000000 1.0
C      1  0.5039740000000  0.6088010000000  0.5132710000000 1.0
END
