TITL C-2848507-1641-156 0.00189444050984825 125000 -832.167612607448 0 0 158 (C1) n - 1
REM
REM in /home/bkarasulu/work/CARBON/AIRSS/Generating-Clusters/AIREBO/with-SteepDescent/Only-C1/SD-CG-opt/Try1-1.4A-POS3A/HFTN-CG
REM
REM
REM
REM
REM
REM ./C.cell (11c1c37f851c82e70ff6c80c92926a4b)
REM
REM compiler GCC version 9.2.1 20190827 (Red Hat 9.2.1-1)
REM options -cpp -mtune=generic -march=x86-64 -g -O0 -fpre-include=/usr/include/finclude/math-vector-fortran.h
REM seed 1711933865 300657010 549377440 665408452 -535869237 1490475645 121479932 -1314562644 975050405 -1757900923 -49526391 -718406300 -1436831928 -168747055 1739515615 55610584 -494541862 -1292050786 -1526272268 -475388575 -575476888 -1206350481 -1935686239 -1125996256 -132139104 1067063681 1577170845 -1833380979 1677213332 1536883778 -1753713411 1300413695 1316726448
REM
CELL 1.54180   50.00000   50.00000   50.00000   90.00000   90.00000   90.00000
LATT -1
SFAC C  
C      1  0.5035280000000  0.5052590000000  0.4292200000000 1.0
C      1  0.4653620000000  0.5271100000000  0.6170270000000 1.0
C      1  0.4317820000000  0.5273290000000  0.4497980000000 1.0
C      1  0.4536400000000  0.5601570000000  0.5257280000000 1.0
C      1  0.5595410000000  0.4293320000000  0.4670210000000 1.0
C      1  0.5407560000000  0.4625380000000  0.4831570000000 1.0
C      1  0.4401580000000  0.4193320000000  0.4583960000000 1.0
C      1  0.4465880000000  0.4901390000000  0.5902980000000 1.0
C      1  0.4832940000000  0.5210710000000  0.5021670000000 1.0
C      1  0.5873840000000  0.4547820000000  0.5372950000000 1.0
C      1  0.5221430000000  0.5496090000000  0.4937660000000 1.0
C      1  0.4793570000000  0.4313630000000  0.4736940000000 1.0
C      1  0.6044410000000  0.4962360000000  0.4929640000000 1.0
C      1  0.4764440000000  0.5344590000000  0.4610850000000 1.0
C      1  0.5271150000000  0.4414010000000  0.4007310000000 1.0
C      1  0.5239400000000  0.5912380000000  0.4877180000000 1.0
C      1  0.4129640000000  0.4528330000000  0.5315310000000 1.0
C      1  0.5779770000000  0.5293360000000  0.5599190000000 1.0
C      1  0.4540560000000  0.5028730000000  0.3925920000000 1.0
C      1  0.4341840000000  0.4627510000000  0.4400540000000 1.0
C      1  0.5482420000000  0.4639110000000  0.5811290000000 1.0
C      1  0.5680910000000  0.5273920000000  0.5202820000000 1.0
C      1  0.4740350000000  0.4152780000000  0.5600160000000 1.0
C      1  0.4187820000000  0.5558070000000  0.5443620000000 1.0
C      1  0.5240180000000  0.4013980000000  0.5258740000000 1.0
C      1  0.5858120000000  0.5562090000000  0.5155060000000 1.0
C      1  0.4937230000000  0.4051900000000  0.5419810000000 1.0
C      1  0.4778550000000  0.5601990000000  0.5053880000000 1.0
C      1  0.5278850000000  0.4950690000000  0.6026660000000 1.0
C      1  0.5135460000000  0.4869820000000  0.4045440000000 1.0
C      1  0.5317010000000  0.4111240000000  0.4964930000000 1.0
C      1  0.4942160000000  0.5554640000000  0.4790970000000 1.0
C      1  0.4526600000000  0.5030420000000  0.4510500000000 1.0
C      1  0.5422790000000  0.4471370000000  0.5301200000000 1.0
C      1  0.4296780000000  0.5578150000000  0.4502230000000 1.0
C      1  0.5706850000000  0.4870070000000  0.5859020000000 1.0
C      1  0.5482740000000  0.4428860000000  0.4142450000000 1.0
C      1  0.5668200000000  0.4852920000000  0.5529310000000 1.0
C      1  0.4835060000000  0.4679490000000  0.4563360000000 1.0
C      1  0.4910290000000  0.4685110000000  0.4877400000000 1.0
C      1  0.5429180000000  0.5409950000000  0.5386570000000 1.0
C      1  0.5838970000000  0.4388260000000  0.5077130000000 1.0
C      1  0.5825450000000  0.5346330000000  0.4259410000000 1.0
C      1  0.4333640000000  0.4876310000000  0.5340010000000 1.0
C      1  0.4549640000000  0.6036420000000  0.5013310000000 1.0
C      1  0.4545960000000  0.4945410000000  0.5100990000000 1.0
C      1  0.5511860000000  0.4350170000000  0.4994890000000 1.0
C      1  0.4995780000000  0.4793100000000  0.6071150000000 1.0
C      1  0.5005710000000  0.4448230000000  0.5606870000000 1.0
C      1  0.5856120000000  0.4712550000000  0.4683060000000 1.0
C      1  0.4381100000000  0.5192360000000  0.4175030000000 1.0
C      1  0.4652690000000  0.5358210000000  0.4297420000000 1.0
C      1  0.5529860000000  0.5885560000000  0.5052050000000 1.0
C      1  0.4809480000000  0.4884970000000  0.5287210000000 1.0
C      1  0.5173980000000  0.5532270000000  0.5243980000000 1.0
C      1  0.5050770000000  0.5449290000000  0.5778100000000 1.0
C      1  0.4531580000000  0.4829080000000  0.4264830000000 1.0
C      1  0.4085980000000  0.4921870000000  0.5647840000000 1.0
C      1  0.5294590000000  0.5801660000000  0.5513460000000 1.0
C      1  0.5684550000000  0.5275320000000  0.4866000000000 1.0
C      1  0.5530640000000  0.5187700000000  0.4476370000000 1.0
C      1  0.5434860000000  0.4866880000000  0.5348210000000 1.0
C      1  0.5334890000000  0.4781000000000  0.4543150000000 1.0
C      1  0.5426940000000  0.5664030000000  0.4735900000000 1.0
C      1  0.5046500000000  0.4287430000000  0.5199990000000 1.0
C      1  0.4281280000000  0.5186070000000  0.4824880000000 1.0
C      1  0.5400480000000  0.4901190000000  0.4231900000000 1.0
C      1  0.5193280000000  0.4786340000000  0.5760200000000 1.0
C      1  0.4152520000000  0.4997200000000  0.5077270000000 1.0
C      1  0.4515310000000  0.5733590000000  0.4883330000000 1.0
C      1  0.4676910000000  0.5817770000000  0.4619330000000 1.0
C      1  0.5542000000000  0.4011830000000  0.5370370000000 1.0
C      1  0.5143970000000  0.4502410000000  0.4961760000000 1.0
C      1  0.5697660000000  0.5618010000000  0.5403200000000 1.0
C      1  0.5153800000000  0.4150770000000  0.4690040000000 1.0
C      1  0.5312880000000  0.5436930000000  0.4554540000000 1.0
C      1  0.5634820000000  0.5110950000000  0.4100190000000 1.0
C      1  0.5161460000000  0.4673960000000  0.5320030000000 1.0
C      1  0.4849590000000  0.4538400000000  0.5318320000000 1.0
C      1  0.3997890000000  0.4810100000000  0.4742900000000 1.0
C      1  0.4803690000000  0.6139580000000  0.5047840000000 1.0
C      1  0.4958790000000  0.4239130000000  0.4440580000000 1.0
C      1  0.5718490000000  0.4689830000000  0.4953280000000 1.0
C      1  0.5709760000000  0.4897990000000  0.4483140000000 1.0
C      1  0.4533600000000  0.4884690000000  0.4766690000000 1.0
C      1  0.4440240000000  0.4649970000000  0.4969790000000 1.0
C      1  0.4119150000000  0.4662780000000  0.5025290000000 1.0
C      1  0.4060240000000  0.4365970000000  0.4873380000000 1.0
C      1  0.5068680000000  0.5908920000000  0.4349250000000 1.0
C      1  0.4827570000000  0.5045820000000  0.5987320000000 1.0
C      1  0.4791230000000  0.4392550000000  0.5817340000000 1.0
C      1  0.4474310000000  0.4210650000000  0.5063360000000 1.0
C      1  0.4654170000000  0.5156580000000  0.5420740000000 1.0
C      1  0.4282460000000  0.4213050000000  0.4828590000000 1.0
C      1  0.5306830000000  0.4437010000000  0.5605250000000 1.0
C      1  0.5008520000000  0.5719320000000  0.4160700000000 1.0
C      1  0.5144110000000  0.5317640000000  0.4342630000000 1.0
C      1  0.4694370000000  0.4467010000000  0.5023910000000 1.0
C      1  0.5325210000000  0.4383870000000  0.4506970000000 1.0
C      1  0.4924680000000  0.4107210000000  0.4938620000000 1.0
C      1  0.4800230000000  0.4900690000000  0.5685990000000 1.0
C      1  0.5875080000000  0.5397570000000  0.4537840000000 1.0
C      1  0.4397440000000  0.5056020000000  0.5621540000000 1.0
C      1  0.4684110000000  0.3974020000000  0.5045460000000 1.0
C      1  0.4588270000000  0.5681570000000  0.3895990000000 1.0
C      1  0.5093390000000  0.4609860000000  0.4402480000000 1.0
C      1  0.5431700000000  0.4939080000000  0.3893560000000 1.0
C      1  0.4870050000000  0.5393090000000  0.5306220000000 1.0
C      1  0.5360600000000  0.5205940000000  0.4942550000000 1.0
C      1  0.4101380000000  0.4687630000000  0.4507920000000 1.0
C      1  0.5020290000000  0.5005770000000  0.4880320000000 1.0
C      1  0.5513290000000  0.5839780000000  0.5341510000000 1.0
C      1  0.4526080000000  0.5719600000000  0.4405380000000 1.0
C      1  0.4206690000000  0.5381850000000  0.5225990000000 1.0
C      1  0.5522460000000  0.5084070000000  0.5982310000000 1.0
C      1  0.4613060000000  0.4436910000000  0.4476450000000 1.0
C      1  0.4519820000000  0.5284230000000  0.5135570000000 1.0
C      1  0.4339380000000  0.4333430000000  0.5318910000000 1.0
C      1  0.5875770000000  0.5110920000000  0.4690350000000 1.0
C      1  0.4753720000000  0.5074470000000  0.4186850000000 1.0
C      1  0.4202930000000  0.5649280000000  0.4778500000000 1.0
C      1  0.5511170000000  0.5314920000000  0.5767960000000 1.0
C      1  0.5073140000000  0.4954820000000  0.5490340000000 1.0
C      1  0.4579580000000  0.4409360000000  0.5479990000000 1.0
C      1  0.4859080000000  0.5019310000000  0.4581120000000 1.0
C      1  0.5275310000000  0.5061840000000  0.4662500000000 1.0
C      1  0.5198710000000  0.5514900000000  0.4125810000000 1.0
C      1  0.4792480000000  0.4323540000000  0.4213330000000 1.0
C      1  0.4983100000000  0.4573070000000  0.4082860000000 1.0
C      1  0.4557930000000  0.4713210000000  0.5538110000000 1.0
C      1  0.4023220000000  0.4681320000000  0.5526690000000 1.0
C      1  0.4713840000000  0.4669230000000  0.5919600000000 1.0
C      1  0.5861130000000  0.4620260000000  0.5685060000000 1.0
C      1  0.5042040000000  0.6024700000000  0.5112690000000 1.0
C      1  0.5181620000000  0.5040060000000  0.5179320000000 1.0
C      1  0.4447030000000  0.5060500000000  0.6125670000000 1.0
C      1  0.5675220000000  0.4268280000000  0.5349890000000 1.0
C      1  0.4706460000000  0.5639510000000  0.4145810000000 1.0
C      1  0.5752440000000  0.5617510000000  0.4671990000000 1.0
C      1  0.5231870000000  0.5238930000000  0.5592330000000 1.0
C      1  0.5928280000000  0.4825930000000  0.5183900000000 1.0
C      1  0.4997070000000  0.5845610000000  0.4647850000000 1.0
C      1  0.5479040000000  0.4322800000000  0.5876900000000 1.0
C      1  0.4052100000000  0.5395850000000  0.4948710000000 1.0
C      1  0.4735840000000  0.5811770000000  0.5530890000000 1.0
C      1  0.4856430000000  0.5546220000000  0.5582770000000 1.0
C      1  0.5578440000000  0.4591660000000  0.4409820000000 1.0
C      1  0.3903220000000  0.5098340000000  0.4869290000000 1.0
C      1  0.4924950000000  0.5352930000000  0.6018780000000 1.0
C      1  0.5506890000000  0.5397650000000  0.4209520000000 1.0
C      1  0.5854810000000  0.5069070000000  0.5396690000000 1.0
C      1  0.5025640000000  0.5820280000000  0.5348200000000 1.0
C      1  0.5757830000000  0.5735510000000  0.4947410000000 1.0
C      1  0.5555890000000  0.4960220000000  0.5073400000000 1.0
C      1  0.5330070000000  0.5601420000000  0.5722390000000 1.0
C      1  0.4530390000000  0.5400480000000  0.4816080000000 1.0
C      1  0.4428930000000  0.5761720000000  0.5487180000000 1.0
C      1  0.4697480000000  0.4733880000000  0.3991170000000 1.0
END
