TITL C-2848495-5024-232 0.00580031494443498 125000 -368.800835927987 0 0 66 (C1) n - 1
REM
REM in /home/bkarasulu/work/CARBON/AIRSS/Generating-Clusters/AIREBO/with-SteepDescent/Only-C1/SD-CG-opt/Try1-1.4A-POS3A/HFTN-CG
REM
REM
REM
REM
REM
REM ./C.cell (11c1c37f851c82e70ff6c80c92926a4b)
REM
REM compiler GCC version 9.2.1 20190827 (Red Hat 9.2.1-1)
REM options -cpp -mtune=generic -march=x86-64 -g -O0 -fpre-include=/usr/include/finclude/math-vector-fortran.h
REM seed -625313944 -1754956103 657327789 1103126505 -44515632 716108369 -1875010314 554986850 -1927524020 -400546282 -2142965135 1575789957 1747000827 791722920 -36341684 -1414870520 -949183048 -755099815 1607100781 347338821 230618135 -1407491613 -858080651 13268538 -244043927 -280796345 -817876435 -761862209 -328065952 555121387 2020452319 1932142917 -1059103840
REM
CELL 1.54180   50.00000   50.00000   50.00000   90.00000   90.00000   90.00000
LATT -1
SFAC C  
C      1  0.4637890000000  0.5406470000000  0.5362360000000 1.0
C      1  0.4763200000000  0.4874470000000  0.4230570000000 1.0
C      1  0.4863490000000  0.5657470000000  0.5031150000000 1.0
C      1  0.5287780000000  0.5464750000000  0.4584300000000 1.0
C      1  0.5096040000000  0.5495350000000  0.5007150000000 1.0
C      1  0.5221060000000  0.5327570000000  0.4820680000000 1.0
C      1  0.5074990000000  0.5624140000000  0.4486690000000 1.0
C      1  0.4649210000000  0.4456150000000  0.4435850000000 1.0
C      1  0.4745240000000  0.5105680000000  0.3981930000000 1.0
C      1  0.4474140000000  0.5461960000000  0.4875480000000 1.0
C      1  0.4769670000000  0.4975240000000  0.5481980000000 1.0
C      1  0.4651910000000  0.4559080000000  0.4725180000000 1.0
C      1  0.5847470000000  0.5566440000000  0.5106310000000 1.0
C      1  0.4514460000000  0.4794120000000  0.5508530000000 1.0
C      1  0.5583370000000  0.4875620000000  0.4887020000000 1.0
C      1  0.5512580000000  0.5256190000000  0.4229950000000 1.0
C      1  0.4272930000000  0.4717860000000  0.4931040000000 1.0
C      1  0.4812270000000  0.5671610000000  0.4559820000000 1.0
C      1  0.5100180000000  0.4507900000000  0.5519950000000 1.0
C      1  0.5671940000000  0.5622470000000  0.5304080000000 1.0
C      1  0.4668170000000  0.4662400000000  0.5212040000000 1.0
C      1  0.5802950000000  0.5050890000000  0.4778320000000 1.0
C      1  0.4776770000000  0.4593700000000  0.5590480000000 1.0
C      1  0.5549700000000  0.4549860000000  0.5307590000000 1.0
C      1  0.4525130000000  0.4616220000000  0.4955700000000 1.0
C      1  0.5011140000000  0.4549670000000  0.5817070000000 1.0
C      1  0.4260090000000  0.4954890000000  0.5446970000000 1.0
C      1  0.5341940000000  0.5040160000000  0.4260330000000 1.0
C      1  0.4685190000000  0.5028230000000  0.5009380000000 1.0
C      1  0.4738810000000  0.5659010000000  0.5286490000000 1.0
C      1  0.4679890000000  0.5632270000000  0.4808110000000 1.0
C      1  0.5167930000000  0.5050340000000  0.5171560000000 1.0
C      1  0.4930380000000  0.4410140000000  0.4383900000000 1.0
C      1  0.4410190000000  0.4227220000000  0.5427160000000 1.0
C      1  0.5098580000000  0.4696590000000  0.4882600000000 1.0
C      1  0.5594380000000  0.4801830000000  0.5187800000000 1.0
C      1  0.5732160000000  0.5293050000000  0.4655170000000 1.0
C      1  0.5052220000000  0.5340180000000  0.5586030000000 1.0
C      1  0.5132870000000  0.5439720000000  0.5822490000000 1.0
C      1  0.5425700000000  0.4680030000000  0.4657920000000 1.0
C      1  0.5456540000000  0.4999610000000  0.5318080000000 1.0
C      1  0.5719510000000  0.5822400000000  0.5479740000000 1.0
C      1  0.5265560000000  0.4991190000000  0.4851170000000 1.0
C      1  0.4786450000000  0.5248260000000  0.5539520000000 1.0
C      1  0.5275000000000  0.4466540000000  0.5315210000000 1.0
C      1  0.4522960000000  0.4690210000000  0.4310930000000 1.0
C      1  0.4248920000000  0.4999260000000  0.4773050000000 1.0
C      1  0.4183260000000  0.5120570000000  0.5276020000000 1.0
C      1  0.4368070000000  0.4838120000000  0.4498390000000 1.0
C      1  0.5180950000000  0.4454320000000  0.5048670000000 1.0
C      1  0.4228830000000  0.5240660000000  0.4961170000000 1.0
C      1  0.4583850000000  0.4952110000000  0.4738360000000 1.0
C      1  0.4525350000000  0.5261640000000  0.5126200000000 1.0
C      1  0.5297920000000  0.4950390000000  0.4510160000000 1.0
C      1  0.5021470000000  0.5002050000000  0.4048800000000 1.0
C      1  0.5118050000000  0.4467060000000  0.6327680000000 1.0
C      1  0.6061540000000  0.4959320000000  0.4785760000000 1.0
C      1  0.5351040000000  0.4398200000000  0.4803190000000 1.0
C      1  0.4822460000000  0.4796990000000  0.4551910000000 1.0
C      1  0.5540200000000  0.5396550000000  0.4474270000000 1.0
C      1  0.4895650000000  0.4915450000000  0.5204490000000 1.0
C      1  0.5105350000000  0.4608400000000  0.4568060000000 1.0
C      1  0.5437000000000  0.5476210000000  0.5324810000000 1.0
C      1  0.5068720000000  0.4520340000000  0.6075840000000 1.0
C      1  0.5217520000000  0.5313950000000  0.5361880000000 1.0
C      1  0.4583870000000  0.4413320000000  0.5409510000000 1.0
END
