TITL C-2847955-7945-551 0.00310345510218561 125000 -263.904181188466 0 0 47 (C1) n - 1
REM
REM in /home/bkarasulu/work/CARBON/AIRSS/Generating-Clusters/AIREBO/with-SteepDescent/Only-C1/SD-CG-opt/Try1-1.4A-POS3A/HFTN-CG
REM
REM
REM
REM
REM
REM ./C.cell (11c1c37f851c82e70ff6c80c92926a4b)
REM
REM compiler GCC version 9.2.1 20190827 (Red Hat 9.2.1-1)
REM options -cpp -mtune=generic -march=x86-64 -g -O0 -fpre-include=/usr/include/finclude/math-vector-fortran.h
REM seed -1722551213 -1562291461 -2078990804 -877394729 1392911994 -557483651 -373359646 1368601696 -1195956124 198570654 156689824 -1340805829 619166592 1858013747 1137700466 1173510097 -1856536946 2075278370 -336446133 1853719223 -1646499969 1660773501 -1848742979 1013735889 -1237615512 1773121965 1973802977 -125977309 -1902675295 -1024943 -2037025182 984829419 -205976833
REM
CELL 1.54180   50.00000   50.00000   50.00000   90.00000   90.00000   90.00000
LATT -1
SFAC C  
C      1  0.4318870000000  0.4687320000000  0.5405850000000 1.0
C      1  0.5176480000000  0.4339710000000  0.5081150000000 1.0
C      1  0.5721230000000  0.5107850000000  0.4890190000000 1.0
C      1  0.4953930000000  0.4930870000000  0.5737280000000 1.0
C      1  0.4404400000000  0.5146820000000  0.4761640000000 1.0
C      1  0.4856960000000  0.4698280000000  0.5529650000000 1.0
C      1  0.4236230000000  0.5180380000000  0.4995240000000 1.0
C      1  0.4871210000000  0.4644750000000  0.4857770000000 1.0
C      1  0.4354270000000  0.5444240000000  0.5142100000000 1.0
C      1  0.4601330000000  0.5820960000000  0.4937590000000 1.0
C      1  0.5107750000000  0.5358100000000  0.5279610000000 1.0
C      1  0.5034860000000  0.4896110000000  0.4860850000000 1.0
C      1  0.5416380000000  0.4422660000000  0.4965380000000 1.0
C      1  0.5406510000000  0.4569480000000  0.4699440000000 1.0
C      1  0.5602710000000  0.5329200000000  0.5343790000000 1.0
C      1  0.4492220000000  0.4482460000000  0.5329170000000 1.0
C      1  0.4569760000000  0.5373870000000  0.4732980000000 1.0
C      1  0.5354630000000  0.4434140000000  0.4457600000000 1.0
C      1  0.4460560000000  0.4888220000000  0.4681660000000 1.0
C      1  0.5591020000000  0.5371040000000  0.5043510000000 1.0
C      1  0.5125960000000  0.5250260000000  0.4461150000000 1.0
C      1  0.4570460000000  0.4646220000000  0.4754560000000 1.0
C      1  0.5552340000000  0.5300050000000  0.4713140000000 1.0
C      1  0.5721940000000  0.5259520000000  0.5885320000000 1.0
C      1  0.5600960000000  0.5283110000000  0.5655500000000 1.0
C      1  0.4522910000000  0.5564470000000  0.4938940000000 1.0
C      1  0.5341660000000  0.5160220000000  0.4594600000000 1.0
C      1  0.4821210000000  0.5381420000000  0.4536140000000 1.0
C      1  0.4886750000000  0.4489020000000  0.4571290000000 1.0
C      1  0.5331460000000  0.5270280000000  0.5471270000000 1.0
C      1  0.5305920000000  0.5795050000000  0.5093690000000 1.0
C      1  0.5633630000000  0.4613770000000  0.5025520000000 1.0
C      1  0.4922680000000  0.5202710000000  0.4799170000000 1.0
C      1  0.5333420000000  0.5539080000000  0.5136970000000 1.0
C      1  0.4418540000000  0.4949980000000  0.5459630000000 1.0
C      1  0.4775550000000  0.4521050000000  0.5327350000000 1.0
C      1  0.4340570000000  0.5155820000000  0.5297620000000 1.0
C      1  0.5082650000000  0.4372710000000  0.4425190000000 1.0
C      1  0.5545310000000  0.4370600000000  0.4279090000000 1.0
C      1  0.4897580000000  0.5494740000000  0.5404520000000 1.0
C      1  0.5315660000000  0.4875110000000  0.4730730000000 1.0
C      1  0.5025970000000  0.5157120000000  0.5079030000000 1.0
C      1  0.4663310000000  0.4943990000000  0.5590270000000 1.0
C      1  0.4760360000000  0.5539510000000  0.4310200000000 1.0
C      1  0.4930410000000  0.4473050000000  0.5098680000000 1.0
C      1  0.5600640000000  0.4859270000000  0.4896440000000 1.0
C      1  0.4440820000000  0.4405430000000  0.4731530000000 1.0
END
