TITL C-2848508-1660-338 0.00400533520650012 125000 -750.304788735721 0 0 135 (C1) n - 1
REM
REM in /home/bkarasulu/work/CARBON/AIRSS/Generating-Clusters/AIREBO/with-SteepDescent/Only-C1/SD-CG-opt/Try1-1.4A-POS3A/HFTN-CG
REM
REM
REM
REM
REM
REM ./C.cell (11c1c37f851c82e70ff6c80c92926a4b)
REM
REM compiler GCC version 9.2.1 20190827 (Red Hat 9.2.1-1)
REM options -cpp -mtune=generic -march=x86-64 -g -O0 -fpre-include=/usr/include/finclude/math-vector-fortran.h
REM seed 283339417 1678801295 -1753863646 -166409275 716935885 -1855929843 -1211446309 920042105 1219209308 181501519 477223405 1878405141 -650042514 900643984 -525988287 724437621 -1345800094 -1980039786 -1788971007 -1968284691 -709787262 -2056180884 654893594 -1101419698 -2059921653 1751168009 912138664 1606269725 -1428616761 -1881398413 -552162775 -1503069078 -1762178619
REM
CELL 1.54180   50.00000   50.00000   50.00000   90.00000   90.00000   90.00000
LATT -1
SFAC C  
C      1  0.4834120000000  0.4388850000000  0.4316670000000 1.0
C      1  0.4896260000000  0.5067310000000  0.4702560000000 1.0
C      1  0.4243660000000  0.5492680000000  0.5327770000000 1.0
C      1  0.4530510000000  0.4267660000000  0.5125140000000 1.0
C      1  0.4384960000000  0.5154560000000  0.4894470000000 1.0
C      1  0.4541050000000  0.5401820000000  0.4453970000000 1.0
C      1  0.3968060000000  0.4826240000000  0.4928410000000 1.0
C      1  0.5386750000000  0.5776190000000  0.5111010000000 1.0
C      1  0.5684510000000  0.4992260000000  0.4179640000000 1.0
C      1  0.4716770000000  0.4797820000000  0.4598700000000 1.0
C      1  0.5890450000000  0.5238410000000  0.4530580000000 1.0
C      1  0.4838190000000  0.5690600000000  0.4656070000000 1.0
C      1  0.5056080000000  0.4713250000000  0.5289380000000 1.0
C      1  0.4472710000000  0.5203730000000  0.5734880000000 1.0
C      1  0.4083070000000  0.5013670000000  0.5112110000000 1.0
C      1  0.4247610000000  0.5705860000000  0.5085080000000 1.0
C      1  0.5212980000000  0.4762950000000  0.4645640000000 1.0
C      1  0.4463060000000  0.4462290000000  0.5396870000000 1.0
C      1  0.4489020000000  0.5296230000000  0.4032510000000 1.0
C      1  0.4763970000000  0.5282370000000  0.3993350000000 1.0
C      1  0.5714840000000  0.5211310000000  0.5627510000000 1.0
C      1  0.4766300000000  0.5238130000000  0.6177240000000 1.0
C      1  0.4971440000000  0.5534940000000  0.4909750000000 1.0
C      1  0.5255300000000  0.5611000000000  0.4924820000000 1.0
C      1  0.5383480000000  0.5172370000000  0.5041190000000 1.0
C      1  0.5921330000000  0.5492350000000  0.5058660000000 1.0
C      1  0.5385310000000  0.4259200000000  0.4732140000000 1.0
C      1  0.4098460000000  0.4584620000000  0.5034230000000 1.0
C      1  0.5021240000000  0.4564400000000  0.4147330000000 1.0
C      1  0.5253840000000  0.5581640000000  0.4414480000000 1.0
C      1  0.4186380000000  0.5105960000000  0.5632560000000 1.0
C      1  0.5264820000000  0.4436120000000  0.4026610000000 1.0
C      1  0.4853250000000  0.3974530000000  0.5377970000000 1.0
C      1  0.4866350000000  0.5384980000000  0.5176150000000 1.0
C      1  0.4174220000000  0.4870430000000  0.5479690000000 1.0
C      1  0.5353130000000  0.4572490000000  0.5791190000000 1.0
C      1  0.5207720000000  0.4290210000000  0.5187260000000 1.0
C      1  0.4395630000000  0.5162500000000  0.4315970000000 1.0
C      1  0.5121330000000  0.4812710000000  0.4322000000000 1.0
C      1  0.5421000000000  0.5523360000000  0.4697520000000 1.0
C      1  0.4057330000000  0.5330430000000  0.5535470000000 1.0
C      1  0.5217030000000  0.5043360000000  0.4091240000000 1.0
C      1  0.5297450000000  0.5345570000000  0.4205320000000 1.0
C      1  0.4350490000000  0.4544350000000  0.4849100000000 1.0
C      1  0.5537970000000  0.5436460000000  0.5464000000000 1.0
C      1  0.5492150000000  0.4589550000000  0.4085510000000 1.0
C      1  0.5453980000000  0.4244250000000  0.4999830000000 1.0
C      1  0.5089540000000  0.4590000000000  0.5937340000000 1.0
C      1  0.4592340000000  0.5873850000000  0.4763000000000 1.0
C      1  0.4518730000000  0.4684800000000  0.5072840000000 1.0
C      1  0.4361770000000  0.4768830000000  0.4255250000000 1.0
C      1  0.4996720000000  0.5931800000000  0.4835780000000 1.0
C      1  0.4972490000000  0.5148090000000  0.5706730000000 1.0
C      1  0.4161430000000  0.4586910000000  0.5314240000000 1.0
C      1  0.5943980000000  0.5172650000000  0.5426950000000 1.0
C      1  0.4753820000000  0.4597980000000  0.5730740000000 1.0
C      1  0.4959660000000  0.5347760000000  0.4243240000000 1.0
C      1  0.5549820000000  0.5421000000000  0.5185730000000 1.0
C      1  0.4762870000000  0.5880470000000  0.5334560000000 1.0
C      1  0.5268270000000  0.5030430000000  0.5943400000000 1.0
C      1  0.4963820000000  0.4881320000000  0.5917390000000 1.0
C      1  0.4972790000000  0.5000200000000  0.5200750000000 1.0
C      1  0.5421050000000  0.4524590000000  0.4579550000000 1.0
C      1  0.5294820000000  0.4413420000000  0.5496270000000 1.0
C      1  0.4117510000000  0.5128820000000  0.4456790000000 1.0
C      1  0.4551680000000  0.5223980000000  0.6048100000000 1.0
C      1  0.5898710000000  0.4616310000000  0.4503250000000 1.0
C      1  0.4750300000000  0.4569090000000  0.5248890000000 1.0
C      1  0.4645440000000  0.4919430000000  0.5806460000000 1.0
C      1  0.5840420000000  0.4989780000000  0.5008150000000 1.0
C      1  0.4594560000000  0.4086320000000  0.5384830000000 1.0
C      1  0.4503660000000  0.5487630000000  0.5547160000000 1.0
C      1  0.4395080000000  0.5709510000000  0.4861030000000 1.0
C      1  0.4441130000000  0.4207910000000  0.5621420000000 1.0
C      1  0.4512980000000  0.4338790000000  0.4700100000000 1.0
C      1  0.5689920000000  0.4886520000000  0.5673790000000 1.0
C      1  0.4999560000000  0.4504470000000  0.5047610000000 1.0
C      1  0.5725890000000  0.4706770000000  0.5406190000000 1.0
C      1  0.4142940000000  0.5320780000000  0.5066280000000 1.0
C      1  0.4590560000000  0.4121260000000  0.4886440000000 1.0
C      1  0.5006930000000  0.4046200000000  0.5152590000000 1.0
C      1  0.5383800000000  0.5048500000000  0.5358970000000 1.0
C      1  0.5006070000000  0.5094160000000  0.4424580000000 1.0
C      1  0.4882110000000  0.4993500000000  0.4058610000000 1.0
C      1  0.5193720000000  0.5892760000000  0.5277420000000 1.0
C      1  0.5494790000000  0.4802450000000  0.5853300000000 1.0
C      1  0.5640870000000  0.4829810000000  0.4911950000000 1.0
C      1  0.5726060000000  0.4326430000000  0.5031440000000 1.0
C      1  0.5146330000000  0.4966770000000  0.4909960000000 1.0
C      1  0.4446540000000  0.5447020000000  0.4736090000000 1.0
C      1  0.5993840000000  0.4940640000000  0.4464530000000 1.0
C      1  0.4416140000000  0.4858260000000  0.4735860000000 1.0
C      1  0.5633010000000  0.4776190000000  0.4628340000000 1.0
C      1  0.4782550000000  0.5520320000000  0.4421070000000 1.0
C      1  0.4956450000000  0.5973890000000  0.5117790000000 1.0
C      1  0.4644460000000  0.4930940000000  0.4293680000000 1.0
C      1  0.4808250000000  0.5560350000000  0.5412050000000 1.0
C      1  0.6049270000000  0.5400160000000  0.5294940000000 1.0
C      1  0.5397890000000  0.4773850000000  0.5032940000000 1.0
C      1  0.5384850000000  0.5144180000000  0.5680840000000 1.0
C      1  0.5477010000000  0.4178820000000  0.5567320000000 1.0
C      1  0.4100530000000  0.5247000000000  0.4732590000000 1.0
C      1  0.5389500000000  0.4708540000000  0.5355890000000 1.0
C      1  0.4859560000000  0.4709510000000  0.3906680000000 1.0
C      1  0.3989100000000  0.4874690000000  0.4642720000000 1.0
C      1  0.5872900000000  0.5272710000000  0.4858620000000 1.0
C      1  0.4671850000000  0.4471740000000  0.4513240000000 1.0
C      1  0.4745890000000  0.5301700000000  0.4807680000000 1.0
C      1  0.5597050000000  0.5346380000000  0.4340470000000 1.0
C      1  0.5811820000000  0.4428090000000  0.5283960000000 1.0
C      1  0.5000990000000  0.4426620000000  0.5677510000000 1.0
C      1  0.5811990000000  0.4456310000000  0.4789060000000 1.0
C      1  0.5685200000000  0.5684210000000  0.5076260000000 1.0
C      1  0.4857680000000  0.4007160000000  0.4907040000000 1.0
C      1  0.5611770000000  0.5050120000000  0.4506750000000 1.0
C      1  0.5031260000000  0.5229750000000  0.5408710000000 1.0
C      1  0.5897850000000  0.4946680000000  0.5273070000000 1.0
C      1  0.4870090000000  0.5752310000000  0.5757040000000 1.0
C      1  0.5229250000000  0.5427350000000  0.5580060000000 1.0
C      1  0.5051430000000  0.5515880000000  0.5847040000000 1.0
C      1  0.4599000000000  0.5810670000000  0.5627000000000 1.0
C      1  0.4553540000000  0.4759290000000  0.5535720000000 1.0
C      1  0.5549740000000  0.5260070000000  0.4770240000000 1.0
C      1  0.4954870000000  0.4639740000000  0.4783060000000 1.0
C      1  0.5253820000000  0.4206640000000  0.3879850000000 1.0
C      1  0.5030320000000  0.5258930000000  0.6025750000000 1.0
C      1  0.4667980000000  0.4958680000000  0.5316900000000 1.0
C      1  0.4633440000000  0.5188980000000  0.5105470000000 1.0
C      1  0.4229460000000  0.4748470000000  0.4491090000000 1.0
C      1  0.4363390000000  0.4914600000000  0.5213670000000 1.0
C      1  0.5624730000000  0.4524750000000  0.4322900000000 1.0
C      1  0.5196600000000  0.5855680000000  0.4613990000000 1.0
C      1  0.5091190000000  0.5726000000000  0.5502440000000 1.0
C      1  0.5506250000000  0.5792260000000  0.4507680000000 1.0
C      1  0.5479210000000  0.4869860000000  0.4045780000000 1.0
END
