TITL C-2848497-6229-292 0.00400767177707088 125000 -855.5804379918 0 0 157 (C1) n - 1
REM
REM in /home/bkarasulu/work/CARBON/AIRSS/Generating-Clusters/AIREBO/with-SteepDescent/Only-C1/SD-CG-opt/Try1-1.4A-POS3A/HFTN-CG
REM
REM
REM
REM
REM
REM ./C.cell (11c1c37f851c82e70ff6c80c92926a4b)
REM
REM compiler GCC version 9.2.1 20190827 (Red Hat 9.2.1-1)
REM options -cpp -mtune=generic -march=x86-64 -g -O0 -fpre-include=/usr/include/finclude/math-vector-fortran.h
REM seed -909056898 1218231209 422001635 -2129250167 -1000831110 -2032269246 364456854 -1250625995 598491349 1165963978 841746379 52595261 -817610145 -871876583 -599026661 765230889 -78202768 181129428 -801678249 1185715127 1879211423 -1187077057 1447606997 224150599 -1787557722 -1217678925 2144393106 -2113508567 44761029 -1721466786 1171161253 -2051295513 874650741
REM
CELL 1.54180   50.00000   50.00000   50.00000   90.00000   90.00000   90.00000
LATT -1
SFAC C  
C      1  0.5845680000000  0.5537730000000  0.5267560000000 1.0
C      1  0.4308880000000  0.4816720000000  0.5123030000000 1.0
C      1  0.5257440000000  0.4777280000000  0.6096520000000 1.0
C      1  0.4964390000000  0.4764490000000  0.4758220000000 1.0
C      1  0.4844160000000  0.4783850000000  0.4330310000000 1.0
C      1  0.3970660000000  0.5003330000000  0.5226270000000 1.0
C      1  0.4061700000000  0.4944880000000  0.4532940000000 1.0
C      1  0.5432070000000  0.5217180000000  0.4927130000000 1.0
C      1  0.4684580000000  0.4049880000000  0.4668470000000 1.0
C      1  0.4900930000000  0.5059270000000  0.5837340000000 1.0
C      1  0.4060530000000  0.5008090000000  0.4838240000000 1.0
C      1  0.4020970000000  0.5280270000000  0.4494310000000 1.0
C      1  0.5296920000000  0.4335600000000  0.3802040000000 1.0
C      1  0.4458060000000  0.5751850000000  0.5407090000000 1.0
C      1  0.4376720000000  0.5316090000000  0.5128250000000 1.0
C      1  0.4721050000000  0.5606480000000  0.5810240000000 1.0
C      1  0.5345710000000  0.5869790000000  0.5255800000000 1.0
C      1  0.5331400000000  0.5039770000000  0.4410920000000 1.0
C      1  0.5219910000000  0.5561490000000  0.4776120000000 1.0
C      1  0.4888890000000  0.5357320000000  0.5643360000000 1.0
C      1  0.4705420000000  0.5253940000000  0.4116500000000 1.0
C      1  0.5823150000000  0.4343040000000  0.4495260000000 1.0
C      1  0.4094980000000  0.4412880000000  0.5114700000000 1.0
C      1  0.4495380000000  0.4845220000000  0.4840090000000 1.0
C      1  0.4627860000000  0.4380680000000  0.4881590000000 1.0
C      1  0.4450450000000  0.5728930000000  0.4474660000000 1.0
C      1  0.5918500000000  0.4720690000000  0.5244800000000 1.0
C      1  0.4296780000000  0.4666010000000  0.4206090000000 1.0
C      1  0.4173660000000  0.5504510000000  0.4681000000000 1.0
C      1  0.4787640000000  0.5865770000000  0.5738680000000 1.0
C      1  0.4390070000000  0.4146910000000  0.4815220000000 1.0
C      1  0.4001970000000  0.5454620000000  0.5137260000000 1.0
C      1  0.5060430000000  0.5064170000000  0.4702080000000 1.0
C      1  0.5917810000000  0.5442790000000  0.4972050000000 1.0
C      1  0.5353670000000  0.5175460000000  0.5643550000000 1.0
C      1  0.3997340000000  0.5325210000000  0.4888370000000 1.0
C      1  0.5242350000000  0.5722990000000  0.5819400000000 1.0
C      1  0.4008640000000  0.4730060000000  0.5027450000000 1.0
C      1  0.5142170000000  0.5660170000000  0.5081810000000 1.0
C      1  0.5294610000000  0.4861480000000  0.5585090000000 1.0
C      1  0.5538840000000  0.5181630000000  0.5997670000000 1.0
C      1  0.4300780000000  0.5739870000000  0.4888510000000 1.0
C      1  0.4585510000000  0.5885780000000  0.4865150000000 1.0
C      1  0.4233790000000  0.4712150000000  0.4470830000000 1.0
C      1  0.5366370000000  0.4168470000000  0.4642720000000 1.0
C      1  0.5646170000000  0.5530620000000  0.5542900000000 1.0
C      1  0.3862000000000  0.5088050000000  0.4297240000000 1.0
C      1  0.4245780000000  0.4371560000000  0.5358560000000 1.0
C      1  0.5117500000000  0.4318880000000  0.4916810000000 1.0
C      1  0.5267710000000  0.4507460000000  0.5871190000000 1.0
C      1  0.5327090000000  0.4601770000000  0.5378370000000 1.0
C      1  0.5528430000000  0.5847410000000  0.4992170000000 1.0
C      1  0.4893830000000  0.5253750000000  0.5011340000000 1.0
C      1  0.4687550000000  0.5455370000000  0.5137380000000 1.0
C      1  0.5732410000000  0.4627850000000  0.4493660000000 1.0
C      1  0.5753830000000  0.5520880000000  0.4757150000000 1.0
C      1  0.4652630000000  0.5600820000000  0.4716240000000 1.0
C      1  0.5264590000000  0.5446650000000  0.4165820000000 1.0
C      1  0.5069630000000  0.4777850000000  0.5812970000000 1.0
C      1  0.5650840000000  0.4201120000000  0.5229410000000 1.0
C      1  0.5149280000000  0.5876650000000  0.5523870000000 1.0
C      1  0.4946540000000  0.4338430000000  0.5715350000000 1.0
C      1  0.5570310000000  0.4658980000000  0.5884590000000 1.0
C      1  0.4235330000000  0.4557050000000  0.5580060000000 1.0
C      1  0.4786810000000  0.4959740000000  0.4972650000000 1.0
C      1  0.5086940000000  0.4957700000000  0.4215110000000 1.0
C      1  0.5436430000000  0.4614480000000  0.4225590000000 1.0
C      1  0.4766310000000  0.4986220000000  0.5311010000000 1.0
C      1  0.4696050000000  0.5086660000000  0.5571520000000 1.0
C      1  0.4930610000000  0.3986070000000  0.5309850000000 1.0
C      1  0.4145510000000  0.4210660000000  0.4912280000000 1.0
C      1  0.4595340000000  0.4692430000000  0.4122490000000 1.0
C      1  0.5580890000000  0.4827310000000  0.5062980000000 1.0
C      1  0.5560900000000  0.4393360000000  0.5495160000000 1.0
C      1  0.4753350000000  0.4575770000000  0.5074000000000 1.0
C      1  0.5220470000000  0.4491770000000  0.4017700000000 1.0
C      1  0.4996290000000  0.4541150000000  0.4503700000000 1.0
C      1  0.5368700000000  0.4985100000000  0.5276970000000 1.0
C      1  0.5017580000000  0.5275030000000  0.4197570000000 1.0
C      1  0.4903020000000  0.4308340000000  0.4702400000000 1.0
C      1  0.5183050000000  0.4810350000000  0.3986010000000 1.0
C      1  0.5895780000000  0.4899530000000  0.4956430000000 1.0
C      1  0.4518770000000  0.5456510000000  0.4282930000000 1.0
C      1  0.5410190000000  0.3962200000000  0.5198410000000 1.0
C      1  0.5023610000000  0.4560270000000  0.5230800000000 1.0
C      1  0.5351360000000  0.5417140000000  0.5895880000000 1.0
C      1  0.4357990000000  0.5155640000000  0.4860580000000 1.0
C      1  0.4810070000000  0.5740060000000  0.5056980000000 1.0
C      1  0.5757870000000  0.4209590000000  0.4699290000000 1.0
C      1  0.5648960000000  0.4836990000000  0.4238850000000 1.0
C      1  0.5122760000000  0.6037750000000  0.4963030000000 1.0
C      1  0.4641570000000  0.5001130000000  0.4026410000000 1.0
C      1  0.4701640000000  0.4141940000000  0.5112310000000 1.0
C      1  0.5331160000000  0.4485100000000  0.4521880000000 1.0
C      1  0.4873900000000  0.5397240000000  0.4452680000000 1.0
C      1  0.5449100000000  0.4795290000000  0.4580120000000 1.0
C      1  0.5250990000000  0.4015850000000  0.4925800000000 1.0
C      1  0.5336290000000  0.5593080000000  0.5539790000000 1.0
C      1  0.4646900000000  0.4932170000000  0.5963730000000 1.0
C      1  0.5053760000000  0.4882220000000  0.5269870000000 1.0
C      1  0.4466240000000  0.4721020000000  0.5768260000000 1.0
C      1  0.4914150000000  0.3969550000000  0.4910370000000 1.0
C      1  0.4939290000000  0.4294490000000  0.5394690000000 1.0
C      1  0.5872360000000  0.4777470000000  0.5516230000000 1.0
C      1  0.5001760000000  0.4378990000000  0.4204840000000 1.0
C      1  0.5234940000000  0.5309320000000  0.4594390000000 1.0
C      1  0.4278540000000  0.5630820000000  0.5183050000000 1.0
C      1  0.5323170000000  0.4910200000000  0.4857030000000 1.0
C      1  0.5174630000000  0.4629590000000  0.4942470000000 1.0
C      1  0.5672590000000  0.5264120000000  0.5713450000000 1.0
C      1  0.5624570000000  0.5256420000000  0.4648570000000 1.0
C      1  0.4425800000000  0.4557430000000  0.4672800000000 1.0
C      1  0.4960220000000  0.5967690000000  0.5255950000000 1.0
C      1  0.4650140000000  0.5968570000000  0.4559370000000 1.0
C      1  0.5854040000000  0.5227420000000  0.5361500000000 1.0
C      1  0.5526960000000  0.4913470000000  0.6059910000000 1.0
C      1  0.4707310000000  0.4415590000000  0.4257330000000 1.0
C      1  0.4780080000000  0.4607500000000  0.5760570000000 1.0
C      1  0.5710650000000  0.4513910000000  0.5106060000000 1.0
C      1  0.4215450000000  0.5146080000000  0.5327930000000 1.0
C      1  0.4584570000000  0.4742540000000  0.5253230000000 1.0
C      1  0.5258030000000  0.4036200000000  0.4384570000000 1.0
C      1  0.6029940000000  0.5191030000000  0.4966610000000 1.0
C      1  0.4884640000000  0.5895980000000  0.4411210000000 1.0
C      1  0.4407910000000  0.5041890000000  0.5662720000000 1.0
C      1  0.4255230000000  0.4841530000000  0.5454010000000 1.0
C      1  0.5218870000000  0.4010080000000  0.5417290000000 1.0
C      1  0.5630250000000  0.5832010000000  0.5417820000000 1.0
C      1  0.4643530000000  0.5476980000000  0.5440630000000 1.0
C      1  0.5163580000000  0.5913950000000  0.4436480000000 1.0
C      1  0.4688370000000  0.4508740000000  0.5462730000000 1.0
C      1  0.4512610000000  0.4283080000000  0.5321990000000 1.0
C      1  0.5572730000000  0.5250660000000  0.5220280000000 1.0
C      1  0.4428500000000  0.5527450000000  0.5697300000000 1.0
C      1  0.4649930000000  0.4891180000000  0.4540700000000 1.0
C      1  0.5723310000000  0.4589840000000  0.5664330000000 1.0
C      1  0.4466030000000  0.5351370000000  0.4604410000000 1.0
C      1  0.4794660000000  0.5655340000000  0.4288170000000 1.0
C      1  0.5267770000000  0.4275740000000  0.5621400000000 1.0
C      1  0.5316780000000  0.5871340000000  0.4737910000000 1.0
C      1  0.5163010000000  0.5356280000000  0.5458550000000 1.0
C      1  0.5300770000000  0.5756450000000  0.4236190000000 1.0
C      1  0.5188040000000  0.5344930000000  0.5126740000000 1.0
C      1  0.4568160000000  0.4318620000000  0.4490970000000 1.0
C      1  0.5552930000000  0.5639540000000  0.4353630000000 1.0
C      1  0.5526240000000  0.4349670000000  0.4879820000000 1.0
C      1  0.5524510000000  0.5306960000000  0.4327490000000 1.0
C      1  0.4288070000000  0.5280540000000  0.5763590000000 1.0
C      1  0.5553340000000  0.5567940000000  0.5099170000000 1.0
C      1  0.5353170000000  0.4350030000000  0.5159920000000 1.0
C      1  0.4923470000000  0.5475700000000  0.4780060000000 1.0
C      1  0.5918160000000  0.4837460000000  0.4663880000000 1.0
C      1  0.5879520000000  0.5047200000000  0.5587160000000 1.0
C      1  0.4746030000000  0.5159130000000  0.4621010000000 1.0
C      1  0.4711340000000  0.5933900000000  0.5477270000000 1.0
C      1  0.5760660000000  0.5022490000000  0.4476000000000 1.0
C      1  0.5601290000000  0.5728830000000  0.4617500000000 1.0
END
