TITL C-2847958-8115-585 0.401096484676101 125000 -284.462262724951 0 0 48 (C1) n - 1
REM
REM in /home/bkarasulu/work/CARBON/AIRSS/Generating-Clusters/AIREBO/with-SteepDescent/Only-C1/SD-CG-opt/Try1-1.4A-POS3A/HFTN-CG
REM
REM
REM
REM
REM
REM ./C.cell (11c1c37f851c82e70ff6c80c92926a4b)
REM
REM compiler GCC version 9.2.1 20190827 (Red Hat 9.2.1-1)
REM options -cpp -mtune=generic -march=x86-64 -g -O0 -fpre-include=/usr/include/finclude/math-vector-fortran.h
REM seed -1694948617 -104469953 1949246540 -1906887220 -459842449 1732398118 1155598923 -666351637 -1965553032 -8134603 1755828007 1255518197 -931459328 -561714317 -1740435364 45179431 -917447641 145441693 -819354641 -592266487 -2046295839 -48944263 1504128447 383216678 1969826514 8726696 1301361962 1815959826 577313674 5645566 -1650239142 270701175 -955725016
REM
CELL 1.54180   50.00000   50.00000   50.00000   90.00000   90.00000   90.00000
LATT -1
SFAC C  
C      1  0.4846940000000  0.4859260000000  0.5744400000000 1.0
C      1  0.4744850000000  0.4649830000000  0.5588690000000 1.0
C      1  0.5299420000000  0.5435960000000  0.4776020000000 1.0
C      1  0.4922190000000  0.4430980000000  0.5573680000000 1.0
C      1  0.4414850000000  0.4826200000000  0.4723920000000 1.0
C      1  0.4392440000000  0.4197590000000  0.4685590000000 1.0
C      1  0.4381440000000  0.4640620000000  0.4943800000000 1.0
C      1  0.5192670000000  0.4476620000000  0.5573790000000 1.0
C      1  0.5800280000000  0.4843360000000  0.5773520000000 1.0
C      1  0.5092670000000  0.5474590000000  0.5974790000000 1.0
C      1  0.4915830000000  0.5212390000000  0.4197280000000 1.0
C      1  0.4437030000000  0.5338680000000  0.5223450000000 1.0
C      1  0.4465220000000  0.5358440000000  0.4750650000000 1.0
C      1  0.4976210000000  0.5317830000000  0.5789290000000 1.0
C      1  0.4936050000000  0.4950400000000  0.3786660000000 1.0
C      1  0.4674880000000  0.4753510000000  0.4214630000000 1.0
C      1  0.6011990000000  0.4859400000000  0.5587870000000 1.0
C      1  0.4918290000000  0.4833830000000  0.3543260000000 1.0
C      1  0.4442980000000  0.4242830000000  0.4418840000000 1.0
C      1  0.4425520000000  0.5514240000000  0.4991810000000 1.0
C      1  0.5981140000000  0.4920030000000  0.5312290000000 1.0
C      1  0.4412300000000  0.4790440000000  0.5188500000000 1.0
C      1  0.5049280000000  0.5050200000000  0.5751840000000 1.0
C      1  0.5620380000000  0.5711050000000  0.4998530000000 1.0
C      1  0.5059360000000  0.5202020000000  0.3922170000000 1.0
C      1  0.4796680000000  0.4944930000000  0.4070060000000 1.0
C      1  0.5484130000000  0.5469630000000  0.4980640000000 1.0
C      1  0.5772680000000  0.5082400000000  0.5246500000000 1.0
C      1  0.5375420000000  0.4650940000000  0.5687100000000 1.0
C      1  0.4560720000000  0.5401260000000  0.5462430000000 1.0
C      1  0.4780700000000  0.5411140000000  0.5615120000000 1.0
C      1  0.5623030000000  0.5068330000000  0.5764710000000 1.0
C      1  0.4318100000000  0.4377260000000  0.4878010000000 1.0
C      1  0.4920390000000  0.4705340000000  0.3314820000000 1.0
C      1  0.5102800000000  0.5417490000000  0.4596440000000 1.0
C      1  0.4422710000000  0.5086800000000  0.4828170000000 1.0
C      1  0.5316850000000  0.4962190000000  0.5664850000000 1.0
C      1  0.5635770000000  0.4609560000000  0.5795720000000 1.0
C      1  0.4548060000000  0.4478810000000  0.4321120000000 1.0
C      1  0.5518820000000  0.5134160000000  0.5460210000000 1.0
C      1  0.4528840000000  0.4696590000000  0.5421380000000 1.0
C      1  0.6157070000000  0.4825760000000  0.5130950000000 1.0
C      1  0.5766900000000  0.5928370000000  0.5000060000000 1.0
C      1  0.5536830000000  0.5273250000000  0.5163730000000 1.0
C      1  0.4484180000000  0.4751790000000  0.4472380000000 1.0
C      1  0.4886800000000  0.5353990000000  0.4433190000000 1.0
C      1  0.4416100000000  0.5070250000000  0.5121940000000 1.0
C      1  0.4632220000000  0.5409440000000  0.4535200000000 1.0
END
