TITL C-2847954-6904-496 0.00120540813326697 125000 -801.693574192282 0 0 150 (C1) n - 1
REM
REM in /home/bkarasulu/work/CARBON/AIRSS/Generating-Clusters/AIREBO/with-SteepDescent/Only-C1/SD-CG-opt/Try1-1.4A-POS3A/HFTN-CG
REM
REM
REM
REM
REM
REM ./C.cell (11c1c37f851c82e70ff6c80c92926a4b)
REM
REM compiler GCC version 9.2.1 20190827 (Red Hat 9.2.1-1)
REM options -cpp -mtune=generic -march=x86-64 -g -O0 -fpre-include=/usr/include/finclude/math-vector-fortran.h
REM seed -1964070154 -1461372247 -783600685 1120825043 177840167 1016653407 -1097034319 -859584286 -1851736442 -1276388950 -1039716767 993744670 885650815 1115428714 1228221020 -1837815859 341305127 -850280533 -1857407350 1271656961 -437088465 -1804405843 -219896228 1633012120 -2123568140 -939203205 621188123 1887606517 1590854840 1050276841 1249331356 860699417 2034772451
REM
CELL 1.54180   50.00000   50.00000   50.00000   90.00000   90.00000   90.00000
LATT -1
SFAC C  
C      1  0.5527040000000  0.5637460000000  0.5626560000000 1.0
C      1  0.4672190000000  0.5450190000000  0.4467760000000 1.0
C      1  0.5614300000000  0.4324360000000  0.4779000000000 1.0
C      1  0.5326870000000  0.5840940000000  0.5441780000000 1.0
C      1  0.5309720000000  0.5559130000000  0.4998850000000 1.0
C      1  0.5972480000000  0.5014880000000  0.5310650000000 1.0
C      1  0.5340620000000  0.5322150000000  0.5467700000000 1.0
C      1  0.5003750000000  0.6109700000000  0.5170130000000 1.0
C      1  0.4709440000000  0.5040020000000  0.5191010000000 1.0
C      1  0.4742950000000  0.4707200000000  0.5121760000000 1.0
C      1  0.4639970000000  0.3975880000000  0.5244400000000 1.0
C      1  0.4457670000000  0.5263090000000  0.4595230000000 1.0
C      1  0.4586970000000  0.4376980000000  0.4227280000000 1.0
C      1  0.4949610000000  0.5084800000000  0.3976330000000 1.0
C      1  0.4870630000000  0.4957300000000  0.4683940000000 1.0
C      1  0.5618410000000  0.4588760000000  0.5210750000000 1.0
C      1  0.4529570000000  0.5618540000000  0.4999520000000 1.0
C      1  0.4372380000000  0.4263730000000  0.4414440000000 1.0
C      1  0.4617870000000  0.4308850000000  0.4906400000000 1.0
C      1  0.4213240000000  0.5353710000000  0.4814300000000 1.0
C      1  0.5041590000000  0.5303910000000  0.5582120000000 1.0
C      1  0.4105810000000  0.5168610000000  0.4436700000000 1.0
C      1  0.5197870000000  0.4455130000000  0.5607800000000 1.0
C      1  0.4965700000000  0.4918770000000  0.5636070000000 1.0
C      1  0.4897980000000  0.4187440000000  0.4972100000000 1.0
C      1  0.5936190000000  0.4674490000000  0.4463440000000 1.0
C      1  0.4743930000000  0.5461660000000  0.4787280000000 1.0
C      1  0.4508670000000  0.4646990000000  0.5762680000000 1.0
C      1  0.4909000000000  0.4622700000000  0.5542720000000 1.0
C      1  0.4988150000000  0.4987460000000  0.5343990000000 1.0
C      1  0.4968060000000  0.4207590000000  0.5568520000000 1.0
C      1  0.4522980000000  0.5784100000000  0.4710990000000 1.0
C      1  0.4134740000000  0.4564810000000  0.5320050000000 1.0
C      1  0.5976760000000  0.5365730000000  0.4844170000000 1.0
C      1  0.4997820000000  0.5300440000000  0.5264740000000 1.0
C      1  0.5167360000000  0.4993260000000  0.5867340000000 1.0
C      1  0.5016540000000  0.4567660000000  0.5247130000000 1.0
C      1  0.5554140000000  0.5230160000000  0.5696690000000 1.0
C      1  0.5936980000000  0.4645810000000  0.4982090000000 1.0
C      1  0.5101930000000  0.5308540000000  0.5976620000000 1.0
C      1  0.5893320000000  0.4987480000000  0.4545560000000 1.0
C      1  0.5027690000000  0.4260220000000  0.4470780000000 1.0
C      1  0.4700690000000  0.5380560000000  0.5172020000000 1.0
C      1  0.4198350000000  0.5541350000000  0.5323170000000 1.0
C      1  0.5744500000000  0.4844060000000  0.4811700000000 1.0
C      1  0.5147560000000  0.4501730000000  0.5940880000000 1.0
C      1  0.4452490000000  0.4141750000000  0.5229450000000 1.0
C      1  0.5768840000000  0.5016640000000  0.5583080000000 1.0
C      1  0.5347350000000  0.4990460000000  0.4628930000000 1.0
C      1  0.4063960000000  0.5317870000000  0.5117730000000 1.0
C      1  0.5213560000000  0.5268550000000  0.5052810000000 1.0
C      1  0.4977020000000  0.5073310000000  0.6188300000000 1.0
C      1  0.4710840000000  0.5542870000000  0.5554920000000 1.0
C      1  0.4443570000000  0.4555080000000  0.4749500000000 1.0
C      1  0.5410560000000  0.4333290000000  0.5125580000000 1.0
C      1  0.5263120000000  0.5367540000000  0.4547730000000 1.0
C      1  0.4020950000000  0.5201670000000  0.5629290000000 1.0
C      1  0.4492480000000  0.5514660000000  0.5848930000000 1.0
C      1  0.4501040000000  0.4474820000000  0.5180850000000 1.0
C      1  0.5373570000000  0.5469090000000  0.5849670000000 1.0
C      1  0.5880920000000  0.5469980000000  0.4577670000000 1.0
C      1  0.4180590000000  0.4987820000000  0.4658000000000 1.0
C      1  0.4923860000000  0.5659400000000  0.4967610000000 1.0
C      1  0.5468390000000  0.5155670000000  0.4215680000000 1.0
C      1  0.4083670000000  0.4857600000000  0.5314610000000 1.0
C      1  0.6090210000000  0.5066250000000  0.4812150000000 1.0
C      1  0.5444230000000  0.4296630000000  0.5452300000000 1.0
C      1  0.5037700000000  0.4766020000000  0.4457770000000 1.0
C      1  0.4323360000000  0.5747050000000  0.5181140000000 1.0
C      1  0.5722880000000  0.4229500000000  0.5349000000000 1.0
C      1  0.5482430000000  0.4636550000000  0.4751210000000 1.0
C      1  0.5190310000000  0.4818940000000  0.5210700000000 1.0
C      1  0.5718410000000  0.5508720000000  0.5463680000000 1.0
C      1  0.5455010000000  0.4558160000000  0.4421360000000 1.0
C      1  0.5134300000000  0.4407560000000  0.5006620000000 1.0
C      1  0.5800370000000  0.4357470000000  0.5043360000000 1.0
C      1  0.6064060000000  0.4905640000000  0.5043140000000 1.0
C      1  0.5381170000000  0.4114220000000  0.4793840000000 1.0
C      1  0.4618460000000  0.4791330000000  0.5487510000000 1.0
C      1  0.5346230000000  0.5570200000000  0.5279290000000 1.0
C      1  0.5479760000000  0.5808550000000  0.4627630000000 1.0
C      1  0.4971600000000  0.5322000000000  0.4423990000000 1.0
C      1  0.5190800000000  0.4432320000000  0.4299320000000 1.0
C      1  0.4342830000000  0.5130410000000  0.5549030000000 1.0
C      1  0.4403600000000  0.4944990000000  0.5270530000000 1.0
C      1  0.5725460000000  0.5158730000000  0.4939700000000 1.0
C      1  0.6103420000000  0.5545920000000  0.5012040000000 1.0
C      1  0.4266870000000  0.4661510000000  0.5019810000000 1.0
C      1  0.4389160000000  0.5434060000000  0.5536880000000 1.0
C      1  0.5821860000000  0.4708320000000  0.5445750000000 1.0
C      1  0.5303210000000  0.4756680000000  0.3993120000000 1.0
C      1  0.5106060000000  0.5181600000000  0.4773330000000 1.0
C      1  0.4279820000000  0.4558600000000  0.4384810000000 1.0
C      1  0.5261250000000  0.5055340000000  0.3978310000000 1.0
C      1  0.4382670000000  0.4968940000000  0.4931820000000 1.0
C      1  0.5184100000000  0.5793970000000  0.4794900000000 1.0
C      1  0.4803880000000  0.5349590000000  0.4019380000000 1.0
C      1  0.5740840000000  0.5255830000000  0.5265220000000 1.0
C      1  0.5388340000000  0.4008680000000  0.5072650000000 1.0
C      1  0.4042950000000  0.5448330000000  0.4535630000000 1.0
C      1  0.5275050000000  0.4857490000000  0.4926440000000 1.0
C      1  0.5334170000000  0.4855970000000  0.4316940000000 1.0
C      1  0.4647170000000  0.5136060000000  0.4813060000000 1.0
C      1  0.4892710000000  0.5744520000000  0.6003230000000 1.0
C      1  0.4142340000000  0.4670000000000  0.4641520000000 1.0
C      1  0.5468460000000  0.4957620000000  0.5838880000000 1.0
C      1  0.4639810000000  0.4725380000000  0.4585420000000 1.0
C      1  0.5014710000000  0.5910720000000  0.5359100000000 1.0
C      1  0.3969430000000  0.5110990000000  0.5359700000000 1.0
C      1  0.5394030000000  0.5469930000000  0.4115290000000 1.0
C      1  0.4294840000000  0.5629020000000  0.4631120000000 1.0
C      1  0.4814250000000  0.4515830000000  0.4402110000000 1.0
C      1  0.5716280000000  0.4735960000000  0.5767770000000 1.0
C      1  0.5752400000000  0.4474560000000  0.4506210000000 1.0
C      1  0.4474830000000  0.5338470000000  0.4064640000000 1.0
C      1  0.4943270000000  0.5053790000000  0.4303010000000 1.0
C      1  0.4827040000000  0.4798040000000  0.4119490000000 1.0
C      1  0.4526720000000  0.4710850000000  0.4204660000000 1.0
C      1  0.4833190000000  0.5486040000000  0.5867160000000 1.0
C      1  0.4839610000000  0.5664570000000  0.5297330000000 1.0
C      1  0.4834000000000  0.4293740000000  0.5806590000000 1.0
C      1  0.4438840000000  0.4163870000000  0.4669900000000 1.0
C      1  0.5030130000000  0.5774790000000  0.4492220000000 1.0
C      1  0.4325200000000  0.5178290000000  0.4228140000000 1.0
C      1  0.4371460000000  0.4487970000000  0.5495050000000 1.0
C      1  0.4955190000000  0.4745970000000  0.4897150000000 1.0
C      1  0.5404630000000  0.4718450000000  0.5629970000000 1.0
C      1  0.4604210000000  0.5615350000000  0.4183300000000 1.0
C      1  0.5078790000000  0.4594830000000  0.4098810000000 1.0
C      1  0.5496430000000  0.5260650000000  0.4771680000000 1.0
C      1  0.5449170000000  0.4808680000000  0.5351660000000 1.0
C      1  0.5108080000000  0.4146140000000  0.4707790000000 1.0
C      1  0.4794690000000  0.5162780000000  0.5768790000000 1.0
C      1  0.4497840000000  0.4976770000000  0.4415530000000 1.0
C      1  0.4747460000000  0.5915050000000  0.4619470000000 1.0
C      1  0.3911870000000  0.5050370000000  0.4971590000000 1.0
C      1  0.4962620000000  0.4773520000000  0.6028020000000 1.0
C      1  0.5454320000000  0.5115570000000  0.5236300000000 1.0
C      1  0.4539770000000  0.4987290000000  0.5744250000000 1.0
C      1  0.4941630000000  0.4064850000000  0.5287220000000 1.0
C      1  0.5193410000000  0.3885940000000  0.5214640000000 1.0
C      1  0.5155240000000  0.4558150000000  0.4701830000000 1.0
C      1  0.5399250000000  0.6056530000000  0.5196490000000 1.0
C      1  0.5214730000000  0.6067810000000  0.4966430000000 1.0
C      1  0.3964680000000  0.4776290000000  0.4911320000000 1.0
C      1  0.5724500000000  0.5230530000000  0.4388820000000 1.0
C      1  0.4941790000000  0.5593940000000  0.4217940000000 1.0
C      1  0.5313610000000  0.5693770000000  0.4321890000000 1.0
C      1  0.5560190000000  0.5515860000000  0.4474330000000 1.0
C      1  0.4751560000000  0.4535420000000  0.5907400000000 1.0
END
