TITL C-2848502-4955-628 -0.00175886871948173 125000 -1002.58327099461 0 0 183 (C1) n - 1
REM
REM in /home/bkarasulu/work/CARBON/AIRSS/Generating-Clusters/AIREBO/with-SteepDescent/Only-C1/SD-CG-opt/Try1-1.4A-POS3A/HFTN-CG
REM
REM
REM
REM
REM
REM ./C.cell (11c1c37f851c82e70ff6c80c92926a4b)
REM
REM compiler GCC version 9.2.1 20190827 (Red Hat 9.2.1-1)
REM options -cpp -mtune=generic -march=x86-64 -g -O0 -fpre-include=/usr/include/finclude/math-vector-fortran.h
REM seed -332829774 418864380 1305314338 1445349369 333283623 833822390 2061204781 -1623225841 -726405216 376828357 1983036842 -829209538 -1255916830 1479492487 -434285039 -16832136 1568895741 1742164337 1342050771 -1587848950 -1874926852 -285782 -1682711979 -1825673994 -1495791088 700535472 -2136057897 1979470946 2111676584 1234048046 803955684 191221457 -1964219365
REM
CELL 1.54180   50.00000   50.00000   50.00000   90.00000   90.00000   90.00000
LATT -1
SFAC C  
C      1  0.5194170000000  0.4906460000000  0.5489200000000 1.0
C      1  0.5651630000000  0.4936550000000  0.4285320000000 1.0
C      1  0.4533060000000  0.5872770000000  0.5175080000000 1.0
C      1  0.5154430000000  0.5027120000000  0.4430620000000 1.0
C      1  0.5787410000000  0.4448090000000  0.4975750000000 1.0
C      1  0.4866360000000  0.4233430000000  0.5506700000000 1.0
C      1  0.4937280000000  0.4433070000000  0.5965680000000 1.0
C      1  0.5001670000000  0.4225790000000  0.4192490000000 1.0
C      1  0.5459760000000  0.4526860000000  0.5015160000000 1.0
C      1  0.5602270000000  0.4222390000000  0.5391240000000 1.0
C      1  0.5520420000000  0.4848920000000  0.5566290000000 1.0
C      1  0.5817200000000  0.4201530000000  0.5199750000000 1.0
C      1  0.5129710000000  0.5209270000000  0.5238250000000 1.0
C      1  0.4792950000000  0.5385420000000  0.5361510000000 1.0
C      1  0.3851210000000  0.4916900000000  0.5065370000000 1.0
C      1  0.5756830000000  0.5256110000000  0.5083100000000 1.0
C      1  0.5801460000000  0.4876440000000  0.5751550000000 1.0
C      1  0.5702390000000  0.5264030000000  0.6020060000000 1.0
C      1  0.5972070000000  0.4956700000000  0.5319600000000 1.0
C      1  0.5718730000000  0.5081440000000  0.4808360000000 1.0
C      1  0.4546360000000  0.4200550000000  0.5487200000000 1.0
C      1  0.4542720000000  0.4413630000000  0.4231310000000 1.0
C      1  0.4660970000000  0.4488720000000  0.5889910000000 1.0
C      1  0.4063750000000  0.4434430000000  0.4812750000000 1.0
C      1  0.5123100000000  0.5354680000000  0.5775870000000 1.0
C      1  0.5385380000000  0.4831750000000  0.4586270000000 1.0
C      1  0.4944400000000  0.4757680000000  0.5665630000000 1.0
C      1  0.4298090000000  0.4355570000000  0.4362530000000 1.0
C      1  0.4748760000000  0.4545940000000  0.5492220000000 1.0
C      1  0.5343630000000  0.5753520000000  0.5124100000000 1.0
C      1  0.5644710000000  0.5049470000000  0.5321070000000 1.0
C      1  0.5890310000000  0.5543230000000  0.4839480000000 1.0
C      1  0.4264110000000  0.4915840000000  0.5024500000000 1.0
C      1  0.5197800000000  0.4037380000000  0.5124540000000 1.0
C      1  0.4693940000000  0.4135260000000  0.4527850000000 1.0
C      1  0.4786410000000  0.4801020000000  0.5939780000000 1.0
C      1  0.5550060000000  0.5357300000000  0.4086390000000 1.0
C      1  0.3791740000000  0.4700540000000  0.5321350000000 1.0
C      1  0.5159750000000  0.5072430000000  0.4036340000000 1.0
C      1  0.4974850000000  0.5506660000000  0.4500630000000 1.0
C      1  0.5047110000000  0.5292260000000  0.4246630000000 1.0
C      1  0.3945150000000  0.5377080000000  0.4718470000000 1.0
C      1  0.4915240000000  0.5737570000000  0.4186790000000 1.0
C      1  0.4350450000000  0.4357870000000  0.4688090000000 1.0
C      1  0.4567700000000  0.5466270000000  0.4825170000000 1.0
C      1  0.4554550000000  0.5608440000000  0.4289130000000 1.0
C      1  0.4553610000000  0.4789730000000  0.4939060000000 1.0
C      1  0.4102460000000  0.4800300000000  0.4370390000000 1.0
C      1  0.6047090000000  0.4740650000000  0.4544100000000 1.0
C      1  0.5372870000000  0.5839880000000  0.5451630000000 1.0
C      1  0.5327850000000  0.5874290000000  0.4847600000000 1.0
C      1  0.5333220000000  0.5643210000000  0.4597050000000 1.0
C      1  0.4009590000000  0.4535290000000  0.5405370000000 1.0
C      1  0.4064520000000  0.4667660000000  0.5032520000000 1.0
C      1  0.4638970000000  0.4896530000000  0.4064530000000 1.0
C      1  0.5436130000000  0.5783970000000  0.3877590000000 1.0
C      1  0.4504750000000  0.5793790000000  0.5707530000000 1.0
C      1  0.3938760000000  0.5532800000000  0.5322150000000 1.0
C      1  0.5983830000000  0.5255030000000  0.4684780000000 1.0
C      1  0.4638490000000  0.5211980000000  0.3955520000000 1.0
C      1  0.4865790000000  0.5627820000000  0.4799170000000 1.0
C      1  0.5517670000000  0.5511170000000  0.5276060000000 1.0
C      1  0.4445650000000  0.5173860000000  0.4948570000000 1.0
C      1  0.4342620000000  0.4752730000000  0.5377820000000 1.0
C      1  0.5231780000000  0.4390280000000  0.4175160000000 1.0
C      1  0.4399570000000  0.5699610000000  0.5411950000000 1.0
C      1  0.5112480000000  0.4173170000000  0.5725130000000 1.0
C      1  0.4264830000000  0.5430670000000  0.4276460000000 1.0
C      1  0.5350970000000  0.4674410000000  0.4286750000000 1.0
C      1  0.4480600000000  0.4804240000000  0.6048600000000 1.0
C      1  0.5328850000000  0.4717100000000  0.5240860000000 1.0
C      1  0.5022130000000  0.5197410000000  0.5528400000000 1.0
C      1  0.4787770000000  0.4974560000000  0.4905160000000 1.0
C      1  0.4219800000000  0.5777800000000  0.4667020000000 1.0
C      1  0.4760860000000  0.5212610000000  0.4706680000000 1.0
C      1  0.3852550000000  0.5661280000000  0.5119140000000 1.0
C      1  0.5712090000000  0.5293880000000  0.5547810000000 1.0
C      1  0.4512480000000  0.4332810000000  0.5106330000000 1.0
C      1  0.4711010000000  0.6131730000000  0.5043580000000 1.0
C      1  0.4088770000000  0.5039900000000  0.4564200000000 1.0
C      1  0.5697370000000  0.4845850000000  0.5052790000000 1.0
C      1  0.4793690000000  0.5902940000000  0.4652030000000 1.0
C      1  0.5817270000000  0.5155940000000  0.5797860000000 1.0
C      1  0.5516860000000  0.5580940000000  0.5862050000000 1.0
C      1  0.5982160000000  0.5427530000000  0.4395580000000 1.0
C      1  0.5938620000000  0.4997690000000  0.4466910000000 1.0
C      1  0.4036950000000  0.5623570000000  0.4875370000000 1.0
C      1  0.5204060000000  0.5655760000000  0.4298140000000 1.0
C      1  0.4571450000000  0.5295580000000  0.5804810000000 1.0
C      1  0.5168170000000  0.4509200000000  0.5727840000000 1.0
C      1  0.5743440000000  0.4214810000000  0.4737870000000 1.0
C      1  0.5233580000000  0.5009160000000  0.5981140000000 1.0
C      1  0.5380340000000  0.5368320000000  0.5553310000000 1.0
C      1  0.5444610000000  0.4198770000000  0.4597030000000 1.0
C      1  0.5423380000000  0.3877780000000  0.4991280000000 1.0
C      1  0.4244680000000  0.4613430000000  0.5638800000000 1.0
C      1  0.5995820000000  0.4686150000000  0.4848840000000 1.0
C      1  0.5445440000000  0.5084190000000  0.4057470000000 1.0
C      1  0.4115880000000  0.4350820000000  0.5144500000000 1.0
C      1  0.4873880000000  0.4908910000000  0.4467140000000 1.0
C      1  0.5488120000000  0.4312560000000  0.4330060000000 1.0
C      1  0.4613150000000  0.4721500000000  0.4355030000000 1.0
C      1  0.3879060000000  0.5097490000000  0.4826570000000 1.0
C      1  0.4598460000000  0.5107690000000  0.4451660000000 1.0
C      1  0.5126610000000  0.4028810000000  0.5423250000000 1.0
C      1  0.5355910000000  0.5023260000000  0.5143350000000 1.0
C      1  0.5390450000000  0.5285800000000  0.5974240000000 1.0
C      1  0.5323180000000  0.4572810000000  0.4763960000000 1.0
C      1  0.4513310000000  0.5963780000000  0.5894820000000 1.0
C      1  0.4433820000000  0.5628120000000  0.4579640000000 1.0
C      1  0.5737230000000  0.5346460000000  0.4298580000000 1.0
C      1  0.4249850000000  0.5429830000000  0.5282110000000 1.0
C      1  0.5676980000000  0.4597260000000  0.4278190000000 1.0
C      1  0.5131480000000  0.4505610000000  0.5389720000000 1.0
C      1  0.4730950000000  0.5876780000000  0.4386190000000 1.0
C      1  0.5099250000000  0.4419080000000  0.4690720000000 1.0
C      1  0.5689450000000  0.4755770000000  0.4718440000000 1.0
C      1  0.5041010000000  0.5820560000000  0.5366560000000 1.0
C      1  0.5297920000000  0.5025190000000  0.4844250000000 1.0
C      1  0.5068680000000  0.5221380000000  0.4764390000000 1.0
C      1  0.4346980000000  0.5631100000000  0.5024660000000 1.0
C      1  0.4953720000000  0.4098870000000  0.4442220000000 1.0
C      1  0.5457360000000  0.5953190000000  0.3678610000000 1.0
C      1  0.5469050000000  0.4351490000000  0.5743270000000 1.0
C      1  0.5332410000000  0.4784270000000  0.5842240000000 1.0
C      1  0.5866270000000  0.5571260000000  0.5452300000000 1.0
C      1  0.4634330000000  0.5148520000000  0.5230820000000 1.0
C      1  0.4065730000000  0.5348720000000  0.4443690000000 1.0
C      1  0.5137440000000  0.4103730000000  0.4709550000000 1.0
C      1  0.5408300000000  0.4051090000000  0.5610220000000 1.0
C      1  0.5496120000000  0.5428550000000  0.4949300000000 1.0
C      1  0.4084540000000  0.4968100000000  0.5302200000000 1.0
C      1  0.4885080000000  0.6102840000000  0.4826990000000 1.0
C      1  0.4857310000000  0.4578710000000  0.4546840000000 1.0
C      1  0.4926350000000  0.4622500000000  0.5144780000000 1.0
C      1  0.4471260000000  0.5225540000000  0.4215380000000 1.0
C      1  0.4434380000000  0.5048860000000  0.5435600000000 1.0
C      1  0.4436790000000  0.4041940000000  0.4730860000000 1.0
C      1  0.5954170000000  0.4274460000000  0.4511760000000 1.0
C      1  0.5239570000000  0.6123170000000  0.5535650000000 1.0
C      1  0.4296550000000  0.4870560000000  0.5856170000000 1.0
C      1  0.4070050000000  0.4543560000000  0.4484950000000 1.0
C      1  0.4312130000000  0.5150590000000  0.5796340000000 1.0
C      1  0.4965930000000  0.4948230000000  0.5140700000000 1.0
C      1  0.5570850000000  0.4535040000000  0.5500570000000 1.0
C      1  0.5135400000000  0.5488970000000  0.5172200000000 1.0
C      1  0.4157180000000  0.5221500000000  0.5517100000000 1.0
C      1  0.4845260000000  0.5312400000000  0.5970050000000 1.0
C      1  0.4330990000000  0.4813680000000  0.4188920000000 1.0
C      1  0.6088110000000  0.4929370000000  0.5063890000000 1.0
C      1  0.4785540000000  0.6023330000000  0.5343370000000 1.0
C      1  0.5171130000000  0.6100290000000  0.4827110000000 1.0
C      1  0.4605200000000  0.5499990000000  0.5578790000000 1.0
C      1  0.4997040000000  0.6187190000000  0.5518950000000 1.0
C      1  0.5583570000000  0.5172770000000  0.4520300000000 1.0
C      1  0.5597750000000  0.5695720000000  0.5620010000000 1.0
C      1  0.5792480000000  0.5647640000000  0.5129290000000 1.0
C      1  0.4787520000000  0.5446010000000  0.4112720000000 1.0
C      1  0.4959270000000  0.5030920000000  0.6030060000000 1.0
C      1  0.4829880000000  0.5489540000000  0.6187900000000 1.0
C      1  0.4690430000000  0.4232290000000  0.4853800000000 1.0
C      1  0.5177030000000  0.5505140000000  0.4860190000000 1.0
C      1  0.4780630000000  0.4891360000000  0.5399310000000 1.0
C      1  0.4842350000000  0.4510920000000  0.4862190000000 1.0
C      1  0.4383480000000  0.5010240000000  0.4656970000000 1.0
C      1  0.4590910000000  0.4604110000000  0.5198630000000 1.0
C      1  0.5616320000000  0.3940470000000  0.4848580000000 1.0
C      1  0.4929160000000  0.4036970000000  0.4973420000000 1.0
C      1  0.6134340000000  0.5189740000000  0.4965190000000 1.0
C      1  0.5945610000000  0.4523830000000  0.4396160000000 1.0
C      1  0.4751080000000  0.4303990000000  0.4074560000000 1.0
C      1  0.5957060000000  0.4749950000000  0.5536270000000 1.0
C      1  0.5313960000000  0.5305140000000  0.4544240000000 1.0
C      1  0.4674230000000  0.4051570000000  0.5208030000000 1.0
C      1  0.4455480000000  0.4396330000000  0.5716870000000 1.0
C      1  0.6036330000000  0.5418270000000  0.5188870000000 1.0
C      1  0.4857500000000  0.5639880000000  0.5144330000000 1.0
C      1  0.5330510000000  0.4313540000000  0.5230770000000 1.0
C      1  0.5790690000000  0.4607080000000  0.5276310000000 1.0
C      1  0.4326460000000  0.4104040000000  0.5246500000000 1.0
C      1  0.5394440000000  0.5593940000000  0.4072060000000 1.0
C      1  0.4458200000000  0.4673240000000  0.4653970000000 1.0
C      1  0.4949890000000  0.4920250000000  0.3944210000000 1.0
END
