TITL C-2848506-1665-320 0.000283064900864295 125000 -677.668611207625 0 0 126 (C1) n - 1
REM
REM in /home/bkarasulu/work/CARBON/AIRSS/Generating-Clusters/AIREBO/with-SteepDescent/Only-C1/SD-CG-opt/Try1-1.4A-POS3A/HFTN-CG
REM
REM
REM
REM
REM
REM ./C.cell (11c1c37f851c82e70ff6c80c92926a4b)
REM
REM compiler GCC version 9.2.1 20190827 (Red Hat 9.2.1-1)
REM options -cpp -mtune=generic -march=x86-64 -g -O0 -fpre-include=/usr/include/finclude/math-vector-fortran.h
REM seed 164875676 -1853998551 -857351361 827146007 151219745 211425501 323728902 -1880717456 -1836023188 2102504008 -1322092770 -1843824648 -538144090 -240489304 -1732906821 -2121367368 1465351566 556917813 1877370715 -1784075827 -926409720 436155553 185490375 -1836689361 2079610750 1427360400 1998163254 2059659433 1010437479 843944754 -1158285700 1107184744 -1078345592
REM
CELL 1.54180   50.00000   50.00000   50.00000   90.00000   90.00000   90.00000
LATT -1
SFAC C  
C      1  0.5082140000000  0.4449090000000  0.5331000000000 1.0
C      1  0.4692110000000  0.5571650000000  0.5495910000000 1.0
C      1  0.4689030000000  0.5145620000000  0.5328880000000 1.0
C      1  0.4872780000000  0.6179420000000  0.5365590000000 1.0
C      1  0.4581370000000  0.4168530000000  0.4691390000000 1.0
C      1  0.4434570000000  0.4428640000000  0.5641850000000 1.0
C      1  0.5210390000000  0.4486430000000  0.4781240000000 1.0
C      1  0.5155340000000  0.4997620000000  0.4914910000000 1.0
C      1  0.4861760000000  0.5434530000000  0.4863460000000 1.0
C      1  0.5486020000000  0.5161240000000  0.4765240000000 1.0
C      1  0.4156500000000  0.4640600000000  0.4834600000000 1.0
C      1  0.4784120000000  0.5727950000000  0.5249840000000 1.0
C      1  0.5099920000000  0.5325280000000  0.6045680000000 1.0
C      1  0.5697820000000  0.5625780000000  0.5286980000000 1.0
C      1  0.4112980000000  0.5292750000000  0.5040590000000 1.0
C      1  0.5076480000000  0.5549180000000  0.5884710000000 1.0
C      1  0.4164810000000  0.5013130000000  0.5575500000000 1.0
C      1  0.4397080000000  0.4492250000000  0.4834730000000 1.0
C      1  0.4363590000000  0.5065520000000  0.4159300000000 1.0
C      1  0.4973010000000  0.4327800000000  0.4340320000000 1.0
C      1  0.5407180000000  0.5211410000000  0.4132250000000 1.0
C      1  0.4490540000000  0.4165630000000  0.5220300000000 1.0
C      1  0.4915240000000  0.4856250000000  0.4063830000000 1.0
C      1  0.4610840000000  0.5223650000000  0.4635200000000 1.0
C      1  0.4603280000000  0.4843920000000  0.5461970000000 1.0
C      1  0.5811620000000  0.5272200000000  0.5669000000000 1.0
C      1  0.5092910000000  0.5364290000000  0.5254590000000 1.0
C      1  0.5609090000000  0.5050090000000  0.5288830000000 1.0
C      1  0.4932180000000  0.5956650000000  0.5224720000000 1.0
C      1  0.5515180000000  0.5173870000000  0.5567210000000 1.0
C      1  0.4609080000000  0.4914880000000  0.5935380000000 1.0
C      1  0.5718230000000  0.5489860000000  0.4790880000000 1.0
C      1  0.4092500000000  0.4750670000000  0.5112670000000 1.0
C      1  0.5325930000000  0.4630110000000  0.5215550000000 1.0
C      1  0.4574200000000  0.5147270000000  0.5778890000000 1.0
C      1  0.4984590000000  0.4947020000000  0.5502070000000 1.0
C      1  0.4502190000000  0.5513330000000  0.4651220000000 1.0
C      1  0.5493110000000  0.5778940000000  0.5420610000000 1.0
C      1  0.5099810000000  0.5031810000000  0.5901450000000 1.0
C      1  0.5231500000000  0.5245000000000  0.5677280000000 1.0
C      1  0.4154740000000  0.4796800000000  0.4532280000000 1.0
C      1  0.4256200000000  0.5121410000000  0.4787620000000 1.0
C      1  0.4249210000000  0.5518570000000  0.4825970000000 1.0
C      1  0.5890200000000  0.4765500000000  0.5166810000000 1.0
C      1  0.4335880000000  0.4921800000000  0.5051530000000 1.0
C      1  0.5556150000000  0.5481220000000  0.5692700000000 1.0
C      1  0.5689300000000  0.4635750000000  0.5049170000000 1.0
C      1  0.5209240000000  0.4666270000000  0.4528010000000 1.0
C      1  0.5293430000000  0.5652560000000  0.5637010000000 1.0
C      1  0.5851140000000  0.5222110000000  0.4624120000000 1.0
C      1  0.5108470000000  0.4546310000000  0.6041770000000 1.0
C      1  0.4726340000000  0.5497610000000  0.4321260000000 1.0
C      1  0.4607770000000  0.4431900000000  0.5085740000000 1.0
C      1  0.4136740000000  0.5331890000000  0.4563540000000 1.0
C      1  0.4827190000000  0.5197280000000  0.5613270000000 1.0
C      1  0.5012790000000  0.5476860000000  0.5558490000000 1.0
C      1  0.5044450000000  0.5813290000000  0.4581600000000 1.0
C      1  0.5527140000000  0.4820470000000  0.4130130000000 1.0
C      1  0.5020360000000  0.3839480000000  0.5466040000000 1.0
C      1  0.4670600000000  0.5089160000000  0.4922520000000 1.0
C      1  0.5212580000000  0.4691030000000  0.4041230000000 1.0
C      1  0.5365500000000  0.5490990000000  0.5112480000000 1.0
C      1  0.4242520000000  0.5581880000000  0.5162940000000 1.0
C      1  0.6013850000000  0.5198310000000  0.5502590000000 1.0
C      1  0.5995310000000  0.5238600000000  0.4931600000000 1.0
C      1  0.5624170000000  0.4864260000000  0.4697980000000 1.0
C      1  0.4639790000000  0.4761540000000  0.5008300000000 1.0
C      1  0.5497580000000  0.5862530000000  0.4414370000000 1.0
C      1  0.5618730000000  0.5292560000000  0.5049430000000 1.0
C      1  0.5362580000000  0.4470760000000  0.5940320000000 1.0
C      1  0.5938340000000  0.5074620000000  0.5211170000000 1.0
C      1  0.4316100000000  0.4716580000000  0.5567400000000 1.0
C      1  0.4192500000000  0.5086660000000  0.4380440000000 1.0
C      1  0.5396020000000  0.5806390000000  0.5099270000000 1.0
C      1  0.5562490000000  0.5180450000000  0.4434360000000 1.0
C      1  0.4738160000000  0.4858790000000  0.4455060000000 1.0
C      1  0.4856310000000  0.4772660000000  0.5270030000000 1.0
C      1  0.4438700000000  0.5238280000000  0.5121730000000 1.0
C      1  0.4470610000000  0.4422380000000  0.4551500000000 1.0
C      1  0.4821360000000  0.5625160000000  0.4614720000000 1.0
C      1  0.5655580000000  0.4364780000000  0.4989160000000 1.0
C      1  0.4889980000000  0.3997930000000  0.4987450000000 1.0
C      1  0.4473750000000  0.5685800000000  0.4380100000000 1.0
C      1  0.5206600000000  0.5030690000000  0.4027100000000 1.0
C      1  0.5681350000000  0.4640770000000  0.4450330000000 1.0
C      1  0.5449240000000  0.4275280000000  0.4831090000000 1.0
C      1  0.4418390000000  0.4209190000000  0.5487190000000 1.0
C      1  0.5085460000000  0.5997880000000  0.4772170000000 1.0
C      1  0.5432360000000  0.4817350000000  0.4958960000000 1.0
C      1  0.4943970000000  0.4004350000000  0.5274350000000 1.0
C      1  0.5258140000000  0.4256790000000  0.4339570000000 1.0
C      1  0.5148430000000  0.5312230000000  0.4921300000000 1.0
C      1  0.5895000000000  0.5465140000000  0.5147460000000 1.0
C      1  0.4048900000000  0.4766180000000  0.5384040000000 1.0
C      1  0.5511130000000  0.4278420000000  0.6055630000000 1.0
C      1  0.4616210000000  0.5213260000000  0.4125540000000 1.0
C      1  0.5443420000000  0.4622350000000  0.5727740000000 1.0
C      1  0.5400510000000  0.4545020000000  0.4284230000000 1.0
C      1  0.4720240000000  0.5429090000000  0.5125380000000 1.0
C      1  0.4849850000000  0.4338940000000  0.4645310000000 1.0
C      1  0.4916270000000  0.4768770000000  0.5942830000000 1.0
C      1  0.4610440000000  0.4055360000000  0.4951150000000 1.0
C      1  0.4669180000000  0.4654810000000  0.5738890000000 1.0
C      1  0.4411560000000  0.5420790000000  0.5410130000000 1.0
C      1  0.5342740000000  0.4923580000000  0.4397400000000 1.0
C      1  0.4399810000000  0.4627190000000  0.4368290000000 1.0
C      1  0.4834130000000  0.5181350000000  0.4384660000000 1.0
C      1  0.4940730000000  0.4628720000000  0.4387760000000 1.0
C      1  0.4342590000000  0.5220760000000  0.5635110000000 1.0
C      1  0.4890790000000  0.4934390000000  0.4749370000000 1.0
C      1  0.5228890000000  0.4851280000000  0.5643860000000 1.0
C      1  0.5468270000000  0.4795020000000  0.5435310000000 1.0
C      1  0.5260930000000  0.5456840000000  0.4248210000000 1.0
C      1  0.5864460000000  0.4925690000000  0.4465370000000 1.0
C      1  0.4830040000000  0.4608350000000  0.4771000000000 1.0
C      1  0.4455390000000  0.4921280000000  0.4630860000000 1.0
C      1  0.5069700000000  0.4155380000000  0.4796220000000 1.0
C      1  0.5135730000000  0.5192290000000  0.4421370000000 1.0
C      1  0.5148210000000  0.5960900000000  0.5040870000000 1.0
C      1  0.5059240000000  0.4686030000000  0.5011320000000 1.0
C      1  0.5285150000000  0.5386590000000  0.4635110000000 1.0
C      1  0.4590260000000  0.4815420000000  0.4155790000000 1.0
C      1  0.4873510000000  0.4297480000000  0.5251250000000 1.0
C      1  0.5322020000000  0.4136490000000  0.4586330000000 1.0
C      1  0.5648520000000  0.5751260000000  0.4879570000000 1.0
C      1  0.5291380000000  0.5682020000000  0.4465760000000 1.0
END
