TITL C-2848507-1641-510 -0.00152760515296436 125000 -856.133872198785 0 0 157 (C1) n - 1
REM
REM in /home/bkarasulu/work/CARBON/AIRSS/Generating-Clusters/AIREBO/with-SteepDescent/Only-C1/SD-CG-opt/Try1-1.4A-POS3A/HFTN-CG
REM
REM
REM
REM
REM
REM ./C.cell (11c1c37f851c82e70ff6c80c92926a4b)
REM
REM compiler GCC version 9.2.1 20190827 (Red Hat 9.2.1-1)
REM options -cpp -mtune=generic -march=x86-64 -g -O0 -fpre-include=/usr/include/finclude/math-vector-fortran.h
REM seed -1459346880 -1527192488 -1708318268 -230208522 -485408196 -1668897186 -936756377 431709069 -1807609672 -558026562 1811510892 -833241711 -1098846263 1882273029 1042733209 549951214 1672564741 2109208395 -1767158650 -701154596 -1250294456 -926996623 1875291009 -1519560097 392329279 374529432 632133343 -1016090928 -810275642 603450535 -1597236765 161416861 -2026406380
REM
CELL 1.54180   50.00000   50.00000   50.00000   90.00000   90.00000   90.00000
LATT -1
SFAC C  
C      1  0.4488210000000  0.5283320000000  0.5206390000000 1.0
C      1  0.5382850000000  0.4221080000000  0.5508150000000 1.0
C      1  0.4787100000000  0.5646310000000  0.5749400000000 1.0
C      1  0.5509970000000  0.4174890000000  0.4948140000000 1.0
C      1  0.5245510000000  0.5479580000000  0.4391840000000 1.0
C      1  0.5376390000000  0.6003600000000  0.5137820000000 1.0
C      1  0.4138110000000  0.5636060000000  0.4747080000000 1.0
C      1  0.4009960000000  0.4935550000000  0.5143240000000 1.0
C      1  0.5780660000000  0.4972110000000  0.4777630000000 1.0
C      1  0.4211890000000  0.4770330000000  0.4304730000000 1.0
C      1  0.5104990000000  0.4833750000000  0.5896910000000 1.0
C      1  0.5038110000000  0.5816050000000  0.5366000000000 1.0
C      1  0.5512330000000  0.4503200000000  0.5369840000000 1.0
C      1  0.5651180000000  0.5459390000000  0.4515830000000 1.0
C      1  0.4594460000000  0.5025840000000  0.5868240000000 1.0
C      1  0.4909340000000  0.4030160000000  0.5649600000000 1.0
C      1  0.5106350000000  0.5367520000000  0.4639550000000 1.0
C      1  0.5225590000000  0.5501650000000  0.5524990000000 1.0
C      1  0.5788080000000  0.5541850000000  0.6086320000000 1.0
C      1  0.5374880000000  0.5774540000000  0.5387690000000 1.0
C      1  0.5265860000000  0.4391190000000  0.4334270000000 1.0
C      1  0.5401460000000  0.5263680000000  0.5948590000000 1.0
C      1  0.5237720000000  0.4454590000000  0.4794000000000 1.0
C      1  0.5262990000000  0.5129000000000  0.4758380000000 1.0
C      1  0.4494080000000  0.5128290000000  0.4691660000000 1.0
C      1  0.5093740000000  0.4656190000000  0.5107980000000 1.0
C      1  0.4727280000000  0.4819720000000  0.4511690000000 1.0
C      1  0.4341030000000  0.4976010000000  0.5209610000000 1.0
C      1  0.4652930000000  0.4582280000000  0.4199740000000 1.0
C      1  0.4624100000000  0.4638710000000  0.5542700000000 1.0
C      1  0.4716610000000  0.4510630000000  0.4645110000000 1.0
C      1  0.5560970000000  0.5662060000000  0.5159360000000 1.0
C      1  0.4593200000000  0.4844270000000  0.4823380000000 1.0
C      1  0.5034630000000  0.5699130000000  0.5051010000000 1.0
C      1  0.5149440000000  0.3676310000000  0.4522310000000 1.0
C      1  0.4545670000000  0.5214550000000  0.4055390000000 1.0
C      1  0.5450410000000  0.4861650000000  0.5647690000000 1.0
C      1  0.5422660000000  0.6183090000000  0.4383160000000 1.0
C      1  0.4861830000000  0.5510910000000  0.3903320000000 1.0
C      1  0.4414930000000  0.5260630000000  0.5706740000000 1.0
C      1  0.4964580000000  0.5036970000000  0.4813250000000 1.0
C      1  0.3986500000000  0.5397300000000  0.5376240000000 1.0
C      1  0.5501120000000  0.5028090000000  0.4952790000000 1.0
C      1  0.4880910000000  0.5088710000000  0.5914660000000 1.0
C      1  0.4261920000000  0.4868920000000  0.4896570000000 1.0
C      1  0.5676230000000  0.4941200000000  0.4455430000000 1.0
C      1  0.4866990000000  0.5781870000000  0.4748290000000 1.0
C      1  0.5685100000000  0.5424640000000  0.4815660000000 1.0
C      1  0.4365830000000  0.4822370000000  0.5496000000000 1.0
C      1  0.5742080000000  0.5748150000000  0.4902910000000 1.0
C      1  0.5781200000000  0.5104730000000  0.5277510000000 1.0
C      1  0.5335860000000  0.4123730000000  0.4463690000000 1.0
C      1  0.4382150000000  0.5546780000000  0.5525960000000 1.0
C      1  0.4509430000000  0.5786460000000  0.4948330000000 1.0
C      1  0.5909720000000  0.5265630000000  0.5015880000000 1.0
C      1  0.4935190000000  0.4501640000000  0.5534990000000 1.0
C      1  0.5478400000000  0.5002060000000  0.5276420000000 1.0
C      1  0.5178900000000  0.5646830000000  0.4760360000000 1.0
C      1  0.4516170000000  0.4694580000000  0.3841710000000 1.0
C      1  0.4481770000000  0.4443970000000  0.5782500000000 1.0
C      1  0.4468260000000  0.4400700000000  0.4776810000000 1.0
C      1  0.5387980000000  0.4706950000000  0.4951950000000 1.0
C      1  0.5739060000000  0.4448060000000  0.4491310000000 1.0
C      1  0.5511270000000  0.4323940000000  0.4642470000000 1.0
C      1  0.4244950000000  0.5700600000000  0.5006030000000 1.0
C      1  0.5472770000000  0.5345460000000  0.5072200000000 1.0
C      1  0.4351470000000  0.4170030000000  0.5121400000000 1.0
C      1  0.4015930000000  0.5127050000000  0.5414810000000 1.0
C      1  0.5091090000000  0.5237340000000  0.5691290000000 1.0
C      1  0.4794190000000  0.5386780000000  0.5099960000000 1.0
C      1  0.4757940000000  0.4900850000000  0.4182870000000 1.0
C      1  0.4223950000000  0.4299820000000  0.5613820000000 1.0
C      1  0.4874420000000  0.5746830000000  0.4083750000000 1.0
C      1  0.5979280000000  0.4427080000000  0.4634800000000 1.0
C      1  0.5187020000000  0.5119920000000  0.6061200000000 1.0
C      1  0.5301700000000  0.3946710000000  0.4900730000000 1.0
C      1  0.4217710000000  0.5053730000000  0.5589010000000 1.0
C      1  0.4910220000000  0.5502360000000  0.5397940000000 1.0
C      1  0.4407230000000  0.5280990000000  0.4290020000000 1.0
C      1  0.5027820000000  0.4821760000000  0.5577230000000 1.0
C      1  0.4699610000000  0.3875930000000  0.5471770000000 1.0
C      1  0.5074680000000  0.6051040000000  0.4742530000000 1.0
C      1  0.4102910000000  0.4598710000000  0.4504680000000 1.0
C      1  0.5964930000000  0.4860170000000  0.5637040000000 1.0
C      1  0.4601220000000  0.3965010000000  0.5015590000000 1.0
C      1  0.5133580000000  0.5374380000000  0.5079280000000 1.0
C      1  0.4845610000000  0.4415760000000  0.4279940000000 1.0
C      1  0.4246440000000  0.5519720000000  0.5242780000000 1.0
C      1  0.5103090000000  0.4276620000000  0.4986980000000 1.0
C      1  0.5068970000000  0.3973620000000  0.5137460000000 1.0
C      1  0.5067740000000  0.4739650000000  0.3834130000000 1.0
C      1  0.4868580000000  0.5056940000000  0.5107900000000 1.0
C      1  0.4101860000000  0.5068870000000  0.4668900000000 1.0
C      1  0.4872920000000  0.5204330000000  0.4130900000000 1.0
C      1  0.4777220000000  0.3874580000000  0.5196340000000 1.0
C      1  0.6019300000000  0.4988400000000  0.4535990000000 1.0
C      1  0.4715500000000  0.5343230000000  0.5604760000000 1.0
C      1  0.4762650000000  0.4678890000000  0.5032960000000 1.0
C      1  0.4184870000000  0.4214380000000  0.5379980000000 1.0
C      1  0.4745200000000  0.5496000000000  0.4251380000000 1.0
C      1  0.4580760000000  0.5737380000000  0.5554710000000 1.0
C      1  0.4512340000000  0.4759510000000  0.5905940000000 1.0
C      1  0.4601140000000  0.4169190000000  0.5618680000000 1.0
C      1  0.4799530000000  0.5250150000000  0.4654680000000 1.0
C      1  0.4293100000000  0.5038480000000  0.4431960000000 1.0
C      1  0.5814040000000  0.4618360000000  0.5476960000000 1.0
C      1  0.5278560000000  0.4750560000000  0.5376120000000 1.0
C      1  0.5869230000000  0.4640420000000  0.5161170000000 1.0
C      1  0.4621200000000  0.4373120000000  0.5079270000000 1.0
C      1  0.5754830000000  0.5342610000000  0.5636950000000 1.0
C      1  0.4546060000000  0.5508950000000  0.4494280000000 1.0
C      1  0.5111670000000  0.4127220000000  0.5437800000000 1.0
C      1  0.5908510000000  0.5114160000000  0.5553000000000 1.0
C      1  0.4402160000000  0.4079210000000  0.4796650000000 1.0
C      1  0.5424370000000  0.5861090000000  0.4859060000000 1.0
C      1  0.5661490000000  0.5391420000000  0.5903470000000 1.0
C      1  0.5202810000000  0.5157330000000  0.5299560000000 1.0
C      1  0.5990580000000  0.5569260000000  0.5021060000000 1.0
C      1  0.4334360000000  0.5260380000000  0.4930220000000 1.0
C      1  0.4728490000000  0.4832400000000  0.5312100000000 1.0
C      1  0.5948060000000  0.4458030000000  0.4898810000000 1.0
C      1  0.5585120000000  0.4197860000000  0.5250570000000 1.0
C      1  0.5518210000000  0.5375610000000  0.5408110000000 1.0
C      1  0.4792250000000  0.4776990000000  0.3881520000000 1.0
C      1  0.5135440000000  0.5021150000000  0.4233750000000 1.0
C      1  0.5345340000000  0.5980110000000  0.4554950000000 1.0
C      1  0.5063190000000  0.4868990000000  0.4530420000000 1.0
C      1  0.4334610000000  0.5734400000000  0.4557680000000 1.0
C      1  0.4849820000000  0.6137190000000  0.4928750000000 1.0
C      1  0.5624460000000  0.4492690000000  0.4986950000000 1.0
C      1  0.4549400000000  0.4375800000000  0.5395390000000 1.0
C      1  0.4663440000000  0.5978570000000  0.5089460000000 1.0
C      1  0.5018120000000  0.5795310000000  0.5704830000000 1.0
C      1  0.5406950000000  0.4595860000000  0.4191410000000 1.0
C      1  0.5257320000000  0.3901610000000  0.4621380000000 1.0
C      1  0.4008080000000  0.5374030000000  0.4733400000000 1.0
C      1  0.5400710000000  0.4420370000000  0.5753120000000 1.0
C      1  0.5343360000000  0.5251860000000  0.4252750000000 1.0
C      1  0.5241990000000  0.4788430000000  0.4054020000000 1.0
C      1  0.4038250000000  0.5230830000000  0.5018420000000 1.0
C      1  0.5931700000000  0.4927580000000  0.5060690000000 1.0
C      1  0.5392570000000  0.4886600000000  0.4595070000000 1.0
C      1  0.4665050000000  0.5516020000000  0.4813050000000 1.0
C      1  0.5658620000000  0.4652680000000  0.4316230000000 1.0
C      1  0.5400420000000  0.5160500000000  0.5646990000000 1.0
C      1  0.4914920000000  0.4326170000000  0.5244360000000 1.0
C      1  0.5038880000000  0.4525150000000  0.4537510000000 1.0
C      1  0.5447440000000  0.5676910000000  0.4466130000000 1.0
C      1  0.4898810000000  0.5106420000000  0.5443240000000 1.0
C      1  0.5606860000000  0.5229120000000  0.4349450000000 1.0
C      1  0.5136810000000  0.4519170000000  0.5808470000000 1.0
C      1  0.4597450000000  0.5895920000000  0.4574090000000 1.0
C      1  0.4368620000000  0.4654240000000  0.4105930000000 1.0
C      1  0.4224270000000  0.4580270000000  0.4749930000000 1.0
C      1  0.4717280000000  0.5902070000000  0.5355630000000 1.0
C      1  0.5396400000000  0.6259480000000  0.5190450000000 1.0
C      1  0.5595920000000  0.4627300000000  0.5737980000000 1.0
END
