TITL C-2848506-1665-255 -0.000909476968993656 125000 -736.222742008363 0 0 133 (C1) n - 1
REM
REM in /home/bkarasulu/work/CARBON/AIRSS/Generating-Clusters/AIREBO/with-SteepDescent/Only-C1/SD-CG-opt/Try1-1.4A-POS3A/HFTN-CG
REM
REM
REM
REM
REM
REM ./C.cell (11c1c37f851c82e70ff6c80c92926a4b)
REM
REM compiler GCC version 9.2.1 20190827 (Red Hat 9.2.1-1)
REM options -cpp -mtune=generic -march=x86-64 -g -O0 -fpre-include=/usr/include/finclude/math-vector-fortran.h
REM seed 1586144497 -61489373 1024024891 1500774942 -762317724 -1180485536 1709597850 -1587421398 546795695 -320741478 -50440563 -2000356599 726182651 1985314571 249921987 -1438003998 1374115435 914683744 840162475 -1152805851 833403037 -1075573371 -1361326822 -977578204 -1141621344 503058701 -1210297660 1581885622 -114936102 334300410 -1131443189 -2057612717 78199427
REM
CELL 1.54180   50.00000   50.00000   50.00000   90.00000   90.00000   90.00000
LATT -1
SFAC C  
C      1  0.5230680000000  0.4824290000000  0.4761910000000 1.0
C      1  0.4794320000000  0.5015400000000  0.5880150000000 1.0
C      1  0.5994080000000  0.4744840000000  0.4636540000000 1.0
C      1  0.5611650000000  0.4358070000000  0.5174990000000 1.0
C      1  0.5317800000000  0.5923790000000  0.5209020000000 1.0
C      1  0.4122120000000  0.5148330000000  0.4558100000000 1.0
C      1  0.5627980000000  0.4904960000000  0.5259220000000 1.0
C      1  0.4675570000000  0.5243070000000  0.5048000000000 1.0
C      1  0.5379100000000  0.4699390000000  0.4482540000000 1.0
C      1  0.4920450000000  0.5513320000000  0.4676340000000 1.0
C      1  0.5578690000000  0.4352540000000  0.5465300000000 1.0
C      1  0.5607210000000  0.4670820000000  0.5581490000000 1.0
C      1  0.4677820000000  0.4474730000000  0.5005900000000 1.0
C      1  0.4975470000000  0.4207020000000  0.5617380000000 1.0
C      1  0.4843250000000  0.5467220000000  0.6017250000000 1.0
C      1  0.5582770000000  0.5168530000000  0.4246520000000 1.0
C      1  0.4579020000000  0.4603150000000  0.6043380000000 1.0
C      1  0.4529870000000  0.4214210000000  0.4009950000000 1.0
C      1  0.5382810000000  0.5207180000000  0.5408970000000 1.0
C      1  0.4797250000000  0.5749120000000  0.4378110000000 1.0
C      1  0.4228110000000  0.4659870000000  0.5627130000000 1.0
C      1  0.4300750000000  0.4400530000000  0.4516690000000 1.0
C      1  0.4676930000000  0.4633370000000  0.4290600000000 1.0
C      1  0.5009970000000  0.5671480000000  0.5193500000000 1.0
C      1  0.4671990000000  0.5502050000000  0.4215130000000 1.0
C      1  0.4487650000000  0.4305200000000  0.5182650000000 1.0
C      1  0.5438310000000  0.5618890000000  0.5725140000000 1.0
C      1  0.5005370000000  0.5237100000000  0.5012200000000 1.0
C      1  0.5390360000000  0.5338920000000  0.5890650000000 1.0
C      1  0.4966920000000  0.4529030000000  0.5154960000000 1.0
C      1  0.4766400000000  0.4880400000000  0.4134090000000 1.0
C      1  0.5927620000000  0.5497160000000  0.4882810000000 1.0
C      1  0.4717070000000  0.4792680000000  0.4989470000000 1.0
C      1  0.4117240000000  0.5054170000000  0.5255580000000 1.0
C      1  0.4911850000000  0.5639060000000  0.5664680000000 1.0
C      1  0.4292850000000  0.5638250000000  0.4851660000000 1.0
C      1  0.5307050000000  0.5842330000000  0.4498010000000 1.0
C      1  0.4225570000000  0.4903610000000  0.4484800000000 1.0
C      1  0.4973520000000  0.5112740000000  0.4267580000000 1.0
C      1  0.4331620000000  0.5443510000000  0.5074060000000 1.0
C      1  0.4949870000000  0.5392040000000  0.4176290000000 1.0
C      1  0.5672060000000  0.5699450000000  0.4824920000000 1.0
C      1  0.4148590000000  0.5469710000000  0.4665890000000 1.0
C      1  0.4705670000000  0.4642990000000  0.5547480000000 1.0
C      1  0.4446040000000  0.5726460000000  0.5329450000000 1.0
C      1  0.5721100000000  0.5462880000000  0.5142020000000 1.0
C      1  0.4500570000000  0.4988610000000  0.5164010000000 1.0
C      1  0.4763690000000  0.5791300000000  0.4678880000000 1.0
C      1  0.5166640000000  0.4764180000000  0.5653340000000 1.0
C      1  0.5577500000000  0.5483510000000  0.5445760000000 1.0
C      1  0.5125220000000  0.4049140000000  0.4758920000000 1.0
C      1  0.4989710000000  0.5972180000000  0.5132550000000 1.0
C      1  0.5958850000000  0.5022860000000  0.4701250000000 1.0
C      1  0.5045850000000  0.5097880000000  0.4727630000000 1.0
C      1  0.5365460000000  0.5348240000000  0.4878590000000 1.0
C      1  0.4873450000000  0.4550090000000  0.4556110000000 1.0
C      1  0.5101180000000  0.4447210000000  0.4788380000000 1.0
C      1  0.4617730000000  0.5471980000000  0.5255830000000 1.0
C      1  0.5393180000000  0.5768390000000  0.5421050000000 1.0
C      1  0.5913120000000  0.4727740000000  0.5205480000000 1.0
C      1  0.4443470000000  0.5093390000000  0.5482700000000 1.0
C      1  0.5583380000000  0.4869580000000  0.5765470000000 1.0
C      1  0.4594690000000  0.5187360000000  0.4211820000000 1.0
C      1  0.4959620000000  0.5178320000000  0.5462500000000 1.0
C      1  0.5282330000000  0.5795150000000  0.4790300000000 1.0
C      1  0.4728200000000  0.4959420000000  0.5490320000000 1.0
C      1  0.5133360000000  0.5539740000000  0.5856920000000 1.0
C      1  0.3925670000000  0.5257210000000  0.4813410000000 1.0
C      1  0.5279990000000  0.5024320000000  0.4186470000000 1.0
C      1  0.5149400000000  0.5549500000000  0.4278070000000 1.0
C      1  0.4393050000000  0.4738810000000  0.4730560000000 1.0
C      1  0.5352450000000  0.4512700000000  0.5009350000000 1.0
C      1  0.4692600000000  0.4795310000000  0.4655190000000 1.0
C      1  0.5869020000000  0.4433920000000  0.4786550000000 1.0
C      1  0.4665430000000  0.5271170000000  0.5897890000000 1.0
C      1  0.5496430000000  0.5895240000000  0.4973100000000 1.0
C      1  0.4687390000000  0.4759370000000  0.5846450000000 1.0
C      1  0.4451640000000  0.5623720000000  0.5614390000000 1.0
C      1  0.5731010000000  0.5385380000000  0.4442460000000 1.0
C      1  0.5210430000000  0.4212400000000  0.5762640000000 1.0
C      1  0.5110500000000  0.5548130000000  0.4938680000000 1.0
C      1  0.5241840000000  0.5444230000000  0.4576620000000 1.0
C      1  0.4301220000000  0.4979260000000  0.4898770000000 1.0
C      1  0.4451790000000  0.5823880000000  0.5047530000000 1.0
C      1  0.4478630000000  0.5338440000000  0.5680500000000 1.0
C      1  0.4270090000000  0.4750770000000  0.5241340000000 1.0
C      1  0.5141080000000  0.5086470000000  0.5231320000000 1.0
C      1  0.4746160000000  0.5260010000000  0.4715790000000 1.0
C      1  0.4058890000000  0.4680600000000  0.5003320000000 1.0
C      1  0.4114990000000  0.5273550000000  0.5095440000000 1.0
C      1  0.5924870000000  0.5057440000000  0.5290520000000 1.0
C      1  0.4197600000000  0.4471120000000  0.4805560000000 1.0
C      1  0.4941860000000  0.4484040000000  0.5449730000000 1.0
C      1  0.5287350000000  0.5127490000000  0.4509840000000 1.0
C      1  0.4214760000000  0.4913160000000  0.5613180000000 1.0
C      1  0.5586190000000  0.5031610000000  0.4557790000000 1.0
C      1  0.4988810000000  0.4225710000000  0.5008770000000 1.0
C      1  0.4582950000000  0.4321580000000  0.4244220000000 1.0
C      1  0.5722190000000  0.4875780000000  0.6001970000000 1.0
C      1  0.5880460000000  0.5333800000000  0.5483680000000 1.0
C      1  0.5083330000000  0.5845080000000  0.4297330000000 1.0
C      1  0.5680580000000  0.5021170000000  0.4863160000000 1.0
C      1  0.4787170000000  0.4041100000000  0.4723070000000 1.0
C      1  0.5613830000000  0.4834730000000  0.4277790000000 1.0
C      1  0.5525970000000  0.4746330000000  0.4847590000000 1.0
C      1  0.5269010000000  0.4467760000000  0.5545850000000 1.0
C      1  0.5538700000000  0.5195060000000  0.5105720000000 1.0
C      1  0.5934390000000  0.5307880000000  0.4634020000000 1.0
C      1  0.6037020000000  0.5357180000000  0.5175530000000 1.0
C      1  0.5076690000000  0.4848640000000  0.3997230000000 1.0
C      1  0.5596880000000  0.4254180000000  0.4690380000000 1.0
C      1  0.4243630000000  0.4255080000000  0.5027050000000 1.0
C      1  0.4727120000000  0.5048940000000  0.4493080000000 1.0
C      1  0.5359700000000  0.4415140000000  0.4621650000000 1.0
C      1  0.5059170000000  0.5044390000000  0.5738040000000 1.0
C      1  0.4354420000000  0.4631710000000  0.4351000000000 1.0
C      1  0.5031690000000  0.4838780000000  0.5030620000000 1.0
C      1  0.4717200000000  0.3838150000000  0.5229020000000 1.0
C      1  0.5541540000000  0.5603240000000  0.4554080000000 1.0
C      1  0.5386470000000  0.5092400000000  0.5708530000000 1.0
C      1  0.5854260000000  0.4480010000000  0.5079820000000 1.0
C      1  0.4003190000000  0.4953640000000  0.4886000000000 1.0
C      1  0.4716770000000  0.5897480000000  0.4943960000000 1.0
C      1  0.5694480000000  0.4627710000000  0.4588730000000 1.0
C      1  0.4719190000000  0.4084720000000  0.5083700000000 1.0
C      1  0.4543090000000  0.4180910000000  0.4529160000000 1.0
C      1  0.5407100000000  0.4671780000000  0.5306550000000 1.0
C      1  0.4501670000000  0.4099640000000  0.3775940000000 1.0
C      1  0.4677280000000  0.5754110000000  0.5739660000000 1.0
C      1  0.4896920000000  0.5482320000000  0.5404370000000 1.0
C      1  0.4433450000000  0.4519430000000  0.5413380000000 1.0
C      1  0.4714250000000  0.4356830000000  0.4744580000000 1.0
C      1  0.5391530000000  0.4028190000000  0.4715960000000 1.0
END
