TITL C-2847947-6848-432 0.000890073511661203 125000 -276.677042193414 0 0 50 (C1) n - 1
REM
REM in /home/bkarasulu/work/CARBON/AIRSS/Generating-Clusters/AIREBO/with-SteepDescent/Only-C1/SD-CG-opt/Try1-1.4A-POS3A/HFTN-CG
REM
REM
REM
REM
REM
REM ./C.cell (11c1c37f851c82e70ff6c80c92926a4b)
REM
REM compiler GCC version 9.2.1 20190827 (Red Hat 9.2.1-1)
REM options -cpp -mtune=generic -march=x86-64 -g -O0 -fpre-include=/usr/include/finclude/math-vector-fortran.h
REM seed -1648990606 1062374809 807453188 -1632304420 -1362444943 -2087950423 1159704600 694978474 1746224220 -757944339 1196019434 -533324087 -1536669472 -1048168332 1194601335 -1827474830 282341495 -1582755864 -409027665 -40156381 -1734387278 970924487 2146415795 -1991894853 345883010 -1911025411 -1114935681 -129569068 926406314 1725538313 -478282330 -1396182360 -1154068797
REM
CELL 1.54180   50.00000   50.00000   50.00000   90.00000   90.00000   90.00000
LATT -1
SFAC C  
C      1  0.5145910000000  0.5315630000000  0.4837490000000 1.0
C      1  0.5332900000000  0.4551270000000  0.4474160000000 1.0
C      1  0.4585360000000  0.5516610000000  0.5351690000000 1.0
C      1  0.5343000000000  0.5077730000000  0.4859520000000 1.0
C      1  0.4448810000000  0.4543690000000  0.5287130000000 1.0
C      1  0.5002320000000  0.4829860000000  0.5067650000000 1.0
C      1  0.5550900000000  0.4767410000000  0.4566950000000 1.0
C      1  0.4812520000000  0.5330140000000  0.5314250000000 1.0
C      1  0.5294640000000  0.4354880000000  0.5186200000000 1.0
C      1  0.5084650000000  0.4469710000000  0.4851650000000 1.0
C      1  0.4488200000000  0.5084890000000  0.4635610000000 1.0
C      1  0.4312760000000  0.4945790000000  0.4880920000000 1.0
C      1  0.4937070000000  0.5125250000000  0.5439460000000 1.0
C      1  0.5457360000000  0.5351660000000  0.4592040000000 1.0
C      1  0.5452630000000  0.5105850000000  0.5406960000000 1.0
C      1  0.5509010000000  0.5039690000000  0.4585340000000 1.0
C      1  0.4859360000000  0.4668010000000  0.4691850000000 1.0
C      1  0.5371830000000  0.4790170000000  0.5505830000000 1.0
C      1  0.4631480000000  0.4703720000000  0.5499760000000 1.0
C      1  0.5112010000000  0.4877020000000  0.4763350000000 1.0
C      1  0.4459940000000  0.4679560000000  0.5030010000000 1.0
C      1  0.5019570000000  0.4522810000000  0.5181620000000 1.0
C      1  0.4680490000000  0.5541130000000  0.4839980000000 1.0
C      1  0.5072040000000  0.4627310000000  0.4426660000000 1.0
C      1  0.4921470000000  0.5736170000000  0.4991870000000 1.0
C      1  0.4699710000000  0.4888600000000  0.5106090000000 1.0
C      1  0.5022590000000  0.4929350000000  0.4439500000000 1.0
C      1  0.5520640000000  0.5009920000000  0.5087920000000 1.0
C      1  0.5577900000000  0.5528210000000  0.5094380000000 1.0
C      1  0.4885740000000  0.5339930000000  0.5000290000000 1.0
C      1  0.4594210000000  0.4775980000000  0.4732900000000 1.0
C      1  0.4542750000000  0.5354380000000  0.4631390000000 1.0
C      1  0.4878320000000  0.4912630000000  0.5605440000000 1.0
C      1  0.5195760000000  0.5591850000000  0.5007710000000 1.0
C      1  0.5321040000000  0.5337580000000  0.5195780000000 1.0
C      1  0.5018390000000  0.5191110000000  0.4354060000000 1.0
C      1  0.5156860000000  0.5044610000000  0.5248990000000 1.0
C      1  0.4419880000000  0.5257820000000  0.5333860000000 1.0
C      1  0.4623350000000  0.5702360000000  0.5133820000000 1.0
C      1  0.5481790000000  0.5531270000000  0.4811520000000 1.0
C      1  0.4311690000000  0.5223420000000  0.5051270000000 1.0
C      1  0.4925400000000  0.4548220000000  0.5465780000000 1.0
C      1  0.5494820000000  0.4518720000000  0.5085600000000 1.0
C      1  0.4557330000000  0.5012900000000  0.5388960000000 1.0
C      1  0.5044190000000  0.4173870000000  0.4778940000000 1.0
C      1  0.5127780000000  0.4720640000000  0.5627130000000 1.0
C      1  0.5407840000000  0.4560310000000  0.4796850000000 1.0
C      1  0.5525040000000  0.4751890000000  0.5239100000000 1.0
C      1  0.5158390000000  0.5371010000000  0.4512470000000 1.0
C      1  0.4622350000000  0.5167460000000  0.5002340000000 1.0
END
