TITL C-2848499-1157-674 -0.00313443989671076 125000 -96.2033051789863 0 0 18 (C1) n - 1
REM
REM in /home/bkarasulu/work/CARBON/AIRSS/Generating-Clusters/AIREBO/with-SteepDescent/Only-C1/SD-CG-opt/Try1-1.4A-POS3A/HFTN-CG
REM
REM
REM
REM
REM
REM ./C.cell (11c1c37f851c82e70ff6c80c92926a4b)
REM
REM compiler GCC version 9.2.1 20190827 (Red Hat 9.2.1-1)
REM options -cpp -mtune=generic -march=x86-64 -g -O0 -fpre-include=/usr/include/finclude/math-vector-fortran.h
REM seed -138954028 448499059 1710674035 -1421139393 1971441873 -184933177 -443339312 -594306973 -882413482 -718318142 -447115415 -1082356038 812152098 -1680041614 -318653485 -2125630348 366534453 -386550282 1012207197 -582875191 885668866 -2080897320 1632697369 -1414324936 -1326262566 740137793 1846550760 -817270098 2083941880 -1477735545 858751327 -1991304303 -2018827220
REM
CELL 1.54180   50.00000   50.00000   50.00000   90.00000   90.00000   90.00000
LATT -1
SFAC C  
C      1  0.5358030000000  0.4875470000000  0.5378790000000 1.0
C      1  0.5505420000000  0.4681110000000  0.6136070000000 1.0
C      1  0.5462250000000  0.4755790000000  0.5888550000000 1.0
C      1  0.4707600000000  0.5355600000000  0.4364730000000 1.0
C      1  0.5148620000000  0.4777160000000  0.5131050000000 1.0
C      1  0.4562250000000  0.4970590000000  0.4790220000000 1.0
C      1  0.5247430000000  0.5027810000000  0.4923090000000 1.0
C      1  0.4582580000000  0.4794640000000  0.5354640000000 1.0
C      1  0.5209500000000  0.4521100000000  0.5030000000000 1.0
C      1  0.4866950000000  0.4817010000000  0.5204690000000 1.0
C      1  0.4598170000000  0.4882690000000  0.5043940000000 1.0
C      1  0.5433410000000  0.5055160000000  0.5153060000000 1.0
C      1  0.4629870000000  0.5147870000000  0.4594580000000 1.0
C      1  0.4563220000000  0.5691280000000  0.3981260000000 1.0
C      1  0.5419290000000  0.4806500000000  0.5630590000000 1.0
C      1  0.4936280000000  0.5218980000000  0.4541860000000 1.0
C      1  0.4635320000000  0.5515690000000  0.4162020000000 1.0
C      1  0.5133820000000  0.5105550000000  0.4690860000000 1.0
END
