TITL C-2848497-6229-249 1.2710966337581e-05 125000 -700.641579139486 0 0 127 (C1) n - 1
REM
REM in /home/bkarasulu/work/CARBON/AIRSS/Generating-Clusters/AIREBO/with-SteepDescent/Only-C1/SD-CG-opt/Try1-1.4A-POS3A/HFTN-CG
REM
REM
REM
REM
REM
REM ./C.cell (11c1c37f851c82e70ff6c80c92926a4b)
REM
REM compiler GCC version 9.2.1 20190827 (Red Hat 9.2.1-1)
REM options -cpp -mtune=generic -march=x86-64 -g -O0 -fpre-include=/usr/include/finclude/math-vector-fortran.h
REM seed 1062114530 -154087805 -784975825 1025866409 -2106862399 1178768992 -1344460835 -1526366539 -1612387476 1471444032 -1115584012 -36578917 1769158025 -433848378 -153584794 -661486615 1665283843 1766987382 1300124533 -1216740819 1093498749 -413937239 -1163067042 1426193844 -1803312656 -1152692342 -99155919 -1042986270 15806535 -1413905992 97949053 792043859 466436796
REM
CELL 1.54180   50.00000   50.00000   50.00000   90.00000   90.00000   90.00000
LATT -1
SFAC C  
C      1  0.5681570000000  0.5606220000000  0.5156330000000 1.0
C      1  0.4602880000000  0.5815570000000  0.5001420000000 1.0
C      1  0.4245510000000  0.4469950000000  0.5100890000000 1.0
C      1  0.5081080000000  0.5534340000000  0.4753470000000 1.0
C      1  0.4917250000000  0.5169790000000  0.3944610000000 1.0
C      1  0.5374530000000  0.5891440000000  0.4639610000000 1.0
C      1  0.4513290000000  0.5532610000000  0.4990080000000 1.0
C      1  0.4978420000000  0.5844670000000  0.4668030000000 1.0
C      1  0.5811020000000  0.5034040000000  0.4650840000000 1.0
C      1  0.4995300000000  0.5357900000000  0.5852460000000 1.0
C      1  0.4551610000000  0.4704710000000  0.4997870000000 1.0
C      1  0.4795540000000  0.4459040000000  0.4306710000000 1.0
C      1  0.4476280000000  0.5129510000000  0.5286330000000 1.0
C      1  0.4440780000000  0.4871930000000  0.4197120000000 1.0
C      1  0.4128650000000  0.5390720000000  0.4446400000000 1.0
C      1  0.5292740000000  0.4825990000000  0.4908530000000 1.0
C      1  0.5572390000000  0.5389800000000  0.5776410000000 1.0
C      1  0.5784240000000  0.5349050000000  0.5044250000000 1.0
C      1  0.5237240000000  0.5089440000000  0.4219040000000 1.0
C      1  0.5538310000000  0.5597870000000  0.5571480000000 1.0
C      1  0.5099220000000  0.5524880000000  0.5073710000000 1.0
C      1  0.5548560000000  0.5100610000000  0.5441600000000 1.0
C      1  0.4953230000000  0.5815060000000  0.4352700000000 1.0
C      1  0.4686140000000  0.5066690000000  0.4913330000000 1.0
C      1  0.5236390000000  0.5161880000000  0.5565730000000 1.0
C      1  0.4282350000000  0.4982950000000  0.5682570000000 1.0
C      1  0.5263660000000  0.4911740000000  0.4507750000000 1.0
C      1  0.4565050000000  0.5391970000000  0.4686940000000 1.0
C      1  0.5263590000000  0.5474220000000  0.5434170000000 1.0
C      1  0.5490070000000  0.4332750000000  0.5134480000000 1.0
C      1  0.5020100000000  0.5036570000000  0.5797550000000 1.0
C      1  0.4753110000000  0.5420040000000  0.4209200000000 1.0
C      1  0.4533200000000  0.5710730000000  0.5467990000000 1.0
C      1  0.4868450000000  0.4108630000000  0.5412150000000 1.0
C      1  0.4908320000000  0.5343080000000  0.5289360000000 1.0
C      1  0.4771910000000  0.5196490000000  0.4409570000000 1.0
C      1  0.5895020000000  0.4768290000000  0.4775820000000 1.0
C      1  0.5502220000000  0.4120300000000  0.4868740000000 1.0
C      1  0.4668660000000  0.5890420000000  0.5261130000000 1.0
C      1  0.4374770000000  0.4949930000000  0.4842290000000 1.0
C      1  0.4530100000000  0.4621540000000  0.4322080000000 1.0
C      1  0.5162550000000  0.4798590000000  0.5935160000000 1.0
C      1  0.4905640000000  0.4522650000000  0.5029530000000 1.0
C      1  0.4283430000000  0.5204440000000  0.4636070000000 1.0
C      1  0.5086720000000  0.3941620000000  0.4992630000000 1.0
C      1  0.5039100000000  0.5419060000000  0.4096210000000 1.0
C      1  0.5527630000000  0.4715860000000  0.4420670000000 1.0
C      1  0.5205580000000  0.5822020000000  0.5159740000000 1.0
C      1  0.4182850000000  0.4714440000000  0.5241990000000 1.0
C      1  0.5818030000000  0.4870480000000  0.5624320000000 1.0
C      1  0.4914040000000  0.4862410000000  0.5016300000000 1.0
C      1  0.4261130000000  0.5418220000000  0.5114380000000 1.0
C      1  0.4557130000000  0.5683750000000  0.4555780000000 1.0
C      1  0.5480410000000  0.5787940000000  0.5315060000000 1.0
C      1  0.4558730000000  0.5718610000000  0.5798190000000 1.0
C      1  0.4275200000000  0.4981480000000  0.5144590000000 1.0
C      1  0.5378430000000  0.4660790000000  0.5330340000000 1.0
C      1  0.5068570000000  0.4589660000000  0.5571790000000 1.0
C      1  0.4638250000000  0.4764540000000  0.5449610000000 1.0
C      1  0.5040990000000  0.5650820000000  0.5507520000000 1.0
C      1  0.5047570000000  0.4674110000000  0.4381240000000 1.0
C      1  0.5556500000000  0.4470670000000  0.4482170000000 1.0
C      1  0.4656870000000  0.4435110000000  0.4814440000000 1.0
C      1  0.4402590000000  0.5416110000000  0.5423570000000 1.0
C      1  0.5113090000000  0.4266660000000  0.5473600000000 1.0
C      1  0.4499730000000  0.5221490000000  0.5681460000000 1.0
C      1  0.4634490000000  0.4689490000000  0.4589810000000 1.0
C      1  0.4676770000000  0.5874230000000  0.4741470000000 1.0
C      1  0.4705170000000  0.4955690000000  0.4619050000000 1.0
C      1  0.4963600000000  0.5930580000000  0.5335340000000 1.0
C      1  0.5422860000000  0.5187820000000  0.4985860000000 1.0
C      1  0.4774450000000  0.5496190000000  0.5546470000000 1.0
C      1  0.5135840000000  0.4962020000000  0.3931720000000 1.0
C      1  0.5600000000000  0.4632290000000  0.5557360000000 1.0
C      1  0.4111000000000  0.5299080000000  0.4913550000000 1.0
C      1  0.4697300000000  0.5681370000000  0.4310980000000 1.0
C      1  0.5774180000000  0.5119460000000  0.5200840000000 1.0
C      1  0.4317190000000  0.4453250000000  0.4803090000000 1.0
C      1  0.5159740000000  0.5643840000000  0.4243770000000 1.0
C      1  0.5079570000000  0.4106400000000  0.4522290000000 1.0
C      1  0.4832190000000  0.4044520000000  0.5141170000000 1.0
C      1  0.5408620000000  0.5268400000000  0.4401630000000 1.0
C      1  0.5070940000000  0.5946250000000  0.5656480000000 1.0
C      1  0.5710690000000  0.5208200000000  0.4383420000000 1.0
C      1  0.4798580000000  0.5021020000000  0.5294140000000 1.0
C      1  0.5245710000000  0.3965900000000  0.4707600000000 1.0
C      1  0.4659590000000  0.4252980000000  0.5528520000000 1.0
C      1  0.5173690000000  0.4386750000000  0.4407890000000 1.0
C      1  0.5072000000000  0.4898450000000  0.5427060000000 1.0
C      1  0.5480550000000  0.5103910000000  0.4690370000000 1.0
C      1  0.4769520000000  0.4463320000000  0.5676690000000 1.0
C      1  0.4328570000000  0.4793080000000  0.5493190000000 1.0
C      1  0.4726660000000  0.5322110000000  0.5041570000000 1.0
C      1  0.5058590000000  0.4264180000000  0.4887510000000 1.0
C      1  0.5725210000000  0.4625930000000  0.4933830000000 1.0
C      1  0.4246480000000  0.4925940000000  0.4435310000000 1.0
C      1  0.4609600000000  0.4181090000000  0.5035520000000 1.0
C      1  0.5180590000000  0.4449400000000  0.5216480000000 1.0
C      1  0.4712150000000  0.4959100000000  0.5713960000000 1.0
C      1  0.5329750000000  0.4356560000000  0.4708480000000 1.0
C      1  0.4645250000000  0.4535130000000  0.5247880000000 1.0
C      1  0.5729190000000  0.5140820000000  0.5720010000000 1.0
C      1  0.4930620000000  0.4679970000000  0.6065820000000 1.0
C      1  0.5101100000000  0.4688030000000  0.3904750000000 1.0
C      1  0.5294890000000  0.3883810000000  0.5218450000000 1.0
C      1  0.5366510000000  0.4122310000000  0.5347660000000 1.0
C      1  0.4823000000000  0.4276880000000  0.4562510000000 1.0
C      1  0.4667570000000  0.5005870000000  0.4078980000000 1.0
C      1  0.4240870000000  0.4697010000000  0.4658700000000 1.0
C      1  0.5210710000000  0.5955560000000  0.4877530000000 1.0
C      1  0.5400380000000  0.5440890000000  0.5137300000000 1.0
C      1  0.5066340000000  0.5026060000000  0.4760100000000 1.0
C      1  0.5304790000000  0.5308980000000  0.5864640000000 1.0
C      1  0.4938720000000  0.4954820000000  0.4279010000000 1.0
C      1  0.5836800000000  0.4850190000000  0.5323560000000 1.0
C      1  0.5334870000000  0.4956980000000  0.5219480000000 1.0
C      1  0.4895240000000  0.5308400000000  0.4678360000000 1.0
C      1  0.5794110000000  0.5338650000000  0.4766890000000 1.0
C      1  0.5338640000000  0.4635890000000  0.5749520000000 1.0
C      1  0.5656450000000  0.5524350000000  0.4622140000000 1.0
C      1  0.4690390000000  0.5421610000000  0.5866140000000 1.0
C      1  0.4719360000000  0.4671160000000  0.5869010000000 1.0
C      1  0.5739340000000  0.4537860000000  0.5241490000000 1.0
C      1  0.4426630000000  0.4283250000000  0.5293230000000 1.0
C      1  0.5333550000000  0.5574410000000  0.4527820000000 1.0
C      1  0.5460480000000  0.4617510000000  0.4844430000000 1.0
C      1  0.4968830000000  0.4489910000000  0.4035050000000 1.0
END
