TITL C-2847953-8112-119 -89.4253991504348 125000 -581.254924494628 0 0 107 (C1) n - 1
REM
REM in /home/bkarasulu/work/CARBON/AIRSS/Generating-Clusters/AIREBO/with-SteepDescent/Only-C1/SD-CG-opt/Try1-1.4A-POS3A/HFTN-CG
REM
REM
REM
REM
REM
REM ./C.cell (11c1c37f851c82e70ff6c80c92926a4b)
REM
REM compiler GCC version 9.2.1 20190827 (Red Hat 9.2.1-1)
REM options -cpp -mtune=generic -march=x86-64 -g -O0 -fpre-include=/usr/include/finclude/math-vector-fortran.h
REM seed 1142555766 1577965775 -1897650668 -1560044031 1293738703 74411016 -870566584 267952907 -2107009345 15332150 109088303 2040568930 -1615575217 -140007277 2095002918 995781320 -1116960767 -1031568482 -43301914 756800846 -1110177529 121799371 -1132436023 -912806149 -840265532 -105003157 1591538990 -1893306179 -2011647349 1584811316 -1204739574 -987127438 1153902448
REM
CELL 1.54180   50.00000   50.00000   50.00000   90.00000   90.00000   90.00000
LATT -1
SFAC C  
C      1  0.5566890000000  0.5191240000000  0.5557570000000 1.0
C      1  0.5278950000000  0.5841030000000  0.4420370000000 1.0
C      1  0.5743010000000  0.4937430000000  0.5573290000000 1.0
C      1  0.4418600000000  0.4674210000000  0.5566640000000 1.0
C      1  0.4898020000000  0.5637510000000  0.5465130000000 1.0
C      1  0.5197650000000  0.5335980000000  0.4712690000000 1.0
C      1  0.5384470000000  0.4340470000000  0.4660950000000 1.0
C      1  0.4510560000000  0.4725760000000  0.5091220000000 1.0
C      1  0.4257630000000  0.5112830000000  0.5473830000000 1.0
C      1  0.4566200000000  0.4443310000000  0.5697520000000 1.0
C      1  0.5557170000000  0.4287330000000  0.4950760000000 1.0
C      1  0.5536410000000  0.4966930000000  0.4437840000000 1.0
C      1  0.4498990000000  0.4240550000000  0.5171040000000 1.0
C      1  0.5680420000000  0.4975370000000  0.5241250000000 1.0
C      1  0.5555660000000  0.5733980000000  0.4583950000000 1.0
C      1  0.5006460000000  0.4688120000000  0.5802620000000 1.0
C      1  0.5583310000000  0.5251330000000  0.4575190000000 1.0
C      1  0.4748370000000  0.5084930000000  0.5666700000000 1.0
C      1  0.4736990000000  0.5307940000000  0.4490660000000 1.0
C      1  0.4437370000000  0.5465920000000  0.5435500000000 1.0
C      1  0.4931580000000  0.5050660000000  0.4048390000000 1.0
C      1  0.5102350000000  0.4280710000000  0.4598890000000 1.0
C      1  0.5097770000000  0.4626620000000  0.4187070000000 1.0
C      1  0.4568450000000  0.4591480000000  0.4720070000000 1.0
C      1  0.5400620000000  0.5774080000000  0.5196430000000 1.0
C      1  0.5010090000000  0.4877580000000  0.5449660000000 1.0
C      1  0.5529990000000  0.4626820000000  0.4484030000000 1.0
C      1  0.5655710000000  0.4700050000000  0.5695520000000 1.0
C      1  0.5445300000000  0.4633430000000  0.4787920000000 1.0
C      1  0.3952900000000  0.4759860000000  0.5566090000000 1.0
C      1  0.4132620000000  0.4606290000000  0.4623030000000 1.0
C      1  0.4203430000000  0.4887970000000  0.4481400000000 1.0
C      1  0.4246440000000  0.5159350000000  0.4474420000000 1.0
C      1  0.5925170000000  0.5173190000000  0.5099250000000 1.0
C      1  0.4862950000000  0.5561770000000  0.4375810000000 1.0
C      1  0.5150590000000  0.4908770000000  0.4200640000000 1.0
C      1  0.4204740000000  0.4273160000000  0.5045460000000 1.0
C      1  0.4756780000000  0.5071930000000  0.5332620000000 1.0
C      1  0.4826490000000  0.5060530000000  0.4375410000000 1.0
C      1  0.4428930000000  0.5508330000000  0.4825570000000 1.0
C      1  0.5231390000000  0.5088550000000  0.4477840000000 1.0
C      1  0.4791310000000  0.4311790000000  0.5587400000000 1.0
C      1  0.5237410000000  0.4723050000000  0.5001480000000 1.0
C      1  0.4668310000000  0.4090630000000  0.4681180000000 1.0
C      1  0.4664670000000  0.4901150000000  0.4135140000000 1.0
C      1  0.4287240000000  0.5777000000000  0.4934220000000 1.0
C      1  0.5415770000000  0.5475550000000  0.4407370000000 1.0
C      1  0.5274880000000  0.5995810000000  0.5093460000000 1.0
C      1  0.5718250000000  0.4667160000000  0.4246200000000 1.0
C      1  0.4726990000000  0.4684910000000  0.5423810000000 1.0
C      1  0.5396720000000  0.4727910000000  0.5870900000000 1.0
C      1  0.4549030000000  0.5845870000000  0.5000200000000 1.0
C      1  0.5142390000000  0.5107080000000  0.5236380000000 1.0
C      1  0.4748470000000  0.4804030000000  0.5741550000000 1.0
C      1  0.4431660000000  0.5328730000000  0.4574690000000 1.0
C      1  0.5418970000000  0.4455200000000  0.5711540000000 1.0
C      1  0.4792970000000  0.5011770000000  0.5017320000000 1.0
C      1  0.4412200000000  0.4633550000000  0.4439720000000 1.0
C      1  0.5817980000000  0.5268840000000  0.4820840000000 1.0
C      1  0.4207350000000  0.4845240000000  0.5534700000000 1.0
C      1  0.5364780000000  0.4851800000000  0.5268800000000 1.0
C      1  0.4930980000000  0.4063630000000  0.4586340000000 1.0
C      1  0.5097950000000  0.5414330000000  0.5345550000000 1.0
C      1  0.5330890000000  0.5191460000000  0.5714230000000 1.0
C      1  0.5016910000000  0.5811020000000  0.5646100000000 1.0
C      1  0.4702710000000  0.4507450000000  0.5157540000000 1.0
C      1  0.5166980000000  0.5669350000000  0.4651940000000 1.0
C      1  0.5776450000000  0.4383170000000  0.5087900000000 1.0
C      1  0.4564290000000  0.4290020000000  0.4841040000000 1.0
C      1  0.4970580000000  0.4173510000000  0.5189950000000 1.0
C      1  0.4794440000000  0.5767890000000  0.4548370000000 1.0
C      1  0.5313850000000  0.5481150000000  0.5091360000000 1.0
C      1  0.5232890000000  0.4202210000000  0.5337290000000 1.0
C      1  0.5205260000000  0.4924670000000  0.5724280000000 1.0
C      1  0.4163920000000  0.4437970000000  0.4836130000000 1.0
C      1  0.4950960000000  0.4429770000000  0.4967340000000 1.0
C      1  0.5731080000000  0.4929780000000  0.4161550000000 1.0
C      1  0.5602520000000  0.5787300000000  0.5382020000000 1.0
C      1  0.4861400000000  0.4527870000000  0.4315100000000 1.0
C      1  0.5276990000000  0.4392310000000  0.5058820000000 1.0
C      1  0.4898850000000  0.4547810000000  0.4652470000000 1.0
C      1  0.4529410000000  0.5928560000000  0.5390970000000 1.0
C      1  0.5292170000000  0.5113230000000  0.4939310000000 1.0
C      1  0.5041440000000  0.4919270000000  0.4881350000000 1.0
C      1  0.4753080000000  0.5680210000000  0.4838820000000 1.0
C      1  0.5132840000000  0.5579730000000  0.4267160000000 1.0
C      1  0.5796770000000  0.4665560000000  0.5121880000000 1.0
C      1  0.5519160000000  0.5274590000000  0.5269730000000 1.0
C      1  0.4455550000000  0.5215010000000  0.4965050000000 1.0
C      1  0.5488750000000  0.5488660000000  0.4799680000000 1.0
C      1  0.4994790000000  0.4865510000000  0.4577270000000 1.0
C      1  0.4880020000000  0.5307460000000  0.5778600000000 1.0
C      1  0.4187550000000  0.5388150000000  0.5598640000000 1.0
C      1  0.4747870000000  0.4163880000000  0.5354500000000 1.0
C      1  0.5774550000000  0.5895540000000  0.4606630000000 1.0
C      1  0.4486310000000  0.5201950000000  0.5261280000000 1.0
C      1  0.5000540000000  0.5476110000000  0.4951810000000 1.0
C      1  0.5173430000000  0.6207710000000  0.4977240000000 1.0
C      1  0.4757160000000  0.5282280000000  0.4814460000000 1.0
C      1  0.5129300000000  0.5376170000000  0.5659660000000 1.0
C      1  0.4617420000000  0.4643330000000  0.4228530000000 1.0
C      1  0.4528600000000  0.4905360000000  0.4845060000000 1.0
C      1  0.5580220000000  0.5071850000000  0.4930930000000 1.0
C      1  0.5089530000000  0.4433840000000  0.5629740000000 1.0
C      1  0.5674530000000  0.4788850000000  0.4889030000000 1.0
C      1  0.5262650000000  0.4548970000000  0.5360490000000 1.0
C      1  0.4621620000000  0.5675180000000  0.5419740000000 1.0
END
