TITL C-2848497-6229-86 0.0025088212656036 125000 -820.479373449875 0 0 152 (C1) n - 1
REM
REM in /home/bkarasulu/work/CARBON/AIRSS/Generating-Clusters/AIREBO/with-SteepDescent/Only-C1/SD-CG-opt/Try1-1.4A-POS3A/HFTN-CG
REM
REM
REM
REM
REM
REM ./C.cell (11c1c37f851c82e70ff6c80c92926a4b)
REM
REM compiler GCC version 9.2.1 20190827 (Red Hat 9.2.1-1)
REM options -cpp -mtune=generic -march=x86-64 -g -O0 -fpre-include=/usr/include/finclude/math-vector-fortran.h
REM seed 1497837918 1665441606 -992912853 248508798 306033983 223198706 -205694677 1423623471 791067224 2007112745 -1059477443 1274949648 -247040857 1056450149 1873740524 1931196824 -1091775457 -1267467440 -2069274658 29533698 481996924 -43488663 -520702589 -1403383487 -751964643 -926960738 632794403 2128434451 75784380 -2064997724 -1321660841 904942328 -422522972
REM
CELL 1.54180   50.00000   50.00000   50.00000   90.00000   90.00000   90.00000
LATT -1
SFAC C  
C      1  0.5038140000000  0.5082540000000  0.5335750000000 1.0
C      1  0.4011470000000  0.4730760000000  0.4457460000000 1.0
C      1  0.4694990000000  0.5687290000000  0.5775820000000 1.0
C      1  0.5292260000000  0.5222560000000  0.5206630000000 1.0
C      1  0.4216140000000  0.5001850000000  0.5234070000000 1.0
C      1  0.5082460000000  0.4777450000000  0.5199100000000 1.0
C      1  0.5362710000000  0.4369730000000  0.4818260000000 1.0
C      1  0.4882890000000  0.5096190000000  0.6166870000000 1.0
C      1  0.5273480000000  0.5830030000000  0.5348790000000 1.0
C      1  0.5409930000000  0.5879230000000  0.5040800000000 1.0
C      1  0.5062180000000  0.5489210000000  0.4820490000000 1.0
C      1  0.4200670000000  0.5918630000000  0.4816630000000 1.0
C      1  0.5449470000000  0.4537820000000  0.5241670000000 1.0
C      1  0.4539360000000  0.4595630000000  0.4031350000000 1.0
C      1  0.4108010000000  0.4705640000000  0.5175020000000 1.0
C      1  0.4828960000000  0.4868170000000  0.5668780000000 1.0
C      1  0.6040030000000  0.4630440000000  0.5295730000000 1.0
C      1  0.4932680000000  0.4472150000000  0.5850350000000 1.0
C      1  0.4580470000000  0.4843440000000  0.6100470000000 1.0
C      1  0.5880520000000  0.5760040000000  0.4394160000000 1.0
C      1  0.5164590000000  0.4460130000000  0.5132620000000 1.0
C      1  0.3936570000000  0.4852470000000  0.4721590000000 1.0
C      1  0.4787630000000  0.4406950000000  0.4692130000000 1.0
C      1  0.4751350000000  0.4720100000000  0.5939620000000 1.0
C      1  0.4503040000000  0.5642200000000  0.4278760000000 1.0
C      1  0.5535880000000  0.4986110000000  0.5712050000000 1.0
C      1  0.5398440000000  0.5775800000000  0.5662990000000 1.0
C      1  0.4612420000000  0.5046390000000  0.5260890000000 1.0
C      1  0.4249570000000  0.5344760000000  0.5615480000000 1.0
C      1  0.5355000000000  0.4878910000000  0.5019680000000 1.0
C      1  0.5450580000000  0.4526970000000  0.4576400000000 1.0
C      1  0.4456080000000  0.4849060000000  0.5047370000000 1.0
C      1  0.5698130000000  0.5405200000000  0.4464850000000 1.0
C      1  0.5964350000000  0.5071520000000  0.4958980000000 1.0
C      1  0.5072380000000  0.5831190000000  0.4410810000000 1.0
C      1  0.4969750000000  0.5176650000000  0.5642880000000 1.0
C      1  0.5751300000000  0.4601440000000  0.4459790000000 1.0
C      1  0.4324200000000  0.4655060000000  0.3882880000000 1.0
C      1  0.5775550000000  0.4964840000000  0.4695990000000 1.0
C      1  0.5018660000000  0.4664880000000  0.5513560000000 1.0
C      1  0.4278290000000  0.5430070000000  0.4303530000000 1.0
C      1  0.4975950000000  0.4217120000000  0.5224190000000 1.0
C      1  0.4629650000000  0.5366110000000  0.5339840000000 1.0
C      1  0.4701240000000  0.5244320000000  0.3970910000000 1.0
C      1  0.3863580000000  0.5013740000000  0.5586800000000 1.0
C      1  0.5100880000000  0.5573120000000  0.5207820000000 1.0
C      1  0.4478210000000  0.5248240000000  0.5848740000000 1.0
C      1  0.5449170000000  0.5174400000000  0.4023630000000 1.0
C      1  0.4236250000000  0.5414640000000  0.5296950000000 1.0
C      1  0.4102660000000  0.5624120000000  0.5085190000000 1.0
C      1  0.4741290000000  0.5487190000000  0.4799360000000 1.0
C      1  0.5481400000000  0.3947240000000  0.5195190000000 1.0
C      1  0.4953840000000  0.5762970000000  0.4990740000000 1.0
C      1  0.5430690000000  0.5504600000000  0.5177720000000 1.0
C      1  0.5942440000000  0.4406870000000  0.5226710000000 1.0
C      1  0.4887230000000  0.3942310000000  0.4557390000000 1.0
C      1  0.4879010000000  0.4321850000000  0.4200180000000 1.0
C      1  0.4317000000000  0.4242160000000  0.5195100000000 1.0
C      1  0.5668730000000  0.4808670000000  0.4978500000000 1.0
C      1  0.5000990000000  0.5994940000000  0.5402690000000 1.0
C      1  0.5242160000000  0.4562600000000  0.5741920000000 1.0
C      1  0.4897620000000  0.5702830000000  0.5543120000000 1.0
C      1  0.4784940000000  0.4763520000000  0.5035020000000 1.0
C      1  0.4678770000000  0.5199600000000  0.4964630000000 1.0
C      1  0.4933820000000  0.3913030000000  0.5478820000000 1.0
C      1  0.5396010000000  0.5480810000000  0.5493900000000 1.0
C      1  0.4191040000000  0.5013160000000  0.4676370000000 1.0
C      1  0.4742990000000  0.4947180000000  0.4745520000000 1.0
C      1  0.4442910000000  0.4789090000000  0.4720580000000 1.0
C      1  0.4828620000000  0.4375800000000  0.5557260000000 1.0
C      1  0.4478170000000  0.5602280000000  0.5151560000000 1.0
C      1  0.5104650000000  0.5479860000000  0.5595360000000 1.0
C      1  0.4347010000000  0.5232990000000  0.5031660000000 1.0
C      1  0.5578930000000  0.5548940000000  0.5840740000000 1.0
C      1  0.5462730000000  0.5155800000000  0.4853880000000 1.0
C      1  0.4783500000000  0.4493160000000  0.5241340000000 1.0
C      1  0.4739580000000  0.5739500000000  0.5248690000000 1.0
C      1  0.4565080000000  0.4374260000000  0.4208370000000 1.0
C      1  0.5548130000000  0.4680490000000  0.4221550000000 1.0
C      1  0.4607940000000  0.5691260000000  0.4600200000000 1.0
C      1  0.5680160000000  0.4408580000000  0.5053470000000 1.0
C      1  0.4385240000000  0.5616080000000  0.5729910000000 1.0
C      1  0.5788670000000  0.4573940000000  0.4776780000000 1.0
C      1  0.5770240000000  0.5679800000000  0.4183170000000 1.0
C      1  0.4310310000000  0.5381980000000  0.4774960000000 1.0
C      1  0.4822520000000  0.5910990000000  0.4465870000000 1.0
C      1  0.6011030000000  0.5397710000000  0.4874690000000 1.0
C      1  0.4378740000000  0.5217670000000  0.4510420000000 1.0
C      1  0.5046170000000  0.4318020000000  0.4846980000000 1.0
C      1  0.5691830000000  0.4837580000000  0.5926170000000 1.0
C      1  0.4089430000000  0.5099420000000  0.5488420000000 1.0
C      1  0.4907490000000  0.5325310000000  0.5190390000000 1.0
C      1  0.5225190000000  0.5069100000000  0.5823530000000 1.0
C      1  0.4707380000000  0.5497710000000  0.4110930000000 1.0
C      1  0.4488250000000  0.4454640000000  0.4736360000000 1.0
C      1  0.5474860000000  0.4972330000000  0.5318400000000 1.0
C      1  0.4993420000000  0.3941420000000  0.5055620000000 1.0
C      1  0.5541600000000  0.5461820000000  0.4169830000000 1.0
C      1  0.4767800000000  0.5820530000000  0.6033560000000 1.0
C      1  0.5845720000000  0.5614620000000  0.4671650000000 1.0
C      1  0.4739090000000  0.5015780000000  0.4137360000000 1.0
C      1  0.5214590000000  0.5374330000000  0.4132220000000 1.0
C      1  0.5083410000000  0.4469200000000  0.4433960000000 1.0
C      1  0.4597160000000  0.4857400000000  0.5484370000000 1.0
C      1  0.5387640000000  0.5367150000000  0.4598180000000 1.0
C      1  0.4286330000000  0.4685120000000  0.4437150000000 1.0
C      1  0.5334150000000  0.5067690000000  0.4446200000000 1.0
C      1  0.5419270000000  0.4716950000000  0.5529180000000 1.0
C      1  0.5537490000000  0.4119570000000  0.4945180000000 1.0
C      1  0.5146620000000  0.5197980000000  0.4899750000000 1.0
C      1  0.4917450000000  0.5334720000000  0.4294790000000 1.0
C      1  0.4282850000000  0.4512260000000  0.5281960000000 1.0
C      1  0.5207700000000  0.3938630000000  0.5292570000000 1.0
C      1  0.5568110000000  0.5299160000000  0.5841130000000 1.0
C      1  0.4586530000000  0.5138640000000  0.6078830000000 1.0
C      1  0.4724600000000  0.4090810000000  0.5506240000000 1.0
C      1  0.5387960000000  0.4013230000000  0.4656000000000 1.0
C      1  0.5105600000000  0.4948830000000  0.6053540000000 1.0
C      1  0.4803390000000  0.4187370000000  0.4469450000000 1.0
C      1  0.4700670000000  0.5122650000000  0.4454690000000 1.0
C      1  0.5887160000000  0.4887670000000  0.5220700000000 1.0
C      1  0.3910380000000  0.4720630000000  0.4972090000000 1.0
C      1  0.5466810000000  0.4945780000000  0.4189430000000 1.0
C      1  0.5706620000000  0.5267490000000  0.4956930000000 1.0
C      1  0.4839490000000  0.6049080000000  0.5130740000000 1.0
C      1  0.5470910000000  0.4828520000000  0.4629980000000 1.0
C      1  0.4924220000000  0.4702460000000  0.4594050000000 1.0
C      1  0.5148220000000  0.4938080000000  0.4683110000000 1.0
C      1  0.5096140000000  0.3989460000000  0.4774630000000 1.0
C      1  0.4380230000000  0.5688460000000  0.4837550000000 1.0
C      1  0.5672870000000  0.5672830000000  0.5447800000000 1.0
C      1  0.4781460000000  0.4754730000000  0.4045070000000 1.0
C      1  0.5158890000000  0.5534650000000  0.4413560000000 1.0
C      1  0.5360640000000  0.5634240000000  0.4807160000000 1.0
C      1  0.5403920000000  0.6162740000000  0.4929640000000 1.0
C      1  0.5761460000000  0.5053130000000  0.5466530000000 1.0
C      1  0.4568140000000  0.5964170000000  0.4312650000000 1.0
C      1  0.5672130000000  0.3795400000000  0.5294600000000 1.0
C      1  0.5343550000000  0.4248260000000  0.4439560000000 1.0
C      1  0.5960960000000  0.5257690000000  0.5568160000000 1.0
C      1  0.4690930000000  0.5371420000000  0.5649980000000 1.0
C      1  0.5133860000000  0.4669000000000  0.6041110000000 1.0
C      1  0.4318310000000  0.4223060000000  0.4918310000000 1.0
C      1  0.5701050000000  0.5805990000000  0.5200510000000 1.0
C      1  0.5025080000000  0.4585560000000  0.4061160000000 1.0
C      1  0.5851930000000  0.5156180000000  0.4488900000000 1.0
C      1  0.5666840000000  0.5588860000000  0.4948050000000 1.0
C      1  0.4424380000000  0.4309740000000  0.4433240000000 1.0
C      1  0.4524660000000  0.4604920000000  0.5389620000000 1.0
C      1  0.5320730000000  0.4481810000000  0.4193420000000 1.0
C      1  0.4272070000000  0.4136980000000  0.4632700000000 1.0
C      1  0.4463920000000  0.4084020000000  0.5386000000000 1.0
END
