TITL C-2848501-3133-137 0.0036328238842062 125000 -256.337957629951 0 0 48 (C1) n - 1
REM
REM in /home/bkarasulu/work/CARBON/AIRSS/Generating-Clusters/AIREBO/with-SteepDescent/Only-C1/SD-CG-opt/Try1-1.4A-POS3A/HFTN-CG
REM
REM
REM
REM
REM
REM ./C.cell (11c1c37f851c82e70ff6c80c92926a4b)
REM
REM compiler GCC version 9.2.1 20190827 (Red Hat 9.2.1-1)
REM options -cpp -mtune=generic -march=x86-64 -g -O0 -fpre-include=/usr/include/finclude/math-vector-fortran.h
REM seed -1116147562 -773480504 -285545202 -543291424 1971554484 -2042415974 888083736 330420983 624538103 -1499667151 -480615027 1814289215 -1138973669 -1301601512 1097405646 -993811038 93813080 2007634010 -977607273 -1451912236 -376594943 -1189492887 -892677507 102498333 -1900937253 353041284 1819169140 -253739215 -1068392582 -1740287795 1914451561 -349299792 1408674729
REM
CELL 1.54180   50.00000   50.00000   50.00000   90.00000   90.00000   90.00000
LATT -1
SFAC C  
C      1  0.4756560000000  0.5153240000000  0.4439780000000 1.0
C      1  0.5390490000000  0.4560290000000  0.5486750000000 1.0
C      1  0.4420790000000  0.4632480000000  0.4882880000000 1.0
C      1  0.5333150000000  0.4821150000000  0.5094730000000 1.0
C      1  0.5157930000000  0.4991040000000  0.5659000000000 1.0
C      1  0.4778130000000  0.4704090000000  0.4162150000000 1.0
C      1  0.5075640000000  0.5524240000000  0.5508660000000 1.0
C      1  0.5244490000000  0.5186110000000  0.4958830000000 1.0
C      1  0.4466550000000  0.5079660000000  0.5301240000000 1.0
C      1  0.5080960000000  0.4674070000000  0.5590200000000 1.0
C      1  0.4826590000000  0.4896510000000  0.5627880000000 1.0
C      1  0.5137380000000  0.4746840000000  0.4568140000000 1.0
C      1  0.4511650000000  0.4868600000000  0.5090610000000 1.0
C      1  0.4804430000000  0.4890750000000  0.4737270000000 1.0
C      1  0.4803900000000  0.4798260000000  0.5157570000000 1.0
C      1  0.4813460000000  0.5738310000000  0.5033270000000 1.0
C      1  0.4962640000000  0.4385630000000  0.4909560000000 1.0
C      1  0.4855360000000  0.5200870000000  0.4868210000000 1.0
C      1  0.4767760000000  0.5375840000000  0.5557660000000 1.0
C      1  0.5479110000000  0.4993840000000  0.5270730000000 1.0
C      1  0.5454930000000  0.5296080000000  0.5203800000000 1.0
C      1  0.5096470000000  0.4695490000000  0.5257480000000 1.0
C      1  0.4859500000000  0.5490550000000  0.5255440000000 1.0
C      1  0.4506250000000  0.5161220000000  0.4552980000000 1.0
C      1  0.4650750000000  0.5084830000000  0.5514650000000 1.0
C      1  0.4863950000000  0.4856120000000  0.4404280000000 1.0
C      1  0.5149580000000  0.5465690000000  0.4797650000000 1.0
C      1  0.4414480000000  0.5320610000000  0.5174890000000 1.0
C      1  0.4565750000000  0.4574180000000  0.4684390000000 1.0
C      1  0.4889360000000  0.4566200000000  0.4677560000000 1.0
C      1  0.5460790000000  0.5149780000000  0.4675170000000 1.0
C      1  0.5282060000000  0.4889340000000  0.4796980000000 1.0
C      1  0.4498220000000  0.5012630000000  0.4792750000000 1.0
C      1  0.5127310000000  0.5715260000000  0.5013830000000 1.0
C      1  0.4802640000000  0.4465270000000  0.5122160000000 1.0
C      1  0.5283170000000  0.5582370000000  0.5286770000000 1.0
C      1  0.5422820000000  0.4867900000000  0.5520930000000 1.0
C      1  0.5362920000000  0.4112610000000  0.4851900000000 1.0
C      1  0.4989080000000  0.5081770000000  0.5157640000000 1.0
C      1  0.5444600000000  0.5058870000000  0.4356080000000 1.0
C      1  0.5219490000000  0.4295350000000  0.4986080000000 1.0
C      1  0.5031100000000  0.5189540000000  0.5450150000000 1.0
C      1  0.4971560000000  0.5328910000000  0.4571880000000 1.0
C      1  0.5298490000000  0.4424690000000  0.5219320000000 1.0
C      1  0.5425200000000  0.5545550000000  0.4980030000000 1.0
C      1  0.4655940000000  0.5438580000000  0.5008190000000 1.0
C      1  0.5344640000000  0.4803030000000  0.4331880000000 1.0
C      1  0.5261980000000  0.5305760000000  0.4450000000000 1.0
END
