TITL C-2847957-7266-595 3.49718413274217e-05 125000 -162.783792417652 0 0 30 (C1) n - 1
REM
REM in /home/bkarasulu/work/CARBON/AIRSS/Generating-Clusters/AIREBO/with-SteepDescent/Only-C1/SD-CG-opt/Try1-1.4A-POS3A/HFTN-CG
REM
REM
REM
REM
REM
REM ./C.cell (11c1c37f851c82e70ff6c80c92926a4b)
REM
REM compiler GCC version 9.2.1 20190827 (Red Hat 9.2.1-1)
REM options -cpp -mtune=generic -march=x86-64 -g -O0 -fpre-include=/usr/include/finclude/math-vector-fortran.h
REM seed -1441132923 -600806828 1085023738 -428271303 529861672 -1130809115 -1922490488 -342384135 -1459964036 1952329473 -1756977862 881127499 1329977374 -1927172529 -1112601338 -1069152371 -798984150 -1817668861 2117261413 154047369 15251946 -1691720383 2055071205 -1016768734 2110800510 -1606137126 -797751286 -1359883352 1634114415 766316917 -906995032 1619353370 -214209942
REM
CELL 1.54180   50.00000   50.00000   50.00000   90.00000   90.00000   90.00000
LATT -1
SFAC C  
C      1  0.4828350000000  0.5085250000000  0.4700440000000 1.0
C      1  0.5086980000000  0.4378830000000  0.4866040000000 1.0
C      1  0.5364390000000  0.4354840000000  0.5259960000000 1.0
C      1  0.5366080000000  0.5080370000000  0.5556200000000 1.0
C      1  0.5393610000000  0.5343070000000  0.5636130000000 1.0
C      1  0.4872520000000  0.5475670000000  0.4626720000000 1.0
C      1  0.4583570000000  0.4750050000000  0.4988730000000 1.0
C      1  0.5278300000000  0.4317250000000  0.4649000000000 1.0
C      1  0.4575150000000  0.5186900000000  0.4662930000000 1.0
C      1  0.4333090000000  0.4859680000000  0.4960710000000 1.0
C      1  0.5119760000000  0.4961520000000  0.5389080000000 1.0
C      1  0.4738640000000  0.5460580000000  0.4904080000000 1.0
C      1  0.4311410000000  0.5101340000000  0.4822160000000 1.0
C      1  0.4960700000000  0.5379320000000  0.5123110000000 1.0
C      1  0.4658820000000  0.5218140000000  0.5329190000000 1.0
C      1  0.5479770000000  0.4518230000000  0.4694030000000 1.0
C      1  0.5314950000000  0.5217970000000  0.4638550000000 1.0
C      1  0.5375230000000  0.4679020000000  0.4914300000000 1.0
C      1  0.4922630000000  0.5066240000000  0.5200430000000 1.0
C      1  0.5142470000000  0.5518950000000  0.5257270000000 1.0
C      1  0.4571130000000  0.5419790000000  0.5197170000000 1.0
C      1  0.5145330000000  0.4252520000000  0.5117990000000 1.0
C      1  0.5277520000000  0.5547870000000  0.5492480000000 1.0
C      1  0.5068730000000  0.4685960000000  0.4892320000000 1.0
C      1  0.5446580000000  0.4620260000000  0.5189870000000 1.0
C      1  0.4408570000000  0.5409950000000  0.4839810000000 1.0
C      1  0.5056730000000  0.5220550000000  0.4528360000000 1.0
C      1  0.4863680000000  0.4895900000000  0.4945840000000 1.0
C      1  0.5045500000000  0.5162400000000  0.4254030000000 1.0
C      1  0.5409810000000  0.4831540000000  0.5363060000000 1.0
END
