TITL C-2847952-8118-436 -0.00261806903602189 125000 -659.251100011331 0 0 126 (C1) n - 1
REM
REM in /home/bkarasulu/work/CARBON/AIRSS/Generating-Clusters/AIREBO/with-SteepDescent/Only-C1/SD-CG-opt/Try1-1.4A-POS3A/HFTN-CG
REM
REM
REM
REM
REM
REM ./C.cell (11c1c37f851c82e70ff6c80c92926a4b)
REM
REM compiler GCC version 9.2.1 20190827 (Red Hat 9.2.1-1)
REM options -cpp -mtune=generic -march=x86-64 -g -O0 -fpre-include=/usr/include/finclude/math-vector-fortran.h
REM seed -653640684 -1856104406 188830539 -740135234 1286865759 -2033518280 -1657671686 -408557519 135660723 1367385828 1800665117 254598401 -529397813 -1411291470 -787705323 641007149 -358549088 1906053952 -1718093462 1700389857 871748014 257272421 515072059 2073731553 -556881724 -538216581 -1290905731 -865426594 1424350504 -305314088 208993368 1436490377 -488516728
REM
CELL 1.54180   50.00000   50.00000   50.00000   90.00000   90.00000   90.00000
LATT -1
SFAC C  
C      1  0.4722870000000  0.6188830000000  0.4607210000000 1.0
C      1  0.4741380000000  0.4681460000000  0.4164890000000 1.0
C      1  0.4762370000000  0.5783250000000  0.5478290000000 1.0
C      1  0.4109910000000  0.5250230000000  0.5634980000000 1.0
C      1  0.4575300000000  0.5737340000000  0.4470290000000 1.0
C      1  0.5173790000000  0.5766720000000  0.4538880000000 1.0
C      1  0.4941670000000  0.4552540000000  0.5133130000000 1.0
C      1  0.4885170000000  0.5029220000000  0.5028100000000 1.0
C      1  0.5024960000000  0.5492230000000  0.4907580000000 1.0
C      1  0.5544680000000  0.5521230000000  0.5171200000000 1.0
C      1  0.4827530000000  0.5483960000000  0.5134060000000 1.0
C      1  0.5729220000000  0.4862160000000  0.4508420000000 1.0
C      1  0.5249900000000  0.5597230000000  0.5297200000000 1.0
C      1  0.6018240000000  0.5023920000000  0.4538010000000 1.0
C      1  0.4855470000000  0.4112620000000  0.5439640000000 1.0
C      1  0.5515500000000  0.5123860000000  0.4509980000000 1.0
C      1  0.4233450000000  0.5291620000000  0.4582480000000 1.0
C      1  0.4979220000000  0.4550030000000  0.4152830000000 1.0
C      1  0.5695720000000  0.4360620000000  0.5369410000000 1.0
C      1  0.5367260000000  0.4670930000000  0.5855880000000 1.0
C      1  0.4714360000000  0.5918120000000  0.4684540000000 1.0
C      1  0.5418430000000  0.5208070000000  0.5602540000000 1.0
C      1  0.5245750000000  0.4481190000000  0.5664480000000 1.0
C      1  0.4440450000000  0.4862680000000  0.5777380000000 1.0
C      1  0.4675680000000  0.4507700000000  0.4964330000000 1.0
C      1  0.4501880000000  0.5239490000000  0.4965340000000 1.0
C      1  0.4890000000000  0.4736590000000  0.5934540000000 1.0
C      1  0.5479330000000  0.5700680000000  0.5758220000000 1.0
C      1  0.4035980000000  0.5033630000000  0.4951070000000 1.0
C      1  0.4500580000000  0.5358920000000  0.5882010000000 1.0
C      1  0.5107790000000  0.4435570000000  0.4431680000000 1.0
C      1  0.5109020000000  0.4051170000000  0.4821300000000 1.0
C      1  0.4279370000000  0.5477340000000  0.5063260000000 1.0
C      1  0.5273080000000  0.5257800000000  0.5299140000000 1.0
C      1  0.5229280000000  0.4864000000000  0.4609190000000 1.0
C      1  0.5247970000000  0.5303230000000  0.4605170000000 1.0
C      1  0.4538460000000  0.4106330000000  0.4817420000000 1.0
C      1  0.4884090000000  0.4115160000000  0.4498700000000 1.0
C      1  0.5097120000000  0.4947530000000  0.4319160000000 1.0
C      1  0.5600220000000  0.4379840000000  0.4824590000000 1.0
C      1  0.4125170000000  0.5275790000000  0.4837150000000 1.0
C      1  0.5006280000000  0.5785850000000  0.4773220000000 1.0
C      1  0.5213910000000  0.4143400000000  0.4527910000000 1.0
C      1  0.5386070000000  0.4598310000000  0.4676060000000 1.0
C      1  0.4155580000000  0.4762620000000  0.4815850000000 1.0
C      1  0.4731920000000  0.5503130000000  0.5536590000000 1.0
C      1  0.4635870000000  0.5876720000000  0.4981100000000 1.0
C      1  0.5165410000000  0.4128940000000  0.5339520000000 1.0
C      1  0.5085510000000  0.5567270000000  0.4352480000000 1.0
C      1  0.5263940000000  0.5008260000000  0.4872000000000 1.0
C      1  0.5288620000000  0.5756570000000  0.5570470000000 1.0
C      1  0.4905960000000  0.5004780000000  0.5740150000000 1.0
C      1  0.5089140000000  0.4880190000000  0.5514160000000 1.0
C      1  0.5617080000000  0.6007830000000  0.4952340000000 1.0
C      1  0.5296070000000  0.4551860000000  0.4174630000000 1.0
C      1  0.5890690000000  0.4473880000000  0.4828780000000 1.0
C      1  0.4663680000000  0.4104620000000  0.5235450000000 1.0
C      1  0.5529590000000  0.5083240000000  0.5159380000000 1.0
C      1  0.5506170000000  0.4277010000000  0.5095150000000 1.0
C      1  0.5429870000000  0.4868330000000  0.5595870000000 1.0
C      1  0.4195720000000  0.5369970000000  0.5345910000000 1.0
C      1  0.5666200000000  0.5354610000000  0.5416700000000 1.0
C      1  0.5429320000000  0.4921110000000  0.4250980000000 1.0
C      1  0.4676390000000  0.5391410000000  0.4097190000000 1.0
C      1  0.5551410000000  0.5205180000000  0.4109270000000 1.0
C      1  0.4792650000000  0.5679430000000  0.4222640000000 1.0
C      1  0.5293240000000  0.5355040000000  0.4272130000000 1.0
C      1  0.4519320000000  0.4531130000000  0.4211540000000 1.0
C      1  0.5487930000000  0.4343740000000  0.4504800000000 1.0
C      1  0.4504710000000  0.5251860000000  0.5577630000000 1.0
C      1  0.5572530000000  0.4621470000000  0.4325930000000 1.0
C      1  0.4635740000000  0.5278920000000  0.4681190000000 1.0
C      1  0.4893060000000  0.4884450000000  0.4655630000000 1.0
C      1  0.4844550000000  0.4688550000000  0.5403320000000 1.0
C      1  0.5460770000000  0.5829120000000  0.5056100000000 1.0
C      1  0.4825120000000  0.5328950000000  0.5803460000000 1.0
C      1  0.4809700000000  0.4248610000000  0.5670990000000 1.0
C      1  0.4717350000000  0.4355980000000  0.4671460000000 1.0
C      1  0.4293210000000  0.4569810000000  0.5059770000000 1.0
C      1  0.4580340000000  0.4743950000000  0.5980510000000 1.0
C      1  0.5905530000000  0.5195260000000  0.5315790000000 1.0
C      1  0.5153100000000  0.4958950000000  0.5189660000000 1.0
C      1  0.5838470000000  0.4542080000000  0.5503650000000 1.0
C      1  0.4941740000000  0.5299420000000  0.5363560000000 1.0
C      1  0.4337360000000  0.4362570000000  0.4793690000000 1.0
C      1  0.5228900000000  0.5104460000000  0.4046350000000 1.0
C      1  0.4649740000000  0.4949000000000  0.5523600000000 1.0
C      1  0.4949430000000  0.5209400000000  0.4738750000000 1.0
C      1  0.4794960000000  0.5407900000000  0.4428540000000 1.0
C      1  0.5522520000000  0.4752450000000  0.5018820000000 1.0
C      1  0.4939520000000  0.4528990000000  0.5675970000000 1.0
C      1  0.5552340000000  0.5178890000000  0.4838000000000 1.0
C      1  0.4429160000000  0.5316060000000  0.4237590000000 1.0
C      1  0.4803250000000  0.3998450000000  0.4960390000000 1.0
C      1  0.5004250000000  0.4244320000000  0.5081940000000 1.0
C      1  0.4675070000000  0.5130570000000  0.5237150000000 1.0
C      1  0.5358800000000  0.4406620000000  0.5373000000000 1.0
C      1  0.4685170000000  0.4806110000000  0.4913020000000 1.0
C      1  0.4586150000000  0.5612560000000  0.5081830000000 1.0
C      1  0.5185570000000  0.4727800000000  0.6054970000000 1.0
C      1  0.4758520000000  0.4933920000000  0.4346680000000 1.0
C      1  0.5326730000000  0.4013970000000  0.5060260000000 1.0
C      1  0.4501610000000  0.4325220000000  0.5155710000000 1.0
C      1  0.4761980000000  0.6100680000000  0.5471760000000 1.0
C      1  0.4203170000000  0.5013020000000  0.5797340000000 1.0
C      1  0.4357380000000  0.5550440000000  0.4442970000000 1.0
C      1  0.6003140000000  0.5135560000000  0.5094980000000 1.0
C      1  0.5602720000000  0.5462420000000  0.5732870000000 1.0
C      1  0.6197230000000  0.5134410000000  0.4393570000000 1.0
C      1  0.4282550000000  0.5057300000000  0.5408830000000 1.0
C      1  0.4214780000000  0.4874710000000  0.5192740000000 1.0
C      1  0.4988490000000  0.4560120000000  0.4692430000000 1.0
C      1  0.5758410000000  0.4746310000000  0.4826990000000 1.0
C      1  0.4470200000000  0.5070680000000  0.4469380000000 1.0
C      1  0.5756600000000  0.4797510000000  0.5567260000000 1.0
C      1  0.4856670000000  0.5936720000000  0.5189350000000 1.0
C      1  0.5131530000000  0.5833310000000  0.5083960000000 1.0
C      1  0.4346290000000  0.4791390000000  0.4574350000000 1.0
C      1  0.4457880000000  0.4507250000000  0.4510590000000 1.0
C      1  0.4421290000000  0.4930920000000  0.4945500000000 1.0
C      1  0.4120600000000  0.5727240000000  0.5021430000000 1.0
C      1  0.5153100000000  0.5231420000000  0.5797630000000 1.0
C      1  0.5217860000000  0.4617820000000  0.4945590000000 1.0
C      1  0.5869310000000  0.5056120000000  0.4827920000000 1.0
C      1  0.5379360000000  0.4726170000000  0.5291130000000 1.0
C      1  0.5363330000000  0.5456620000000  0.4890610000000 1.0
END
