TITL C-2847952-8118-252 0.000819393478980665 125000 -1042.27634870987 0 0 195 (C1) n - 1
REM
REM in /home/bkarasulu/work/CARBON/AIRSS/Generating-Clusters/AIREBO/with-SteepDescent/Only-C1/SD-CG-opt/Try1-1.4A-POS3A/HFTN-CG
REM
REM
REM
REM
REM
REM ./C.cell (11c1c37f851c82e70ff6c80c92926a4b)
REM
REM compiler GCC version 9.2.1 20190827 (Red Hat 9.2.1-1)
REM options -cpp -mtune=generic -march=x86-64 -g -O0 -fpre-include=/usr/include/finclude/math-vector-fortran.h
REM seed -1557084802 -41561446 -2065812031 -1644477271 1049772402 -1828070041 -1592721109 -1048650629 563724321 -793985839 -1194680589 131027490 1702038928 439270179 774914634 -1870343555 -1951663195 1572910066 -1246234684 -552526989 -755751551 127424995 -534307226 -1779741594 2092279913 1842866956 -2046452185 -824432368 -796194966 -779497431 -1787158693 1864699668 -452128599
REM
CELL 1.54180   50.00000   50.00000   50.00000   90.00000   90.00000   90.00000
LATT -1
SFAC C  
C      1  0.5112790000000  0.5370150000000  0.4995060000000 1.0
C      1  0.3814790000000  0.5046560000000  0.5062840000000 1.0
C      1  0.5682440000000  0.4655070000000  0.5376850000000 1.0
C      1  0.5212020000000  0.5052060000000  0.4028360000000 1.0
C      1  0.6103400000000  0.5273130000000  0.5549370000000 1.0
C      1  0.4308280000000  0.5605560000000  0.4455760000000 1.0
C      1  0.4263090000000  0.5344140000000  0.5191410000000 1.0
C      1  0.5445770000000  0.4232370000000  0.5112840000000 1.0
C      1  0.4510660000000  0.5788920000000  0.4333590000000 1.0
C      1  0.5821440000000  0.4850970000000  0.5730340000000 1.0
C      1  0.4180830000000  0.5139350000000  0.4577830000000 1.0
C      1  0.4124740000000  0.5395990000000  0.4884800000000 1.0
C      1  0.4945540000000  0.5162400000000  0.5986620000000 1.0
C      1  0.6017420000000  0.5192380000000  0.5229790000000 1.0
C      1  0.5082740000000  0.4325340000000  0.5620150000000 1.0
C      1  0.5035230000000  0.5897960000000  0.4417250000000 1.0
C      1  0.5783090000000  0.5200550000000  0.4252720000000 1.0
C      1  0.5683060000000  0.5325300000000  0.5789500000000 1.0
C      1  0.6006720000000  0.5234740000000  0.4694230000000 1.0
C      1  0.4651850000000  0.5330690000000  0.4724760000000 1.0
C      1  0.4382320000000  0.5098910000000  0.5042670000000 1.0
C      1  0.4288670000000  0.5531290000000  0.5542850000000 1.0
C      1  0.5407390000000  0.6105370000000  0.4795170000000 1.0
C      1  0.5347390000000  0.5887610000000  0.5430960000000 1.0
C      1  0.3874380000000  0.5114300000000  0.5371530000000 1.0
C      1  0.4617730000000  0.5579430000000  0.4878990000000 1.0
C      1  0.5234960000000  0.5807150000000  0.5154840000000 1.0
C      1  0.4892410000000  0.5067030000000  0.5174900000000 1.0
C      1  0.5047390000000  0.5609320000000  0.5789900000000 1.0
C      1  0.5515230000000  0.5015850000000  0.4510320000000 1.0
C      1  0.4383170000000  0.4756000000000  0.5243570000000 1.0
C      1  0.4873850000000  0.3980590000000  0.5241410000000 1.0
C      1  0.3854690000000  0.4543430000000  0.4726900000000 1.0
C      1  0.5562900000000  0.4451320000000  0.4896000000000 1.0
C      1  0.5748480000000  0.5385790000000  0.4536920000000 1.0
C      1  0.4176620000000  0.4877190000000  0.5005760000000 1.0
C      1  0.5441020000000  0.4562420000000  0.5598300000000 1.0
C      1  0.5275950000000  0.3971980000000  0.5464600000000 1.0
C      1  0.4911260000000  0.4065990000000  0.4300080000000 1.0
C      1  0.5071430000000  0.4551690000000  0.4467180000000 1.0
C      1  0.4815130000000  0.4790570000000  0.5922130000000 1.0
C      1  0.4702650000000  0.4466170000000  0.5214720000000 1.0
C      1  0.5759590000000  0.5709890000000  0.5349080000000 1.0
C      1  0.5568860000000  0.5781670000000  0.5546070000000 1.0
C      1  0.4157750000000  0.4586860000000  0.5433790000000 1.0
C      1  0.4601380000000  0.5352780000000  0.4035340000000 1.0
C      1  0.4772690000000  0.6324840000000  0.4583490000000 1.0
C      1  0.4122900000000  0.4513430000000  0.4560990000000 1.0
C      1  0.4670220000000  0.4349370000000  0.4896920000000 1.0
C      1  0.5220930000000  0.4374920000000  0.4703280000000 1.0
C      1  0.6054320000000  0.4457600000000  0.4686630000000 1.0
C      1  0.5367450000000  0.4678060000000  0.5888460000000 1.0
C      1  0.5681690000000  0.4946690000000  0.4048020000000 1.0
C      1  0.3939770000000  0.5126120000000  0.4789790000000 1.0
C      1  0.4375580000000  0.4393640000000  0.4446490000000 1.0
C      1  0.4667420000000  0.5107120000000  0.4935210000000 1.0
C      1  0.4089070000000  0.5699480000000  0.5033900000000 1.0
C      1  0.4713710000000  0.3985380000000  0.4534630000000 1.0
C      1  0.5119570000000  0.4064930000000  0.4802240000000 1.0
C      1  0.4419400000000  0.5334520000000  0.4498470000000 1.0
C      1  0.4948950000000  0.4209670000000  0.5032700000000 1.0
C      1  0.4417930000000  0.6006950000000  0.5125910000000 1.0
C      1  0.5851300000000  0.5431050000000  0.5396860000000 1.0
C      1  0.5179410000000  0.4188700000000  0.4219170000000 1.0
C      1  0.5017680000000  0.4625900000000  0.5707190000000 1.0
C      1  0.5227950000000  0.5340250000000  0.5487460000000 1.0
C      1  0.5391230000000  0.5145950000000  0.4247340000000 1.0
C      1  0.4873450000000  0.5320400000000  0.4491470000000 1.0
C      1  0.5607810000000  0.6064040000000  0.4991760000000 1.0
C      1  0.4474460000000  0.4623410000000  0.4943990000000 1.0
C      1  0.5144970000000  0.4928610000000  0.4626950000000 1.0
C      1  0.4235000000000  0.4964370000000  0.4114310000000 1.0
C      1  0.4998060000000  0.5481720000000  0.4100610000000 1.0
C      1  0.5840060000000  0.5326720000000  0.4975980000000 1.0
C      1  0.5179980000000  0.5229830000000  0.4493340000000 1.0
C      1  0.4759470000000  0.6062230000000  0.4518460000000 1.0
C      1  0.4861150000000  0.4803890000000  0.4518050000000 1.0
C      1  0.4819950000000  0.4840760000000  0.4025480000000 1.0
C      1  0.4787000000000  0.5140500000000  0.5624970000000 1.0
C      1  0.5326290000000  0.5828790000000  0.4316860000000 1.0
C      1  0.5324970000000  0.5725090000000  0.4702740000000 1.0
C      1  0.4619060000000  0.4618660000000  0.4367280000000 1.0
C      1  0.4578820000000  0.5312880000000  0.5314210000000 1.0
C      1  0.5200410000000  0.4409370000000  0.5137620000000 1.0
C      1  0.6129550000000  0.5017500000000  0.4594400000000 1.0
C      1  0.5716010000000  0.4284610000000  0.5518520000000 1.0
C      1  0.5731640000000  0.4286040000000  0.5232700000000 1.0
C      1  0.4069540000000  0.5297330000000  0.5437120000000 1.0
C      1  0.5278520000000  0.5539190000000  0.5909120000000 1.0
C      1  0.5226340000000  0.5504390000000  0.4297410000000 1.0
C      1  0.5046730000000  0.5628450000000  0.5458460000000 1.0
C      1  0.4420590000000  0.4889300000000  0.4584720000000 1.0
C      1  0.4739900000000  0.5877330000000  0.5585320000000 1.0
C      1  0.5528690000000  0.5915390000000  0.4548420000000 1.0
C      1  0.4147990000000  0.4370090000000  0.5171840000000 1.0
C      1  0.4479620000000  0.5077290000000  0.4321730000000 1.0
C      1  0.4566500000000  0.4232820000000  0.5615380000000 1.0
C      1  0.4832510000000  0.4425170000000  0.4639680000000 1.0
C      1  0.4172760000000  0.4833150000000  0.5679900000000 1.0
C      1  0.4765400000000  0.5654190000000  0.5741590000000 1.0
C      1  0.4999750000000  0.3960730000000  0.5479490000000 1.0
C      1  0.4364850000000  0.4453280000000  0.4111790000000 1.0
C      1  0.4336440000000  0.5377980000000  0.5850590000000 1.0
C      1  0.4845440000000  0.3901870000000  0.4770610000000 1.0
C      1  0.4975110000000  0.4445980000000  0.5354330000000 1.0
C      1  0.5093890000000  0.5137000000000  0.5681590000000 1.0
C      1  0.5476140000000  0.4749930000000  0.4065150000000 1.0
C      1  0.4480890000000  0.3951330000000  0.5224100000000 1.0
C      1  0.5448770000000  0.4305390000000  0.4335470000000 1.0
C      1  0.4243770000000  0.4327140000000  0.5635700000000 1.0
C      1  0.5350700000000  0.4683860000000  0.4761670000000 1.0
C      1  0.4937000000000  0.6411450000000  0.4787790000000 1.0
C      1  0.4675470000000  0.3921540000000  0.4993610000000 1.0
C      1  0.4273030000000  0.5742630000000  0.5283420000000 1.0
C      1  0.4683010000000  0.4817120000000  0.5609770000000 1.0
C      1  0.4549470000000  0.5048030000000  0.3990200000000 1.0
C      1  0.5961400000000  0.4629950000000  0.5183320000000 1.0
C      1  0.5978270000000  0.5631840000000  0.4917280000000 1.0
C      1  0.5281100000000  0.5128460000000  0.4866000000000 1.0
C      1  0.4974140000000  0.5209320000000  0.4042460000000 1.0
C      1  0.5035020000000  0.5968840000000  0.5452000000000 1.0
C      1  0.4596720000000  0.5421230000000  0.5636100000000 1.0
C      1  0.4307000000000  0.4186700000000  0.4933470000000 1.0
C      1  0.5555830000000  0.5421650000000  0.4167290000000 1.0
C      1  0.4625840000000  0.4924150000000  0.6085630000000 1.0
C      1  0.4735420000000  0.5603470000000  0.4213210000000 1.0
C      1  0.5525020000000  0.4240640000000  0.4631770000000 1.0
C      1  0.4607160000000  0.5206450000000  0.5973360000000 1.0
C      1  0.5039540000000  0.5590450000000  0.4794710000000 1.0
C      1  0.4256330000000  0.5689350000000  0.4748890000000 1.0
C      1  0.5383800000000  0.5578950000000  0.4998020000000 1.0
C      1  0.5264760000000  0.5275810000000  0.6017450000000 1.0
C      1  0.4891000000000  0.4694410000000  0.5026060000000 1.0
C      1  0.4768300000000  0.4326520000000  0.4337780000000 1.0
C      1  0.5589580000000  0.4879400000000  0.5941740000000 1.0
C      1  0.4905570000000  0.5390520000000  0.5260020000000 1.0
C      1  0.4472480000000  0.5005850000000  0.5420890000000 1.0
C      1  0.4811910000000  0.5051990000000  0.4291970000000 1.0
C      1  0.4558490000000  0.5831890000000  0.4667580000000 1.0
C      1  0.5145540000000  0.4746190000000  0.3984700000000 1.0
C      1  0.5206050000000  0.4838820000000  0.5027770000000 1.0
C      1  0.4680560000000  0.4830240000000  0.4795840000000 1.0
C      1  0.5055380000000  0.5919880000000  0.4746660000000 1.0
C      1  0.4398360000000  0.5059680000000  0.5748490000000 1.0
C      1  0.4631600000000  0.4579600000000  0.4029740000000 1.0
C      1  0.5835910000000  0.4536250000000  0.5656040000000 1.0
C      1  0.5549770000000  0.5336680000000  0.5152750000000 1.0
C      1  0.4647800000000  0.5990740000000  0.4954810000000 1.0
C      1  0.3877760000000  0.4420380000000  0.4972960000000 1.0
C      1  0.5558370000000  0.3948880000000  0.4736610000000 1.0
C      1  0.5547210000000  0.5333590000000  0.5489800000000 1.0
C      1  0.5531260000000  0.5610930000000  0.5776730000000 1.0
C      1  0.5762030000000  0.4918200000000  0.4882640000000 1.0
C      1  0.5893030000000  0.4387760000000  0.4961640000000 1.0
C      1  0.4489050000000  0.4194120000000  0.4654520000000 1.0
C      1  0.3898020000000  0.4856940000000  0.4585730000000 1.0
C      1  0.5806750000000  0.5029110000000  0.5440970000000 1.0
C      1  0.6027660000000  0.4749280000000  0.4871890000000 1.0
C      1  0.5937580000000  0.4900440000000  0.4243200000000 1.0
C      1  0.5722480000000  0.5687100000000  0.4692970000000 1.0
C      1  0.4942730000000  0.5984530000000  0.5124490000000 1.0
C      1  0.5604470000000  0.5185880000000  0.4775050000000 1.0
C      1  0.4809980000000  0.4363550000000  0.5914060000000 1.0
C      1  0.4827550000000  0.5654370000000  0.4536620000000 1.0
C      1  0.5935300000000  0.4742880000000  0.4544520000000 1.0
C      1  0.5107730000000  0.6186200000000  0.4905920000000 1.0
C      1  0.4856170000000  0.4101890000000  0.5715700000000 1.0
C      1  0.5530260000000  0.4565880000000  0.4273400000000 1.0
C      1  0.5677420000000  0.5748520000000  0.5024550000000 1.0
C      1  0.5595920000000  0.4741200000000  0.5070730000000 1.0
C      1  0.4254600000000  0.4582420000000  0.5821340000000 1.0
C      1  0.3955720000000  0.4862220000000  0.4282820000000 1.0
C      1  0.6042050000000  0.4827630000000  0.5390940000000 1.0
C      1  0.5221660000000  0.5090270000000  0.5256580000000 1.0
C      1  0.4713920000000  0.5805500000000  0.5301180000000 1.0
C      1  0.4168970000000  0.4647210000000  0.4187550000000 1.0
C      1  0.5504990000000  0.5145390000000  0.5968160000000 1.0
C      1  0.5159490000000  0.4852800000000  0.5568540000000 1.0
C      1  0.5552470000000  0.5011690000000  0.5252620000000 1.0
C      1  0.5406910000000  0.4224430000000  0.5613070000000 1.0
C      1  0.5291590000000  0.4683410000000  0.5317850000000 1.0
C      1  0.4171420000000  0.4780870000000  0.4739240000000 1.0
C      1  0.5952860000000  0.5159360000000  0.5787560000000 1.0
C      1  0.5117570000000  0.4869560000000  0.6006630000000 1.0
C      1  0.5349130000000  0.3900130000000  0.4913100000000 1.0
C      1  0.5502120000000  0.5704350000000  0.4093750000000 1.0
C      1  0.4563080000000  0.4532860000000  0.5752840000000 1.0
C      1  0.5598850000000  0.4718600000000  0.4531550000000 1.0
C      1  0.4445730000000  0.4263860000000  0.5298840000000 1.0
C      1  0.5378640000000  0.3946700000000  0.5204890000000 1.0
C      1  0.5094430000000  0.4522260000000  0.6018900000000 1.0
C      1  0.5136560000000  0.4494120000000  0.4175960000000 1.0
C      1  0.4905260000000  0.4778850000000  0.5355230000000 1.0
C      1  0.4552280000000  0.5614820000000  0.5160890000000 1.0
C      1  0.3980700000000  0.4815570000000  0.5252600000000 1.0
END
