TITL C-2847946-5639-548 0.000158757580129389 125000 -523.572141296914 0 0 97 (C1) n - 1
REM
REM in /home/bkarasulu/work/CARBON/AIRSS/Generating-Clusters/AIREBO/with-SteepDescent/Only-C1/SD-CG-opt/Try1-1.4A-POS3A/HFTN-CG
REM
REM
REM
REM
REM
REM ./C.cell (11c1c37f851c82e70ff6c80c92926a4b)
REM
REM compiler GCC version 9.2.1 20190827 (Red Hat 9.2.1-1)
REM options -cpp -mtune=generic -march=x86-64 -g -O0 -fpre-include=/usr/include/finclude/math-vector-fortran.h
REM seed -529468800 1833941206 479101079 38552807 -1642383485 796115818 -333691338 218385950 1179129179 -1706480169 -649569047 -177256855 -833590676 1307016973 -2131691763 -1952925455 1617267495 -583138968 2018787788 1859788389 -1853241807 -664243687 1206244572 34752081 -82501388 -444980724 -1142935971 -1455948945 -2108671701 -735696279 265831037 1218954912 230615305
REM
CELL 1.54180   50.00000   50.00000   50.00000   90.00000   90.00000   90.00000
LATT -1
SFAC C  
C      1  0.5407600000000  0.5194430000000  0.4739840000000 1.0
C      1  0.5142470000000  0.5036490000000  0.5575480000000 1.0
C      1  0.4495900000000  0.5568310000000  0.4615470000000 1.0
C      1  0.5429280000000  0.5445480000000  0.5475190000000 1.0
C      1  0.4551370000000  0.5315910000000  0.4473110000000 1.0
C      1  0.5765940000000  0.5434290000000  0.5477950000000 1.0
C      1  0.4150530000000  0.5029450000000  0.5051880000000 1.0
C      1  0.5185710000000  0.4597550000000  0.4248480000000 1.0
C      1  0.4451360000000  0.4669690000000  0.5417090000000 1.0
C      1  0.4522390000000  0.5099690000000  0.4835050000000 1.0
C      1  0.5103520000000  0.5716810000000  0.5267720000000 1.0
C      1  0.4580400000000  0.4924400000000  0.4544350000000 1.0
C      1  0.5450320000000  0.4971300000000  0.4493750000000 1.0
C      1  0.4874830000000  0.5356910000000  0.5473970000000 1.0
C      1  0.5163130000000  0.4260180000000  0.4818210000000 1.0
C      1  0.5784230000000  0.4938690000000  0.5303230000000 1.0
C      1  0.5287050000000  0.5540230000000  0.4582980000000 1.0
C      1  0.5620170000000  0.5362210000000  0.5032670000000 1.0
C      1  0.5112090000000  0.5007710000000  0.4491200000000 1.0
C      1  0.5391460000000  0.4918580000000  0.4928620000000 1.0
C      1  0.4439270000000  0.5023770000000  0.5231590000000 1.0
C      1  0.5447240000000  0.5745150000000  0.5576590000000 1.0
C      1  0.5211540000000  0.5404140000000  0.4352500000000 1.0
C      1  0.4698080000000  0.4063840000000  0.4897690000000 1.0
C      1  0.4873350000000  0.5221730000000  0.4528950000000 1.0
C      1  0.5389120000000  0.5213850000000  0.4263430000000 1.0
C      1  0.4559230000000  0.4653690000000  0.4334430000000 1.0
C      1  0.4559620000000  0.5530140000000  0.4883380000000 1.0
C      1  0.4791650000000  0.4540560000000  0.5075110000000 1.0
C      1  0.5205680000000  0.4411090000000  0.5343470000000 1.0
C      1  0.4416800000000  0.5439030000000  0.5592290000000 1.0
C      1  0.4395950000000  0.4562640000000  0.4610770000000 1.0
C      1  0.4927880000000  0.5088250000000  0.4836970000000 1.0
C      1  0.5138930000000  0.4830110000000  0.4757020000000 1.0
C      1  0.4877100000000  0.4335850000000  0.4815490000000 1.0
C      1  0.5584760000000  0.5481100000000  0.4719290000000 1.0
C      1  0.5453750000000  0.5707090000000  0.4917540000000 1.0
C      1  0.5077690000000  0.5629270000000  0.4808710000000 1.0
C      1  0.5214400000000  0.3965070000000  0.4877350000000 1.0
C      1  0.3895720000000  0.4541780000000  0.5146680000000 1.0
C      1  0.4434860000000  0.4713600000000  0.5090910000000 1.0
C      1  0.5399900000000  0.4653090000000  0.5722730000000 1.0
C      1  0.4726750000000  0.4503790000000  0.4590000000000 1.0
C      1  0.5970160000000  0.4606490000000  0.4798880000000 1.0
C      1  0.5780870000000  0.4979230000000  0.4573700000000 1.0
C      1  0.4395670000000  0.4935200000000  0.5556950000000 1.0
C      1  0.4376270000000  0.5785530000000  0.4503010000000 1.0
C      1  0.5025380000000  0.4906600000000  0.5331180000000 1.0
C      1  0.5939250000000  0.4885230000000  0.4774600000000 1.0
C      1  0.4729310000000  0.4909410000000  0.4239030000000 1.0
C      1  0.4770630000000  0.4253600000000  0.5598500000000 1.0
C      1  0.5993020000000  0.5038490000000  0.5048360000000 1.0
C      1  0.5145930000000  0.5985730000000  0.5262580000000 1.0
C      1  0.4200390000000  0.4663820000000  0.4771040000000 1.0
C      1  0.5509150000000  0.4449520000000  0.4756570000000 1.0
C      1  0.4855850000000  0.5686810000000  0.4156940000000 1.0
C      1  0.4715320000000  0.4848110000000  0.4951010000000 1.0
C      1  0.4623880000000  0.5253630000000  0.5634050000000 1.0
C      1  0.5128540000000  0.5430970000000  0.5633180000000 1.0
C      1  0.5275660000000  0.4343410000000  0.4536720000000 1.0
C      1  0.4875590000000  0.4708660000000  0.5644290000000 1.0
C      1  0.5015880000000  0.4849980000000  0.4253850000000 1.0
C      1  0.5043680000000  0.4591180000000  0.4557410000000 1.0
C      1  0.4948230000000  0.4592960000000  0.5332770000000 1.0
C      1  0.5854190000000  0.5270170000000  0.5261500000000 1.0
C      1  0.5588050000000  0.4853780000000  0.5522750000000 1.0
C      1  0.5721260000000  0.4441940000000  0.5183330000000 1.0
C      1  0.5057660000000  0.4273480000000  0.5599680000000 1.0
C      1  0.5300260000000  0.4449430000000  0.5023500000000 1.0
C      1  0.4160720000000  0.4935300000000  0.4793720000000 1.0
C      1  0.5411840000000  0.5113550000000  0.5547140000000 1.0
C      1  0.5154240000000  0.4538460000000  0.5718840000000 1.0
C      1  0.4582620000000  0.4270430000000  0.5071050000000 1.0
C      1  0.4966880000000  0.5074720000000  0.5776630000000 1.0
C      1  0.4152090000000  0.4530350000000  0.5044540000000 1.0
C      1  0.5184120000000  0.6101240000000  0.5014220000000 1.0
C      1  0.5495250000000  0.4589290000000  0.5340860000000 1.0
C      1  0.5432520000000  0.4640010000000  0.4481600000000 1.0
C      1  0.4766750000000  0.5085060000000  0.5300680000000 1.0
C      1  0.5327780000000  0.5487320000000  0.5153200000000 1.0
C      1  0.4809320000000  0.5614940000000  0.5317830000000 1.0
C      1  0.4816760000000  0.5294280000000  0.5078850000000 1.0
C      1  0.5655180000000  0.5039220000000  0.5009880000000 1.0
C      1  0.4632850000000  0.4508850000000  0.5561770000000 1.0
C      1  0.5764080000000  0.4457030000000  0.4914040000000 1.0
C      1  0.5255790000000  0.5909220000000  0.4823410000000 1.0
C      1  0.5264950000000  0.4755710000000  0.5152970000000 1.0
C      1  0.4528470000000  0.5687250000000  0.5415930000000 1.0
C      1  0.4419990000000  0.5322780000000  0.5070670000000 1.0
C      1  0.4907420000000  0.5436990000000  0.4266770000000 1.0
C      1  0.4305620000000  0.5109860000000  0.4573270000000 1.0
C      1  0.4836610000000  0.5601280000000  0.4993810000000 1.0
C      1  0.4675590000000  0.5206540000000  0.4186220000000 1.0
C      1  0.4665020000000  0.4951730000000  0.5739190000000 1.0
C      1  0.5171410000000  0.5316430000000  0.4903910000000 1.0
C      1  0.4324490000000  0.4287030000000  0.5129360000000 1.0
C      1  0.4302520000000  0.5494790000000  0.5295160000000 1.0
END
