TITL C-2848494-1720-626 -0.000350582700567982 125000 -152.3812421462 0 0 28 (C1) n - 1
REM
REM in /home/bkarasulu/work/CARBON/AIRSS/Generating-Clusters/AIREBO/with-SteepDescent/Only-C1/SD-CG-opt/Try1-1.4A-POS3A/HFTN-CG
REM
REM
REM
REM
REM
REM ./C.cell (11c1c37f851c82e70ff6c80c92926a4b)
REM
REM compiler GCC version 9.2.1 20190827 (Red Hat 9.2.1-1)
REM options -cpp -mtune=generic -march=x86-64 -g -O0 -fpre-include=/usr/include/finclude/math-vector-fortran.h
REM seed -1501487224 -1851950597 370305895 2112897362 1958918720 536556524 -282541702 970691733 1892793337 -2108254017 -1716891873 1071663544 1007621098 415983691 -512759364 1255959711 -99406056 1988188417 867975064 -132760901 2026486548 1912779501 -1808530171 1534855316 -2007829197 -962234716 -1759527522 -1836315249 -1160229328 1861373759 -334181923 1435797042 679024431
REM
CELL 1.54180   50.00000   50.00000   50.00000   90.00000   90.00000   90.00000
LATT -1
SFAC C  
C      1  0.4727930000000  0.5467480000000  0.5223630000000 1.0
C      1  0.5759580000000  0.4886920000000  0.4902520000000 1.0
C      1  0.4978470000000  0.5617970000000  0.5043140000000 1.0
C      1  0.4826540000000  0.5030090000000  0.4985440000000 1.0
C      1  0.5490570000000  0.4747910000000  0.4924930000000 1.0
C      1  0.4943560000000  0.4371150000000  0.5234820000000 1.0
C      1  0.4468730000000  0.5295220000000  0.5114760000000 1.0
C      1  0.5336100000000  0.5273020000000  0.5181760000000 1.0
C      1  0.4216430000000  0.4613040000000  0.4973380000000 1.0
C      1  0.4895970000000  0.5294130000000  0.5004630000000 1.0
C      1  0.5378230000000  0.5119440000000  0.4573350000000 1.0
C      1  0.5327340000000  0.4960180000000  0.5097960000000 1.0
C      1  0.4844980000000  0.5242630000000  0.5428610000000 1.0
C      1  0.4901520000000  0.5004470000000  0.5377180000000 1.0
C      1  0.5327490000000  0.4659750000000  0.4707220000000 1.0
C      1  0.4374690000000  0.4821510000000  0.4986900000000 1.0
C      1  0.5360650000000  0.5397810000000  0.4738050000000 1.0
C      1  0.5108500000000  0.4498310000000  0.4790580000000 1.0
C      1  0.4995360000000  0.4311880000000  0.4633120000000 1.0
C      1  0.4971130000000  0.5887160000000  0.4998710000000 1.0
C      1  0.4545240000000  0.5033460000000  0.5026980000000 1.0
C      1  0.5533180000000  0.5137280000000  0.4861600000000 1.0
C      1  0.5018170000000  0.4559420000000  0.5049660000000 1.0
C      1  0.5304460000000  0.4859530000000  0.4501550000000 1.0
C      1  0.5255400000000  0.5461680000000  0.4997850000000 1.0
C      1  0.4848000000000  0.4194670000000  0.5403370000000 1.0
C      1  0.4219560000000  0.5406840000000  0.5110160000000 1.0
C      1  0.5042210000000  0.4847070000000  0.5128140000000 1.0
END
