TITL C-2848507-1641-62 -0.00158208482573101 125000 -1035.94205079363 0 0 191 (C1) n - 1
REM
REM in /home/bkarasulu/work/CARBON/AIRSS/Generating-Clusters/AIREBO/with-SteepDescent/Only-C1/SD-CG-opt/Try1-1.4A-POS3A/HFTN-CG
REM
REM
REM
REM
REM
REM ./C.cell (11c1c37f851c82e70ff6c80c92926a4b)
REM
REM compiler GCC version 9.2.1 20190827 (Red Hat 9.2.1-1)
REM options -cpp -mtune=generic -march=x86-64 -g -O0 -fpre-include=/usr/include/finclude/math-vector-fortran.h
REM seed -272062053 746564342 -729320826 -1009252181 93187462 -2014869926 -850173054 -1088510803 -1968456792 1325529383 1612735603 436680892 683868100 400500690 -424191588 2034867071 1602055762 -1680122205 -558908014 -680584121 799482648 457173846 484132384 1480204111 1527039899 -1113320106 -2016462669 2129259431 -1315427913 1604812674 706939960 1018328809 515181138
REM
CELL 1.54180   50.00000   50.00000   50.00000   90.00000   90.00000   90.00000
LATT -1
SFAC C  
C      1  0.5216720000000  0.3890320000000  0.5249410000000 1.0
C      1  0.4139100000000  0.5500910000000  0.5772630000000 1.0
C      1  0.5669740000000  0.5692830000000  0.5411610000000 1.0
C      1  0.5894640000000  0.5375980000000  0.4388030000000 1.0
C      1  0.5636450000000  0.5774990000000  0.4561970000000 1.0
C      1  0.5343740000000  0.5343050000000  0.4483660000000 1.0
C      1  0.5717600000000  0.4650550000000  0.4623320000000 1.0
C      1  0.5640780000000  0.5010010000000  0.5862520000000 1.0
C      1  0.5137720000000  0.4523570000000  0.4525170000000 1.0
C      1  0.5100440000000  0.5819300000000  0.4650620000000 1.0
C      1  0.5568460000000  0.4161040000000  0.4325860000000 1.0
C      1  0.5224220000000  0.4590180000000  0.4140440000000 1.0
C      1  0.6107390000000  0.5451230000000  0.5342900000000 1.0
C      1  0.4283190000000  0.5552770000000  0.4411200000000 1.0
C      1  0.5845740000000  0.5528530000000  0.4663010000000 1.0
C      1  0.4577040000000  0.4421480000000  0.4925260000000 1.0
C      1  0.3971280000000  0.5586290000000  0.4792730000000 1.0
C      1  0.4910140000000  0.5439660000000  0.5160830000000 1.0
C      1  0.4195310000000  0.4305270000000  0.4949980000000 1.0
C      1  0.4273020000000  0.4999730000000  0.4279710000000 1.0
C      1  0.5410810000000  0.4689440000000  0.4764810000000 1.0
C      1  0.4657520000000  0.5287410000000  0.5510450000000 1.0
C      1  0.5432860000000  0.4849320000000  0.4069620000000 1.0
C      1  0.4389770000000  0.4678950000000  0.5752870000000 1.0
C      1  0.4361560000000  0.4267830000000  0.4464240000000 1.0
C      1  0.4702910000000  0.5380490000000  0.4643820000000 1.0
C      1  0.4572700000000  0.5601250000000  0.5610060000000 1.0
C      1  0.4655590000000  0.4919810000000  0.6102410000000 1.0
C      1  0.5731760000000  0.4585720000000  0.5221250000000 1.0
C      1  0.4883720000000  0.5155860000000  0.6074680000000 1.0
C      1  0.5812600000000  0.4189380000000  0.4807970000000 1.0
C      1  0.5609070000000  0.5581180000000  0.4901400000000 1.0
C      1  0.5449900000000  0.5395800000000  0.5558280000000 1.0
C      1  0.6079750000000  0.4571310000000  0.5025640000000 1.0
C      1  0.4935770000000  0.4344140000000  0.5272770000000 1.0
C      1  0.4890360000000  0.6011850000000  0.4463420000000 1.0
C      1  0.3925380000000  0.5280850000000  0.5395500000000 1.0
C      1  0.5454730000000  0.5398260000000  0.4009540000000 1.0
C      1  0.5624370000000  0.4795880000000  0.5007060000000 1.0
C      1  0.5950320000000  0.4333920000000  0.4593540000000 1.0
C      1  0.4714610000000  0.4842730000000  0.3916950000000 1.0
C      1  0.5474350000000  0.5708560000000  0.5689510000000 1.0
C      1  0.4147890000000  0.4708720000000  0.4340590000000 1.0
C      1  0.4517500000000  0.5174680000000  0.5036850000000 1.0
C      1  0.4284270000000  0.4374730000000  0.5212530000000 1.0
C      1  0.4488560000000  0.5093180000000  0.3959100000000 1.0
C      1  0.4823180000000  0.5894400000000  0.5507320000000 1.0
C      1  0.5394770000000  0.5662690000000  0.4429700000000 1.0
C      1  0.5618790000000  0.4606040000000  0.4094070000000 1.0
C      1  0.6102700000000  0.5422280000000  0.5631250000000 1.0
C      1  0.3990330000000  0.4725520000000  0.4849000000000 1.0
C      1  0.5015930000000  0.4049470000000  0.4476790000000 1.0
C      1  0.5381740000000  0.6008600000000  0.5062650000000 1.0
C      1  0.5873860000000  0.4333350000000  0.5065040000000 1.0
C      1  0.4366570000000  0.5262440000000  0.5857070000000 1.0
C      1  0.5686290000000  0.5283790000000  0.5047090000000 1.0
C      1  0.4314310000000  0.4442290000000  0.5520520000000 1.0
C      1  0.4969650000000  0.5180290000000  0.4710460000000 1.0
C      1  0.3993190000000  0.4911240000000  0.5263350000000 1.0
C      1  0.5037860000000  0.6213770000000  0.4633950000000 1.0
C      1  0.3932550000000  0.5434980000000  0.4569700000000 1.0
C      1  0.5480350000000  0.4041590000000  0.5148380000000 1.0
C      1  0.4114300000000  0.5746360000000  0.5322880000000 1.0
C      1  0.3955240000000  0.4807110000000  0.5693820000000 1.0
C      1  0.4181370000000  0.5246460000000  0.4485990000000 1.0
C      1  0.5124880000000  0.5481380000000  0.4680560000000 1.0
C      1  0.5306400000000  0.5394930000000  0.5860360000000 1.0
C      1  0.4468680000000  0.5600520000000  0.4200450000000 1.0
C      1  0.5109290000000  0.5710630000000  0.5507520000000 1.0
C      1  0.5099420000000  0.4711200000000  0.5013500000000 1.0
C      1  0.4596620000000  0.4407360000000  0.5706780000000 1.0
C      1  0.4365000000000  0.4101060000000  0.4744650000000 1.0
C      1  0.4783030000000  0.5706500000000  0.4697830000000 1.0
C      1  0.4854880000000  0.5161130000000  0.5029980000000 1.0
C      1  0.4229530000000  0.4830560000000  0.5494080000000 1.0
C      1  0.4523090000000  0.5926070000000  0.4702370000000 1.0
C      1  0.4907220000000  0.4690140000000  0.4143300000000 1.0
C      1  0.4432850000000  0.4773330000000  0.4082460000000 1.0
C      1  0.4559710000000  0.4332730000000  0.3987850000000 1.0
C      1  0.4364420000000  0.5132510000000  0.4740500000000 1.0
C      1  0.4352280000000  0.6001820000000  0.4909430000000 1.0
C      1  0.4692100000000  0.4994440000000  0.5557050000000 1.0
C      1  0.5926000000000  0.4955470000000  0.5352820000000 1.0
C      1  0.4982100000000  0.5222390000000  0.4087000000000 1.0
C      1  0.4533250000000  0.4113900000000  0.5039960000000 1.0
C      1  0.5331990000000  0.4899930000000  0.5943160000000 1.0
C      1  0.4960450000000  0.4041540000000  0.5696260000000 1.0
C      1  0.4666410000000  0.4078190000000  0.5322350000000 1.0
C      1  0.4531190000000  0.5057610000000  0.4485230000000 1.0
C      1  0.4910930000000  0.4963380000000  0.5798950000000 1.0
C      1  0.5974290000000  0.5443690000000  0.4969360000000 1.0
C      1  0.5366420000000  0.5820340000000  0.5325830000000 1.0
C      1  0.4208590000000  0.4944120000000  0.4930620000000 1.0
C      1  0.4744270000000  0.5685090000000  0.5034980000000 1.0
C      1  0.3954140000000  0.5090020000000  0.5616960000000 1.0
C      1  0.5919610000000  0.5657800000000  0.5228060000000 1.0
C      1  0.4911070000000  0.4543450000000  0.5505450000000 1.0
C      1  0.4751900000000  0.5251550000000  0.4333020000000 1.0
C      1  0.5282900000000  0.4526440000000  0.5896790000000 1.0
C      1  0.5779560000000  0.5423180000000  0.5590120000000 1.0
C      1  0.5147720000000  0.6141740000000  0.4880070000000 1.0
C      1  0.5345980000000  0.5097790000000  0.4247960000000 1.0
C      1  0.4864050000000  0.5110360000000  0.3822930000000 1.0
C      1  0.4847230000000  0.4706860000000  0.5984150000000 1.0
C      1  0.4931000000000  0.3956060000000  0.4865680000000 1.0
C      1  0.4124810000000  0.5816530000000  0.4990350000000 1.0
C      1  0.5710020000000  0.5091510000000  0.5554730000000 1.0
C      1  0.4482450000000  0.6096670000000  0.5135880000000 1.0
C      1  0.4669740000000  0.4341330000000  0.4430440000000 1.0
C      1  0.5382050000000  0.5581130000000  0.5116330000000 1.0
C      1  0.5139850000000  0.5619400000000  0.4279770000000 1.0
C      1  0.4984670000000  0.5354410000000  0.5820660000000 1.0
C      1  0.4435800000000  0.5320350000000  0.5287910000000 1.0
C      1  0.4093790000000  0.5202850000000  0.5119890000000 1.0
C      1  0.5637280000000  0.4897100000000  0.4431870000000 1.0
C      1  0.5938520000000  0.4651480000000  0.5475320000000 1.0
C      1  0.6101380000000  0.5488160000000  0.4234320000000 1.0
C      1  0.4378790000000  0.4586150000000  0.4554510000000 1.0
C      1  0.5091940000000  0.5081510000000  0.5535170000000 1.0
C      1  0.5164150000000  0.5010650000000  0.6132370000000 1.0
C      1  0.5193280000000  0.5132210000000  0.5045830000000 1.0
C      1  0.5963740000000  0.4976000000000  0.4714340000000 1.0
C      1  0.6037450000000  0.4643090000000  0.4717280000000 1.0
C      1  0.4914920000000  0.4469560000000  0.5810780000000 1.0
C      1  0.5272680000000  0.4438390000000  0.4949500000000 1.0
C      1  0.4577050000000  0.4876930000000  0.5071030000000 1.0
C      1  0.4881690000000  0.4846710000000  0.5141250000000 1.0
C      1  0.5746980000000  0.4654410000000  0.5718560000000 1.0
C      1  0.5490240000000  0.5102820000000  0.4620600000000 1.0
C      1  0.4558470000000  0.5336560000000  0.4094120000000 1.0
C      1  0.4978000000000  0.5397750000000  0.5483370000000 1.0
C      1  0.5704890000000  0.4196090000000  0.5304670000000 1.0
C      1  0.4847950000000  0.4121810000000  0.4311150000000 1.0
C      1  0.4409410000000  0.5522300000000  0.4686120000000 1.0
C      1  0.5511330000000  0.5250900000000  0.6007060000000 1.0
C      1  0.5924280000000  0.4316470000000  0.5460510000000 1.0
C      1  0.5249420000000  0.4136430000000  0.5558690000000 1.0
C      1  0.5168480000000  0.5706870000000  0.5837340000000 1.0
C      1  0.5032810000000  0.4971240000000  0.4287670000000 1.0
C      1  0.4675730000000  0.4656920000000  0.4391230000000 1.0
C      1  0.4403470000000  0.5623530000000  0.5233530000000 1.0
C      1  0.5393370000000  0.5828150000000  0.4793670000000 1.0
C      1  0.6017300000000  0.4888810000000  0.5032050000000 1.0
C      1  0.4533240000000  0.4765620000000  0.5360450000000 1.0
C      1  0.5375360000000  0.4680400000000  0.4424670000000 1.0
C      1  0.4235660000000  0.5476900000000  0.4976650000000 1.0
C      1  0.4999800000000  0.5903450000000  0.5027690000000 1.0
C      1  0.5232960000000  0.3968820000000  0.4704140000000 1.0
C      1  0.4804330000000  0.4391720000000  0.4016910000000 1.0
C      1  0.4973330000000  0.4672040000000  0.4722340000000 1.0
C      1  0.5405750000000  0.5281700000000  0.5241030000000 1.0
C      1  0.5630620000000  0.5282130000000  0.4217770000000 1.0
C      1  0.5269560000000  0.4286730000000  0.5254030000000 1.0
C      1  0.5245640000000  0.4987040000000  0.4768280000000 1.0
C      1  0.5363420000000  0.4732730000000  0.5638770000000 1.0
C      1  0.3847160000000  0.4758210000000  0.5095070000000 1.0
C      1  0.4922370000000  0.4823350000000  0.5426060000000 1.0
C      1  0.4277660000000  0.5169090000000  0.5548290000000 1.0
C      1  0.5443860000000  0.4537910000000  0.5382820000000 1.0
C      1  0.4678080000000  0.5833490000000  0.4266370000000 1.0
C      1  0.4443280000000  0.4703390000000  0.4867080000000 1.0
C      1  0.5125740000000  0.5597620000000  0.4980800000000 1.0
C      1  0.4404350000000  0.4942270000000  0.5967840000000 1.0
C      1  0.4828830000000  0.4917390000000  0.4547170000000 1.0
C      1  0.5525650000000  0.4024330000000  0.4841190000000 1.0
C      1  0.6090220000000  0.5190050000000  0.5168680000000 1.0
C      1  0.5444210000000  0.4334890000000  0.4118330000000 1.0
C      1  0.4632790000000  0.3899020000000  0.4804430000000 1.0
C      1  0.4965080000000  0.4021160000000  0.5170510000000 1.0
C      1  0.4613040000000  0.4450180000000  0.5255710000000 1.0
C      1  0.4796950000000  0.4405440000000  0.4719600000000 1.0
C      1  0.3967090000000  0.5530490000000  0.5506120000000 1.0
C      1  0.5151620000000  0.4257120000000  0.5856060000000 1.0
C      1  0.5582540000000  0.4672540000000  0.5964190000000 1.0
C      1  0.4355690000000  0.4454030000000  0.4179380000000 1.0
C      1  0.5693640000000  0.5050980000000  0.4862370000000 1.0
C      1  0.4700870000000  0.4111120000000  0.5617850000000 1.0
C      1  0.5401240000000  0.5007020000000  0.5441450000000 1.0
C      1  0.4662980000000  0.5428820000000  0.5883980000000 1.0
C      1  0.5182190000000  0.5437050000000  0.4075250000000 1.0
C      1  0.4831960000000  0.5720940000000  0.5794630000000 1.0
C      1  0.4616620000000  0.5852200000000  0.5278230000000 1.0
C      1  0.5076900000000  0.4251830000000  0.4809990000000 1.0
C      1  0.4299090000000  0.5714130000000  0.5607000000000 1.0
C      1  0.4879720000000  0.5625540000000  0.4381920000000 1.0
C      1  0.5908510000000  0.5066200000000  0.4423220000000 1.0
C      1  0.5585990000000  0.3976280000000  0.4516920000000 1.0
C      1  0.5000250000000  0.6040660000000  0.5310600000000 1.0
C      1  0.5362780000000  0.4790520000000  0.5181690000000 1.0
C      1  0.5741660000000  0.4439830000000  0.4360410000000 1.0
C      1  0.4116760000000  0.4503560000000  0.4755050000000 1.0
END
