TITL C-2847959-7740-714 0.00381780448022015 125000 -368.755044138057 0 0 68 (C1) n - 1
REM
REM in /home/bkarasulu/work/CARBON/AIRSS/Generating-Clusters/AIREBO/with-SteepDescent/Only-C1/SD-CG-opt/Try1-1.4A-POS3A/HFTN-CG
REM
REM
REM
REM
REM
REM ./C.cell (11c1c37f851c82e70ff6c80c92926a4b)
REM
REM compiler GCC version 9.2.1 20190827 (Red Hat 9.2.1-1)
REM options -cpp -mtune=generic -march=x86-64 -g -O0 -fpre-include=/usr/include/finclude/math-vector-fortran.h
REM seed 1109891924 2065085593 -624872548 299301159 -216829904 729792176 -718818464 1890709004 -1989039137 -723291512 -1154805627 754813745 -331707672 -1651294263 -382606192 -1879606287 57222024 1302512062 110896218 1991896002 -1776532825 241166052 -290153592 968156427 1191914309 1602186915 -1953791493 -1104255982 -234586141 -507212581 -2038503185 -1504962541 -1830125424
REM
CELL 1.54180   50.00000   50.00000   50.00000   90.00000   90.00000   90.00000
LATT -1
SFAC C  
C      1  0.4819800000000  0.5397130000000  0.5624390000000 1.0
C      1  0.4860860000000  0.5638130000000  0.5386950000000 1.0
C      1  0.4412080000000  0.5207870000000  0.5358800000000 1.0
C      1  0.4439190000000  0.4421170000000  0.5265170000000 1.0
C      1  0.5090250000000  0.5785290000000  0.5202340000000 1.0
C      1  0.5098150000000  0.4242210000000  0.4827050000000 1.0
C      1  0.4970240000000  0.5418590000000  0.4770060000000 1.0
C      1  0.5423950000000  0.4622060000000  0.4831400000000 1.0
C      1  0.4959030000000  0.5352170000000  0.4327980000000 1.0
C      1  0.5665070000000  0.4985970000000  0.4649720000000 1.0
C      1  0.4630580000000  0.4473110000000  0.4667940000000 1.0
C      1  0.4694530000000  0.5731530000000  0.4983640000000 1.0
C      1  0.5324730000000  0.5473250000000  0.5459730000000 1.0
C      1  0.4641690000000  0.4587300000000  0.5048380000000 1.0
C      1  0.4659500000000  0.4639830000000  0.5591920000000 1.0
C      1  0.4967130000000  0.4472490000000  0.4608450000000 1.0
C      1  0.4722130000000  0.5106010000000  0.4942320000000 1.0
C      1  0.4730540000000  0.5438080000000  0.4554170000000 1.0
C      1  0.4311920000000  0.4716100000000  0.5223330000000 1.0
C      1  0.4672860000000  0.4208710000000  0.5170430000000 1.0
C      1  0.5513750000000  0.5238740000000  0.5563040000000 1.0
C      1  0.4957930000000  0.5858400000000  0.4957820000000 1.0
C      1  0.4943850000000  0.4562610000000  0.5004480000000 1.0
C      1  0.4541280000000  0.5602630000000  0.4773880000000 1.0
C      1  0.5280580000000  0.5397100000000  0.4440280000000 1.0
C      1  0.5415100000000  0.5175440000000  0.4997420000000 1.0
C      1  0.4794940000000  0.5416050000000  0.5061440000000 1.0
C      1  0.5026090000000  0.4937050000000  0.5640960000000 1.0
C      1  0.5326240000000  0.5570370000000  0.4673710000000 1.0
C      1  0.4622590000000  0.5397760000000  0.5353950000000 1.0
C      1  0.5353360000000  0.5650320000000  0.5178520000000 1.0
C      1  0.4771310000000  0.5068700000000  0.5581680000000 1.0
C      1  0.4556230000000  0.4294900000000  0.4895980000000 1.0
C      1  0.5536700000000  0.5015160000000  0.5730870000000 1.0
C      1  0.5060770000000  0.4791780000000  0.4220350000000 1.0
C      1  0.4761460000000  0.4885550000000  0.5152240000000 1.0
C      1  0.5119800000000  0.5257290000000  0.5628230000000 1.0
C      1  0.4891460000000  0.4561960000000  0.5646480000000 1.0
C      1  0.5496700000000  0.4768340000000  0.5576570000000 1.0
C      1  0.4979510000000  0.4259210000000  0.5137010000000 1.0
C      1  0.4579990000000  0.4942970000000  0.4536120000000 1.0
C      1  0.5529970000000  0.5091920000000  0.5279670000000 1.0
C      1  0.5647410000000  0.4810250000000  0.5316080000000 1.0
C      1  0.4684590000000  0.5151500000000  0.4287800000000 1.0
C      1  0.5321900000000  0.4776100000000  0.4365120000000 1.0
C      1  0.5681130000000  0.4781100000000  0.4834240000000 1.0
C      1  0.4539410000000  0.4895710000000  0.5402900000000 1.0
C      1  0.5290680000000  0.4561450000000  0.4552190000000 1.0
C      1  0.5098940000000  0.4528330000000  0.5307100000000 1.0
C      1  0.4865250000000  0.4988310000000  0.4674910000000 1.0
C      1  0.4296850000000  0.4742980000000  0.4921020000000 1.0
C      1  0.5210980000000  0.5111940000000  0.5334670000000 1.0
C      1  0.4484340000000  0.5300000000000  0.4834990000000 1.0
C      1  0.5412400000000  0.5489870000000  0.4944330000000 1.0
C      1  0.4464210000000  0.4708000000000  0.4677350000000 1.0
C      1  0.5058620000000  0.4859680000000  0.5242170000000 1.0
C      1  0.5201720000000  0.4683350000000  0.5577970000000 1.0
C      1  0.5263260000000  0.4873730000000  0.4988130000000 1.0
C      1  0.5081760000000  0.5734780000000  0.4729830000000 1.0
C      1  0.5801570000000  0.4746140000000  0.5089330000000 1.0
C      1  0.5375930000000  0.4301370000000  0.4842370000000 1.0
C      1  0.5031250000000  0.4757450000000  0.4782780000000 1.0
C      1  0.5370310000000  0.5078140000000  0.4516900000000 1.0
C      1  0.4918680000000  0.4561190000000  0.4283770000000 1.0
C      1  0.4449570000000  0.5250630000000  0.4510970000000 1.0
C      1  0.5064670000000  0.5390010000000  0.5257030000000 1.0
C      1  0.5187220000000  0.5202610000000  0.4775050000000 1.0
C      1  0.5043480000000  0.5054150000000  0.4426130000000 1.0
END
