TITL C-2847946-5639-274 -9.73023082957787e-08 125000 -184.187264161555 0 0 33 (C1) n - 1
REM
REM in /home/bkarasulu/work/CARBON/AIRSS/Generating-Clusters/AIREBO/with-SteepDescent/Only-C1/SD-CG-opt/Try1-1.4A-POS3A/HFTN-CG
REM
REM
REM
REM
REM
REM ./C.cell (11c1c37f851c82e70ff6c80c92926a4b)
REM
REM compiler GCC version 9.2.1 20190827 (Red Hat 9.2.1-1)
REM options -cpp -mtune=generic -march=x86-64 -g -O0 -fpre-include=/usr/include/finclude/math-vector-fortran.h
REM seed 925328016 -604637729 -617933806 1342853730 718259389 599615153 1945542651 -855704659 -2075769907 263185336 1599747391 307867757 -1828756909 162642110 836611968 -524980227 1168772649 -691452374 803039688 -599884011 1092690464 1450738470 947037554 457722344 -444899734 2052569503 1311624199 4487689 -1378407952 1888654223 824389842 1588824262 -1803852105
REM
CELL 1.54180   50.00000   50.00000   50.00000   90.00000   90.00000   90.00000
LATT -1
SFAC C  
C      1  0.4488460000000  0.5529950000000  0.5114620000000 1.0
C      1  0.4754560000000  0.4841350000000  0.5332020000000 1.0
C      1  0.5005940000000  0.4723980000000  0.5258170000000 1.0
C      1  0.5381830000000  0.5279680000000  0.4327500000000 1.0
C      1  0.5532170000000  0.4894500000000  0.4743420000000 1.0
C      1  0.5166530000000  0.4928980000000  0.5139350000000 1.0
C      1  0.5285430000000  0.5392310000000  0.3545820000000 1.0
C      1  0.5425920000000  0.5784220000000  0.4845640000000 1.0
C      1  0.5023420000000  0.5172550000000  0.5154470000000 1.0
C      1  0.4930640000000  0.4251190000000  0.5238730000000 1.0
C      1  0.5318250000000  0.5370010000000  0.4624940000000 1.0
C      1  0.4890700000000  0.3936400000000  0.5164690000000 1.0
C      1  0.4140600000000  0.4447310000000  0.5675460000000 1.0
C      1  0.5584520000000  0.4377390000000  0.5502210000000 1.0
C      1  0.4764940000000  0.5118180000000  0.5262010000000 1.0
C      1  0.3939560000000  0.4305030000000  0.5765130000000 1.0
C      1  0.4546360000000  0.4715880000000  0.5460230000000 1.0
C      1  0.5123300000000  0.5449780000000  0.5114060000000 1.0
C      1  0.5492200000000  0.5109820000000  0.4576300000000 1.0
C      1  0.5361250000000  0.5319330000000  0.4063100000000 1.0
C      1  0.4572810000000  0.5318330000000  0.5264550000000 1.0
C      1  0.4366910000000  0.5761260000000  0.4925530000000 1.0
C      1  0.5318930000000  0.5343950000000  0.3801250000000 1.0
C      1  0.4634780000000  0.4129730000000  0.5175980000000 1.0
C      1  0.5392460000000  0.4905760000000  0.4983650000000 1.0
C      1  0.5339610000000  0.4417890000000  0.5418120000000 1.0
C      1  0.4935160000000  0.5617700000000  0.4896730000000 1.0
C      1  0.5251920000000  0.5566810000000  0.4824810000000 1.0
C      1  0.4683150000000  0.5682180000000  0.4912440000000 1.0
C      1  0.5694800000000  0.4688970000000  0.4681460000000 1.0
C      1  0.4335020000000  0.4588540000000  0.5560510000000 1.0
C      1  0.5090480000000  0.4460230000000  0.5303670000000 1.0
C      1  0.5227400000000  0.5570820000000  0.5343400000000 1.0
END
