TITL C-2848504-8560-633 0.00341533017661568 125000 -793.839145162299 0 0 149 (C1) n - 1
REM
REM in /home/bkarasulu/work/CARBON/AIRSS/Generating-Clusters/AIREBO/with-SteepDescent/Only-C1/SD-CG-opt/Try1-1.4A-POS3A/HFTN-CG
REM
REM
REM
REM
REM
REM ./C.cell (11c1c37f851c82e70ff6c80c92926a4b)
REM
REM compiler GCC version 9.2.1 20190827 (Red Hat 9.2.1-1)
REM options -cpp -mtune=generic -march=x86-64 -g -O0 -fpre-include=/usr/include/finclude/math-vector-fortran.h
REM seed 928444970 860479830 1158239267 618117907 1847722944 -1173687723 -758293077 795932199 -975960247 -1931496566 -294231081 -1780364266 -1600389278 303224463 -1885724895 -1796876137 -1905998499 -1274233732 -1659809374 145205046 16484167 -1132901741 1047806917 -1576975999 -158985555 -1883526794 -294287516 -26947059 -2061261367 1438642305 961706004 1757900086 -298948996
REM
CELL 1.54180   50.00000   50.00000   50.00000   90.00000   90.00000   90.00000
LATT -1
SFAC C  
C      1  0.4939190000000  0.4653500000000  0.5249350000000 1.0
C      1  0.5253820000000  0.5360890000000  0.4639530000000 1.0
C      1  0.5731310000000  0.4729240000000  0.4809620000000 1.0
C      1  0.4567150000000  0.5389540000000  0.5639680000000 1.0
C      1  0.5664220000000  0.5436070000000  0.4513540000000 1.0
C      1  0.5724160000000  0.5052060000000  0.5472130000000 1.0
C      1  0.6011230000000  0.4950900000000  0.5215910000000 1.0
C      1  0.5452690000000  0.4598290000000  0.5402120000000 1.0
C      1  0.5592390000000  0.5281060000000  0.5548700000000 1.0
C      1  0.5996540000000  0.4410520000000  0.4862380000000 1.0
C      1  0.5505410000000  0.5463480000000  0.5293050000000 1.0
C      1  0.4497660000000  0.4883630000000  0.5407170000000 1.0
C      1  0.5843650000000  0.4392980000000  0.4627830000000 1.0
C      1  0.4158690000000  0.5178470000000  0.4983290000000 1.0
C      1  0.4963210000000  0.4952320000000  0.4942940000000 1.0
C      1  0.5140040000000  0.4711100000000  0.4084430000000 1.0
C      1  0.5209310000000  0.3997970000000  0.4902940000000 1.0
C      1  0.4532570000000  0.4481770000000  0.4551350000000 1.0
C      1  0.4723080000000  0.4220520000000  0.4511880000000 1.0
C      1  0.5128370000000  0.4469940000000  0.4566440000000 1.0
C      1  0.5158430000000  0.4289620000000  0.5170640000000 1.0
C      1  0.5209200000000  0.4223300000000  0.5485500000000 1.0
C      1  0.4576180000000  0.5220380000000  0.4322800000000 1.0
C      1  0.4251050000000  0.4854900000000  0.5603460000000 1.0
C      1  0.5383120000000  0.4927440000000  0.5117670000000 1.0
C      1  0.4520900000000  0.5462390000000  0.5123360000000 1.0
C      1  0.5431430000000  0.5028120000000  0.4488590000000 1.0
C      1  0.5799920000000  0.5491590000000  0.5157610000000 1.0
C      1  0.5251980000000  0.5978410000000  0.4650440000000 1.0
C      1  0.5739630000000  0.5758830000000  0.4941260000000 1.0
C      1  0.4425300000000  0.4613750000000  0.5690480000000 1.0
C      1  0.5231810000000  0.4152250000000  0.4630390000000 1.0
C      1  0.4438480000000  0.4642790000000  0.4289770000000 1.0
C      1  0.4859790000000  0.5502040000000  0.5508020000000 1.0
C      1  0.5127890000000  0.5330290000000  0.5631430000000 1.0
C      1  0.5376420000000  0.5171660000000  0.5734540000000 1.0
C      1  0.4913740000000  0.5236970000000  0.4804960000000 1.0
C      1  0.4639580000000  0.5419540000000  0.5960950000000 1.0
C      1  0.5025600000000  0.5343090000000  0.6017410000000 1.0
C      1  0.4744380000000  0.4169300000000  0.4789320000000 1.0
C      1  0.4888550000000  0.4975830000000  0.5273930000000 1.0
C      1  0.5372260000000  0.4812330000000  0.4251320000000 1.0
C      1  0.5450650000000  0.4542600000000  0.4854730000000 1.0
C      1  0.4088420000000  0.4991980000000  0.4528250000000 1.0
C      1  0.4416240000000  0.5674020000000  0.5530380000000 1.0
C      1  0.4122570000000  0.5107310000000  0.5604270000000 1.0
C      1  0.5221750000000  0.4880600000000  0.6069770000000 1.0
C      1  0.4842770000000  0.4198530000000  0.5258560000000 1.0
C      1  0.5775070000000  0.5127550000000  0.4952740000000 1.0
C      1  0.5743380000000  0.4512550000000  0.5275530000000 1.0
C      1  0.6045020000000  0.5265450000000  0.5091210000000 1.0
C      1  0.5391790000000  0.4851430000000  0.5620910000000 1.0
C      1  0.5580530000000  0.4382020000000  0.5619700000000 1.0
C      1  0.5035110000000  0.5674220000000  0.4115050000000 1.0
C      1  0.4662800000000  0.5186590000000  0.5131460000000 1.0
C      1  0.5914280000000  0.5265600000000  0.4608350000000 1.0
C      1  0.4414660000000  0.5673260000000  0.4523840000000 1.0
C      1  0.5407260000000  0.4634160000000  0.4529940000000 1.0
C      1  0.4160170000000  0.4498930000000  0.5105760000000 1.0
C      1  0.5189300000000  0.5373300000000  0.4078910000000 1.0
C      1  0.4714740000000  0.4767380000000  0.4550830000000 1.0
C      1  0.5290670000000  0.5179480000000  0.4924190000000 1.0
C      1  0.4505710000000  0.4399590000000  0.5361370000000 1.0
C      1  0.5930680000000  0.4714790000000  0.5447630000000 1.0
C      1  0.5686870000000  0.5019950000000  0.4668410000000 1.0
C      1  0.5479340000000  0.5552590000000  0.4730470000000 1.0
C      1  0.4822160000000  0.4986340000000  0.4341660000000 1.0
C      1  0.4896370000000  0.4872390000000  0.4064820000000 1.0
C      1  0.4665310000000  0.5398460000000  0.4669510000000 1.0
C      1  0.4927770000000  0.5190870000000  0.4017000000000 1.0
C      1  0.4326110000000  0.5774950000000  0.5266760000000 1.0
C      1  0.5924840000000  0.5483000000000  0.4847130000000 1.0
C      1  0.4922260000000  0.5744640000000  0.5721870000000 1.0
C      1  0.4709460000000  0.4634180000000  0.5499690000000 1.0
C      1  0.4305970000000  0.4787020000000  0.4672950000000 1.0
C      1  0.4562640000000  0.5849050000000  0.5032250000000 1.0
C      1  0.4251690000000  0.4850840000000  0.4283220000000 1.0
C      1  0.4233700000000  0.4386010000000  0.5338280000000 1.0
C      1  0.4521270000000  0.4838760000000  0.4890380000000 1.0
C      1  0.4938470000000  0.4655180000000  0.4779190000000 1.0
C      1  0.5837100000000  0.4892400000000  0.4213350000000 1.0
C      1  0.5614380000000  0.4323570000000  0.5056900000000 1.0
C      1  0.5255880000000  0.4612210000000  0.5125160000000 1.0
C      1  0.4587700000000  0.5067800000000  0.4647630000000 1.0
C      1  0.4522550000000  0.5893500000000  0.4695960000000 1.0
C      1  0.4900170000000  0.5145240000000  0.5771100000000 1.0
C      1  0.5248760000000  0.5149860000000  0.6011890000000 1.0
C      1  0.5004880000000  0.5523270000000  0.4955060000000 1.0
C      1  0.4702120000000  0.4618100000000  0.5020790000000 1.0
C      1  0.5193160000000  0.4973560000000  0.4693100000000 1.0
C      1  0.5206960000000  0.5007010000000  0.5381620000000 1.0
C      1  0.4137070000000  0.5292260000000  0.4535940000000 1.0
C      1  0.4359790000000  0.4428720000000  0.4839630000000 1.0
C      1  0.5432220000000  0.5705560000000  0.5500520000000 1.0
C      1  0.5427180000000  0.5675240000000  0.5046450000000 1.0
C      1  0.4044650000000  0.5233000000000  0.5358610000000 1.0
C      1  0.3948570000000  0.4881180000000  0.4817720000000 1.0
C      1  0.4367040000000  0.5055840000000  0.4133860000000 1.0
C      1  0.4426360000000  0.5531930000000  0.4832880000000 1.0
C      1  0.5209860000000  0.5643440000000  0.5638560000000 1.0
C      1  0.4113130000000  0.4786170000000  0.5095110000000 1.0
C      1  0.4696690000000  0.5095420000000  0.5528130000000 1.0
C      1  0.5510670000000  0.5878360000000  0.4719130000000 1.0
C      1  0.5136210000000  0.4460410000000  0.4226650000000 1.0
C      1  0.5120030000000  0.5802840000000  0.5110590000000 1.0
C      1  0.4267930000000  0.5287430000000  0.5764800000000 1.0
C      1  0.4816130000000  0.5772880000000  0.4818170000000 1.0
C      1  0.5425900000000  0.4304320000000  0.5808620000000 1.0
C      1  0.5546820000000  0.4284680000000  0.4654890000000 1.0
C      1  0.4872490000000  0.5613510000000  0.6000260000000 1.0
C      1  0.4717500000000  0.5698230000000  0.5269470000000 1.0
C      1  0.4823880000000  0.5435690000000  0.4233880000000 1.0
C      1  0.5112970000000  0.5830080000000  0.4438420000000 1.0
C      1  0.4974140000000  0.5871550000000  0.5410010000000 1.0
C      1  0.4593390000000  0.4297210000000  0.5049220000000 1.0
C      1  0.4634110000000  0.4680040000000  0.4097590000000 1.0
C      1  0.3894480000000  0.5045580000000  0.5117750000000 1.0
C      1  0.5014630000000  0.5173080000000  0.4486620000000 1.0
C      1  0.5425470000000  0.4106140000000  0.5079440000000 1.0
C      1  0.4963540000000  0.4339990000000  0.4904560000000 1.0
C      1  0.5190280000000  0.5511810000000  0.4373200000000 1.0
C      1  0.5513490000000  0.5281220000000  0.4334330000000 1.0
C      1  0.4212900000000  0.5454300000000  0.5267630000000 1.0
C      1  0.4613450000000  0.5169310000000  0.6090300000000 1.0
C      1  0.4970370000000  0.4137500000000  0.4413170000000 1.0
C      1  0.4385470000000  0.4989880000000  0.5129300000000 1.0
C      1  0.4835630000000  0.4327180000000  0.5574270000000 1.0
C      1  0.4933950000000  0.5366640000000  0.5218410000000 1.0
C      1  0.5863180000000  0.4706170000000  0.4496770000000 1.0
C      1  0.5416370000000  0.4373180000000  0.4310760000000 1.0
C      1  0.5594490000000  0.4964170000000  0.4106790000000 1.0
C      1  0.4861040000000  0.4808060000000  0.5751350000000 1.0
C      1  0.4426790000000  0.4026240000000  0.5111400000000 1.0
C      1  0.5116470000000  0.4395280000000  0.5753670000000 1.0
C      1  0.5726980000000  0.4822770000000  0.5671670000000 1.0
C      1  0.5671860000000  0.4946800000000  0.5184440000000 1.0
C      1  0.4968170000000  0.3962050000000  0.5048090000000 1.0
C      1  0.4675800000000  0.4915210000000  0.6007130000000 1.0
C      1  0.4563700000000  0.4364410000000  0.5754940000000 1.0
C      1  0.5147840000000  0.4700620000000  0.5806800000000 1.0
C      1  0.4172980000000  0.5372390000000  0.4798600000000 1.0
C      1  0.5929640000000  0.4670960000000  0.5052760000000 1.0
C      1  0.4837690000000  0.5641020000000  0.4505220000000 1.0
C      1  0.5477630000000  0.5239130000000  0.4031370000000 1.0
C      1  0.5063580000000  0.6002360000000  0.4859580000000 1.0
C      1  0.4339220000000  0.5428950000000  0.4392410000000 1.0
C      1  0.4069170000000  0.4567280000000  0.4729950000000 1.0
C      1  0.5239570000000  0.5285630000000  0.5213780000000 1.0
C      1  0.6017650000000  0.5007570000000  0.4446810000000 1.0
END
