TITL C-2847956-8218-265 0.00120753088888905 125000 -536.708824368066 0 0 101 (C1) n - 1
REM
REM in /home/bkarasulu/work/CARBON/AIRSS/Generating-Clusters/AIREBO/with-SteepDescent/Only-C1/SD-CG-opt/Try1-1.4A-POS3A/HFTN-CG
REM
REM
REM
REM
REM
REM ./C.cell (11c1c37f851c82e70ff6c80c92926a4b)
REM
REM compiler GCC version 9.2.1 20190827 (Red Hat 9.2.1-1)
REM options -cpp -mtune=generic -march=x86-64 -g -O0 -fpre-include=/usr/include/finclude/math-vector-fortran.h
REM seed -34767949 -406445341 -828700756 -1557438385 727185013 -1030071812 1327875776 -137291426 -941609021 -1573976746 -1072093578 -1729110698 -2099288766 799512698 620799305 1942624763 117836152 -1260622184 -274447896 1213485478 1133662778 445002593 954234197 15595069 1513612904 657078066 -888832313 1320957611 1441478623 -379879677 -1282997850 1075148190 1392748603
REM
CELL 1.54180   50.00000   50.00000   50.00000   90.00000   90.00000   90.00000
LATT -1
SFAC C  
C      1  0.5029630000000  0.4399760000000  0.5761000000000 1.0
C      1  0.4049300000000  0.5261860000000  0.4704680000000 1.0
C      1  0.5512550000000  0.4553780000000  0.5096110000000 1.0
C      1  0.4821600000000  0.4586800000000  0.4822650000000 1.0
C      1  0.5122360000000  0.5559720000000  0.4943870000000 1.0
C      1  0.5384760000000  0.5771760000000  0.5211050000000 1.0
C      1  0.4247230000000  0.4869880000000  0.5259250000000 1.0
C      1  0.4459800000000  0.4269350000000  0.5063500000000 1.0
C      1  0.4535480000000  0.4547860000000  0.4956630000000 1.0
C      1  0.5305650000000  0.5800310000000  0.4820680000000 1.0
C      1  0.4577640000000  0.5059060000000  0.5552130000000 1.0
C      1  0.5652770000000  0.4857310000000  0.4520880000000 1.0
C      1  0.5393380000000  0.5134520000000  0.4150740000000 1.0
C      1  0.5732640000000  0.5163750000000  0.5094080000000 1.0
C      1  0.5658390000000  0.4641560000000  0.5390460000000 1.0
C      1  0.5753320000000  0.5401680000000  0.4857530000000 1.0
C      1  0.4914180000000  0.5231280000000  0.4224410000000 1.0
C      1  0.4932540000000  0.4166040000000  0.4992450000000 1.0
C      1  0.4316420000000  0.5437690000000  0.4651950000000 1.0
C      1  0.5130870000000  0.5412110000000  0.5856820000000 1.0
C      1  0.5030890000000  0.5596290000000  0.5269300000000 1.0
C      1  0.5676970000000  0.5291000000000  0.5362490000000 1.0
C      1  0.5095630000000  0.4667780000000  0.5472490000000 1.0
C      1  0.4401590000000  0.5531770000000  0.5396110000000 1.0
C      1  0.5249500000000  0.4072950000000  0.5072950000000 1.0
C      1  0.5159360000000  0.5177720000000  0.5260950000000 1.0
C      1  0.4764510000000  0.5280380000000  0.4525770000000 1.0
C      1  0.4380790000000  0.4281230000000  0.5334870000000 1.0
C      1  0.4650820000000  0.4170610000000  0.4857050000000 1.0
C      1  0.5503250000000  0.5511530000000  0.5055960000000 1.0
C      1  0.4124170000000  0.4800000000000  0.5003570000000 1.0
C      1  0.5090790000000  0.5232510000000  0.4608890000000 1.0
C      1  0.4814990000000  0.5402540000000  0.5165630000000 1.0
C      1  0.5288780000000  0.4903460000000  0.5375860000000 1.0
C      1  0.5398420000000  0.5271360000000  0.5483870000000 1.0
C      1  0.5390090000000  0.4275200000000  0.5249280000000 1.0
C      1  0.4174420000000  0.5317780000000  0.5471700000000 1.0
C      1  0.4497500000000  0.5428190000000  0.4375570000000 1.0
C      1  0.4920760000000  0.4724700000000  0.4272640000000 1.0
C      1  0.5458720000000  0.4749300000000  0.5620060000000 1.0
C      1  0.5118180000000  0.5893200000000  0.5160610000000 1.0
C      1  0.4804310000000  0.4348490000000  0.5532200000000 1.0
C      1  0.5024820000000  0.5526650000000  0.4348130000000 1.0
C      1  0.4978810000000  0.4927990000000  0.5961690000000 1.0
C      1  0.4922390000000  0.5081110000000  0.4833700000000 1.0
C      1  0.4267760000000  0.5057810000000  0.5461320000000 1.0
C      1  0.4353210000000  0.5116220000000  0.4755830000000 1.0
C      1  0.5978690000000  0.4929520000000  0.5079030000000 1.0
C      1  0.4943550000000  0.4379680000000  0.5240640000000 1.0
C      1  0.4610350000000  0.5754020000000  0.5549720000000 1.0
C      1  0.4918510000000  0.4719190000000  0.5752990000000 1.0
C      1  0.4758550000000  0.4927610000000  0.5074320000000 1.0
C      1  0.5144240000000  0.4841430000000  0.4585280000000 1.0
C      1  0.4668610000000  0.4445440000000  0.4407820000000 1.0
C      1  0.5021270000000  0.5193240000000  0.5971420000000 1.0
C      1  0.5585500000000  0.5689440000000  0.4778180000000 1.0
C      1  0.4830970000000  0.5124400000000  0.5333770000000 1.0
C      1  0.5542250000000  0.4505530000000  0.4285540000000 1.0
C      1  0.5430570000000  0.5059910000000  0.5713860000000 1.0
C      1  0.5391990000000  0.5323490000000  0.4637470000000 1.0
C      1  0.4474810000000  0.5648230000000  0.4868020000000 1.0
C      1  0.5429800000000  0.4440080000000  0.4794850000000 1.0
C      1  0.5205000000000  0.4235960000000  0.4798380000000 1.0
C      1  0.4641320000000  0.5655210000000  0.4582400000000 1.0
C      1  0.4970600000000  0.4379610000000  0.4658920000000 1.0
C      1  0.5300030000000  0.5405720000000  0.4320420000000 1.0
C      1  0.5853290000000  0.4894030000000  0.4769130000000 1.0
C      1  0.4521760000000  0.4737180000000  0.5217850000000 1.0
C      1  0.4487390000000  0.4883560000000  0.4599290000000 1.0
C      1  0.5596400000000  0.5162460000000  0.4418630000000 1.0
C      1  0.5297350000000  0.4945410000000  0.4859500000000 1.0
C      1  0.4724410000000  0.5881400000000  0.4822270000000 1.0
C      1  0.4996600000000  0.5932780000000  0.4879150000000 1.0
C      1  0.5326260000000  0.4539790000000  0.5799100000000 1.0
C      1  0.4958610000000  0.4653460000000  0.5097110000000 1.0
C      1  0.5155260000000  0.5489510000000  0.5537400000000 1.0
C      1  0.4993180000000  0.4418680000000  0.4351840000000 1.0
C      1  0.4314800000000  0.4722980000000  0.4817060000000 1.0
C      1  0.5822430000000  0.5194740000000  0.4643860000000 1.0
C      1  0.5227690000000  0.4599750000000  0.4196480000000 1.0
C      1  0.4511390000000  0.5154240000000  0.5017350000000 1.0
C      1  0.4625980000000  0.5363040000000  0.5579380000000 1.0
C      1  0.4782780000000  0.5386410000000  0.4841950000000 1.0
C      1  0.5468920000000  0.4833120000000  0.4231600000000 1.0
C      1  0.4533060000000  0.4431670000000  0.5528540000000 1.0
C      1  0.5110790000000  0.4998380000000  0.4285370000000 1.0
C      1  0.5284360000000  0.5271240000000  0.4955930000000 1.0
C      1  0.5597680000000  0.4867990000000  0.4984240000000 1.0
C      1  0.4492400000000  0.4735680000000  0.5615860000000 1.0
C      1  0.4596690000000  0.5106100000000  0.4286800000000 1.0
C      1  0.4585010000000  0.4231570000000  0.4572770000000 1.0
C      1  0.4777450000000  0.4735990000000  0.5442000000000 1.0
C      1  0.4810820000000  0.4838010000000  0.4652540000000 1.0
C      1  0.5196390000000  0.4358790000000  0.5467500000000 1.0
C      1  0.4503400000000  0.5473310000000  0.5113190000000 1.0
C      1  0.4847760000000  0.5567960000000  0.5623640000000 1.0
C      1  0.4957220000000  0.5606620000000  0.4650260000000 1.0
C      1  0.4606280000000  0.4768460000000  0.4313790000000 1.0
C      1  0.5869860000000  0.5408360000000  0.5497360000000 1.0
C      1  0.5236250000000  0.4750750000000  0.5107350000000 1.0
C      1  0.5411530000000  0.4635020000000  0.4571530000000 1.0
END
