TITL C-2847956-8218-169 -0.000929675763517217 125000 -270.353114664022 0 0 50 (C1) n - 1
REM
REM in /home/bkarasulu/work/CARBON/AIRSS/Generating-Clusters/AIREBO/with-SteepDescent/Only-C1/SD-CG-opt/Try1-1.4A-POS3A/HFTN-CG
REM
REM
REM
REM
REM
REM ./C.cell (11c1c37f851c82e70ff6c80c92926a4b)
REM
REM compiler GCC version 9.2.1 20190827 (Red Hat 9.2.1-1)
REM options -cpp -mtune=generic -march=x86-64 -g -O0 -fpre-include=/usr/include/finclude/math-vector-fortran.h
REM seed 55926618 -1512618498 -1151016472 -726756864 1129932872 545291881 1354550558 1773514393 1656271824 518620558 -455515734 -161446909 683321891 -1674190021 -1453907623 1083731582 -1532920072 -242827771 134177486 1236797365 -700041554 -2008690004 -1309960179 2085215005 1081911396 -1373610628 -480897305 1529275618 1056723571 217302070 -1679832694 -637840893 1989156342
REM
CELL 1.54180   50.00000   50.00000   50.00000   90.00000   90.00000   90.00000
LATT -1
SFAC C  
C      1  0.5100870000000  0.4751580000000  0.4410830000000 1.0
C      1  0.4432470000000  0.4547410000000  0.5217020000000 1.0
C      1  0.5096210000000  0.4888610000000  0.5277010000000 1.0
C      1  0.4778910000000  0.5089650000000  0.4381680000000 1.0
C      1  0.5599930000000  0.4910660000000  0.5264180000000 1.0
C      1  0.5301970000000  0.5441280000000  0.5139550000000 1.0
C      1  0.5351700000000  0.4511820000000  0.5030450000000 1.0
C      1  0.5133340000000  0.5027930000000  0.4215040000000 1.0
C      1  0.4979980000000  0.5243090000000  0.5694460000000 1.0
C      1  0.5139650000000  0.5021820000000  0.4609890000000 1.0
C      1  0.5361260000000  0.4407330000000  0.4742340000000 1.0
C      1  0.4958890000000  0.4479560000000  0.5091250000000 1.0
C      1  0.5043270000000  0.5282040000000  0.4422290000000 1.0
C      1  0.5200160000000  0.4456400000000  0.5329740000000 1.0
C      1  0.5111060000000  0.5095220000000  0.5884400000000 1.0
C      1  0.4551870000000  0.5385830000000  0.4631370000000 1.0
C      1  0.4536880000000  0.4976630000000  0.5128900000000 1.0
C      1  0.5449900000000  0.5130770000000  0.4593660000000 1.0
C      1  0.5714230000000  0.5271390000000  0.4948990000000 1.0
C      1  0.5471830000000  0.4857040000000  0.4758530000000 1.0
C      1  0.4883500000000  0.4572950000000  0.5388950000000 1.0
C      1  0.4797040000000  0.4814110000000  0.4551540000000 1.0
C      1  0.4455700000000  0.5248300000000  0.5410660000000 1.0
C      1  0.4849110000000  0.5661250000000  0.4875140000000 1.0
C      1  0.5538680000000  0.5248910000000  0.5228830000000 1.0
C      1  0.4807660000000  0.5575990000000  0.5144650000000 1.0
C      1  0.5048040000000  0.5471210000000  0.5271430000000 1.0
C      1  0.4491490000000  0.5237430000000  0.4942310000000 1.0
C      1  0.4562540000000  0.5430490000000  0.5196090000000 1.0
C      1  0.4978620000000  0.4984930000000  0.4905010000000 1.0
C      1  0.5528870000000  0.5355520000000  0.4739200000000 1.0
C      1  0.4359800000000  0.5041810000000  0.4697240000000 1.0
C      1  0.4596760000000  0.4649530000000  0.5436120000000 1.0
C      1  0.4461400000000  0.4714790000000  0.4977650000000 1.0
C      1  0.4537080000000  0.4948070000000  0.5460100000000 1.0
C      1  0.4493600000000  0.4790650000000  0.4698820000000 1.0
C      1  0.4973500000000  0.5241860000000  0.5417330000000 1.0
C      1  0.5265200000000  0.4835720000000  0.5019320000000 1.0
C      1  0.4872410000000  0.4346530000000  0.4816700000000 1.0
C      1  0.5473800000000  0.4661160000000  0.5310470000000 1.0
C      1  0.4847570000000  0.4676990000000  0.4844880000000 1.0
C      1  0.5097450000000  0.4765000000000  0.5555450000000 1.0
C      1  0.5356480000000  0.4635700000000  0.4572240000000 1.0
C      1  0.5182030000000  0.4841280000000  0.5804900000000 1.0
C      1  0.5679010000000  0.4970790000000  0.4980670000000 1.0
C      1  0.4834960000000  0.5037760000000  0.5208680000000 1.0
C      1  0.4553300000000  0.5245800000000  0.4396950000000 1.0
C      1  0.4807870000000  0.5266860000000  0.4820980000000 1.0
C      1  0.5308020000000  0.5484960000000  0.4855290000000 1.0
C      1  0.5044140000000  0.5467570000000  0.4700820000000 1.0
END
