TITL C-2847955-7945-58 189.474943230416 125000 -180.602621431378 0 0 33 (C1) n - 1
REM
REM in /home/bkarasulu/work/CARBON/AIRSS/Generating-Clusters/AIREBO/with-SteepDescent/Only-C1/SD-CG-opt/Try1-1.4A-POS3A/HFTN-CG
REM
REM
REM
REM
REM
REM ./C.cell (11c1c37f851c82e70ff6c80c92926a4b)
REM
REM compiler GCC version 9.2.1 20190827 (Red Hat 9.2.1-1)
REM options -cpp -mtune=generic -march=x86-64 -g -O0 -fpre-include=/usr/include/finclude/math-vector-fortran.h
REM seed -1505422546 -216910565 -1844616499 -548290686 -2056677849 -1015736309 1915510770 1977369755 -65584225 -1752016621 1995927941 1351478562 774423188 -2078641203 1965785531 -1276886708 1985092205 1123520864 1110653316 1790004189 1288452140 565656307 -1049090256 -1666067976 686972245 1660082720 1832687450 420854804 272997229 2095622930 1822141392 -2120404897 2001212058
REM
CELL 1.54180   50.00000   50.00000   50.00000   90.00000   90.00000   90.00000
LATT -1
SFAC C  
C      1  0.4333930000000  0.5322710000000  0.4723200000000 1.0
C      1  0.5270260000000  0.5522640000000  0.4804370000000 1.0
C      1  0.5515570000000  0.4897910000000  0.4851890000000 1.0
C      1  0.4249080000000  0.4870190000000  0.5482280000000 1.0
C      1  0.5641570000000  0.4292060000000  0.5042970000000 1.0
C      1  0.5179220000000  0.4197310000000  0.4931400000000 1.0
C      1  0.4666780000000  0.4090620000000  0.4837070000000 1.0
C      1  0.5061440000000  0.4824440000000  0.4988050000000 1.0
C      1  0.4801270000000  0.5509310000000  0.5020780000000 1.0
C      1  0.4729090000000  0.4892760000000  0.5450250000000 1.0
C      1  0.5346790000000  0.5592650000000  0.5119100000000 1.0
C      1  0.5191220000000  0.5828130000000  0.5308700000000 1.0
C      1  0.4760550000000  0.4571540000000  0.4551260000000 1.0
C      1  0.4469170000000  0.5156410000000  0.5163630000000 1.0
C      1  0.4917070000000  0.4953830000000  0.4784450000000 1.0
C      1  0.4857970000000  0.4823650000000  0.4544510000000 1.0
C      1  0.4956950000000  0.5611450000000  0.5206500000000 1.0
C      1  0.4979520000000  0.4854890000000  0.5249730000000 1.0
C      1  0.5032300000000  0.5468250000000  0.4699150000000 1.0
C      1  0.5320870000000  0.4715880000000  0.4933720000000 1.0
C      1  0.4521430000000  0.5247610000000  0.4908010000000 1.0
C      1  0.5630280000000  0.5140380000000  0.4891330000000 1.0
C      1  0.5161690000000  0.5259290000000  0.5580150000000 1.0
C      1  0.5002910000000  0.5054020000000  0.5496330000000 1.0
C      1  0.4916550000000  0.4143470000000  0.4896400000000 1.0
C      1  0.5448830000000  0.4058310000000  0.4997730000000 1.0
C      1  0.4473020000000  0.4969050000000  0.5370360000000 1.0
C      1  0.4898260000000  0.4951570000000  0.4309840000000 1.0
C      1  0.5203580000000  0.5502020000000  0.5413850000000 1.0
C      1  0.4745340000000  0.5611120000000  0.4718620000000 1.0
C      1  0.5522060000000  0.5385820000000  0.4932430000000 1.0
C      1  0.5371080000000  0.4446760000000  0.4970360000000 1.0
C      1  0.4824330000000  0.5233970000000  0.4821620000000 1.0
END
