TITL C-2847950-6905-67 0.000909380865880339 125000 -285.840207270054 0 0 54 (C1) n - 1
REM
REM in /home/bkarasulu/work/CARBON/AIRSS/Generating-Clusters/AIREBO/with-SteepDescent/Only-C1/SD-CG-opt/Try1-1.4A-POS3A/HFTN-CG
REM
REM
REM
REM
REM
REM ./C.cell (11c1c37f851c82e70ff6c80c92926a4b)
REM
REM compiler GCC version 9.2.1 20190827 (Red Hat 9.2.1-1)
REM options -cpp -mtune=generic -march=x86-64 -g -O0 -fpre-include=/usr/include/finclude/math-vector-fortran.h
REM seed -408562804 -957457218 627313586 1811971743 1247105602 -150728812 626747765 -1870936426 1215286767 573589321 541936556 -984245460 1786961251 -2058731788 1786544468 1441859756 1607785589 1259621798 639460085 169290011 239198112 2135801082 -1652090684 480465251 1891143661 -2045532258 822256014 -1121636731 446723017 -521914813 -314076879 397160784 -131787329
REM
CELL 1.54180   50.00000   50.00000   50.00000   90.00000   90.00000   90.00000
LATT -1
SFAC C  
C      1  0.5319120000000  0.4644680000000  0.4735390000000 1.0
C      1  0.5433770000000  0.5199270000000  0.4612190000000 1.0
C      1  0.4295640000000  0.4898960000000  0.4568330000000 1.0
C      1  0.5694430000000  0.4462880000000  0.4453150000000 1.0
C      1  0.4280680000000  0.5624200000000  0.4890580000000 1.0
C      1  0.5249140000000  0.4983490000000  0.4994280000000 1.0
C      1  0.4979860000000  0.5176430000000  0.4557100000000 1.0
C      1  0.4415680000000  0.4705190000000  0.5083890000000 1.0
C      1  0.5108780000000  0.5071090000000  0.5731940000000 1.0
C      1  0.4785540000000  0.4905830000000  0.4819450000000 1.0
C      1  0.4193020000000  0.5118680000000  0.5029530000000 1.0
C      1  0.5351950000000  0.5877060000000  0.4853950000000 1.0
C      1  0.5530060000000  0.5668230000000  0.4859720000000 1.0
C      1  0.4647820000000  0.5268270000000  0.5108020000000 1.0
C      1  0.5039710000000  0.4522550000000  0.4612930000000 1.0
C      1  0.4694300000000  0.4621350000000  0.4981810000000 1.0
C      1  0.5642780000000  0.4374190000000  0.5173840000000 1.0
C      1  0.5228260000000  0.4659900000000  0.5453470000000 1.0
C      1  0.5097430000000  0.5378470000000  0.5126570000000 1.0
C      1  0.4519660000000  0.5132520000000  0.4440060000000 1.0
C      1  0.5106930000000  0.5347610000000  0.4787840000000 1.0
C      1  0.5475320000000  0.5170380000000  0.5125400000000 1.0
C      1  0.4547580000000  0.5046200000000  0.4728970000000 1.0
C      1  0.4864230000000  0.4367880000000  0.5132110000000 1.0
C      1  0.5431860000000  0.5377910000000  0.4883510000000 1.0
C      1  0.4865760000000  0.4396510000000  0.4792760000000 1.0
C      1  0.4817410000000  0.5077840000000  0.5599990000000 1.0
C      1  0.4459240000000  0.4852020000000  0.5331090000000 1.0
C      1  0.5781160000000  0.4704390000000  0.4877490000000 1.0
C      1  0.5303610000000  0.5463160000000  0.5456470000000 1.0
C      1  0.4734480000000  0.4826780000000  0.5453420000000 1.0
C      1  0.5002120000000  0.4844280000000  0.4599560000000 1.0
C      1  0.4777590000000  0.5233870000000  0.4373040000000 1.0
C      1  0.5697180000000  0.4656780000000  0.5144640000000 1.0
C      1  0.5083380000000  0.5847700000000  0.4797430000000 1.0
C      1  0.5402120000000  0.4321500000000  0.5040100000000 1.0
C      1  0.5018030000000  0.4409380000000  0.5356040000000 1.0
C      1  0.4930910000000  0.4758650000000  0.5183790000000 1.0
C      1  0.4933250000000  0.5086800000000  0.5066510000000 1.0
C      1  0.4710390000000  0.5561990000000  0.4983300000000 1.0
C      1  0.5611410000000  0.4587990000000  0.4681350000000 1.0
C      1  0.5437460000000  0.5196130000000  0.5398290000000 1.0
C      1  0.4937700000000  0.5613960000000  0.4847260000000 1.0
C      1  0.4245400000000  0.4858940000000  0.4902330000000 1.0
C      1  0.4917190000000  0.4607080000000  0.5569060000000 1.0
C      1  0.5422620000000  0.4782330000000  0.5206610000000 1.0
C      1  0.4135920000000  0.4761030000000  0.4395810000000 1.0
C      1  0.5194600000000  0.4592050000000  0.5047900000000 1.0
C      1  0.4356250000000  0.5377120000000  0.4971000000000 1.0
C      1  0.5321980000000  0.4974680000000  0.5541490000000 1.0
C      1  0.5234020000000  0.5665950000000  0.5246460000000 1.0
C      1  0.5293110000000  0.4963420000000  0.4683490000000 1.0
C      1  0.4397640000000  0.5121690000000  0.5270440000000 1.0
C      1  0.5044520000000  0.5252760000000  0.5438850000000 1.0
END
