TITL C-2847954-6904-665 0.00106559838183036 125000 -974.93725571949 0 0 185 (C1) n - 1
REM
REM in /home/bkarasulu/work/CARBON/AIRSS/Generating-Clusters/AIREBO/with-SteepDescent/Only-C1/SD-CG-opt/Try1-1.4A-POS3A/HFTN-CG
REM
REM
REM
REM
REM
REM ./C.cell (11c1c37f851c82e70ff6c80c92926a4b)
REM
REM compiler GCC version 9.2.1 20190827 (Red Hat 9.2.1-1)
REM options -cpp -mtune=generic -march=x86-64 -g -O0 -fpre-include=/usr/include/finclude/math-vector-fortran.h
REM seed -1079905165 -1750466331 -1646381599 1884033592 998196938 -1872885389 1744434474 1617537263 -1076294211 -762065971 326008419 -799462940 -1251360549 1300521165 -2133914634 -1173688721 497112975 1550915941 1179271250 107684980 -1347432853 478045697 145341170 475539774 336873183 1179794433 -650201526 2125055636 -61886868 53532153 -1479528580 -1956554326 -985985765
REM
CELL 1.54180   50.00000   50.00000   50.00000   90.00000   90.00000   90.00000
LATT -1
SFAC C  
C      1  0.4556410000000  0.5025840000000  0.5971040000000 1.0
C      1  0.5226020000000  0.5274010000000  0.4647640000000 1.0
C      1  0.5167520000000  0.4529360000000  0.4129580000000 1.0
C      1  0.5631200000000  0.5673650000000  0.5462850000000 1.0
C      1  0.4965080000000  0.4152170000000  0.5500410000000 1.0
C      1  0.4500610000000  0.5244660000000  0.4418950000000 1.0
C      1  0.4716450000000  0.5089330000000  0.4631200000000 1.0
C      1  0.4555010000000  0.6078130000000  0.4615930000000 1.0
C      1  0.3940000000000  0.5062810000000  0.4934730000000 1.0
C      1  0.6032990000000  0.5357810000000  0.4950600000000 1.0
C      1  0.5991640000000  0.5451790000000  0.4634790000000 1.0
C      1  0.5377790000000  0.5059710000000  0.4863900000000 1.0
C      1  0.5052770000000  0.5984980000000  0.5423450000000 1.0
C      1  0.4765930000000  0.4022460000000  0.5062880000000 1.0
C      1  0.4769250000000  0.5182810000000  0.3904950000000 1.0
C      1  0.5537080000000  0.5359680000000  0.4883990000000 1.0
C      1  0.5390600000000  0.4824900000000  0.5116410000000 1.0
C      1  0.5739920000000  0.4133340000000  0.5056570000000 1.0
C      1  0.4610300000000  0.5625390000000  0.4209290000000 1.0
C      1  0.4792830000000  0.4263740000000  0.4295580000000 1.0
C      1  0.4958300000000  0.4373700000000  0.4555960000000 1.0
C      1  0.5535760000000  0.5639560000000  0.4432390000000 1.0
C      1  0.5538720000000  0.4308500000000  0.4616710000000 1.0
C      1  0.5822700000000  0.4682640000000  0.4277930000000 1.0
C      1  0.4152320000000  0.5231750000000  0.4225360000000 1.0
C      1  0.5848700000000  0.5074430000000  0.4987350000000 1.0
C      1  0.3906680000000  0.4532240000000  0.4926510000000 1.0
C      1  0.4542360000000  0.4981580000000  0.5660610000000 1.0
C      1  0.4637540000000  0.5324400000000  0.4115760000000 1.0
C      1  0.4984810000000  0.4649880000000  0.5590170000000 1.0
C      1  0.5967090000000  0.4989540000000  0.4536360000000 1.0
C      1  0.5106660000000  0.5983960000000  0.4949100000000 1.0
C      1  0.4360040000000  0.5198970000000  0.5523740000000 1.0
C      1  0.4316640000000  0.5493960000000  0.4278750000000 1.0
C      1  0.4291350000000  0.5624690000000  0.5125150000000 1.0
C      1  0.3985470000000  0.4832240000000  0.5423130000000 1.0
C      1  0.4663980000000  0.5604710000000  0.4766090000000 1.0
C      1  0.4903120000000  0.3918020000000  0.4721530000000 1.0
C      1  0.5037690000000  0.4668610000000  0.5981930000000 1.0
C      1  0.4467880000000  0.4462480000000  0.4753720000000 1.0
C      1  0.5742880000000  0.5265990000000  0.5210120000000 1.0
C      1  0.5842410000000  0.5793160000000  0.5020740000000 1.0
C      1  0.5675050000000  0.4977030000000  0.4362570000000 1.0
C      1  0.5491400000000  0.4564460000000  0.4926370000000 1.0
C      1  0.4025930000000  0.5611620000000  0.5308110000000 1.0
C      1  0.5251320000000  0.5480720000000  0.4378670000000 1.0
C      1  0.4412300000000  0.5380530000000  0.4717930000000 1.0
C      1  0.4764600000000  0.3795610000000  0.5277030000000 1.0
C      1  0.4166090000000  0.4216520000000  0.5193790000000 1.0
C      1  0.5248340000000  0.4341560000000  0.5009900000000 1.0
C      1  0.4336740000000  0.4838030000000  0.4941400000000 1.0
C      1  0.5859550000000  0.4640680000000  0.5324460000000 1.0
C      1  0.4082830000000  0.4343730000000  0.5432590000000 1.0
C      1  0.4808310000000  0.4524650000000  0.5044750000000 1.0
C      1  0.4941000000000  0.5544090000000  0.5574390000000 1.0
C      1  0.5762490000000  0.4467310000000  0.5601570000000 1.0
C      1  0.5488900000000  0.4018400000000  0.5334550000000 1.0
C      1  0.4906420000000  0.6059770000000  0.5146440000000 1.0
C      1  0.4399390000000  0.5821660000000  0.5380420000000 1.0
C      1  0.4594960000000  0.4785150000000  0.4135500000000 1.0
C      1  0.5368220000000  0.4108890000000  0.4707610000000 1.0
C      1  0.4428180000000  0.4690390000000  0.5547510000000 1.0
C      1  0.5349440000000  0.4694740000000  0.4007330000000 1.0
C      1  0.5671050000000  0.4211310000000  0.5536430000000 1.0
C      1  0.5043570000000  0.5951760000000  0.4682210000000 1.0
C      1  0.4401620000000  0.5458630000000  0.6065620000000 1.0
C      1  0.5258610000000  0.5599140000000  0.4742090000000 1.0
C      1  0.4517640000000  0.5394680000000  0.5112690000000 1.0
C      1  0.4846960000000  0.5606510000000  0.5052690000000 1.0
C      1  0.4717330000000  0.4599460000000  0.4600920000000 1.0
C      1  0.5110450000000  0.4102190000000  0.4601720000000 1.0
C      1  0.5610450000000  0.5308320000000  0.4413390000000 1.0
C      1  0.5047340000000  0.4517760000000  0.4850810000000 1.0
C      1  0.4131900000000  0.4611400000000  0.5525750000000 1.0
C      1  0.5168630000000  0.5748190000000  0.5723160000000 1.0
C      1  0.4108100000000  0.4293000000000  0.4777260000000 1.0
C      1  0.4899250000000  0.3856060000000  0.5484890000000 1.0
C      1  0.5819430000000  0.4323040000000  0.4623240000000 1.0
C      1  0.5765900000000  0.4764580000000  0.4944050000000 1.0
C      1  0.5312690000000  0.4607560000000  0.5366170000000 1.0
C      1  0.5403040000000  0.4592660000000  0.4599130000000 1.0
C      1  0.4475980000000  0.5868810000000  0.4868740000000 1.0
C      1  0.5326580000000  0.4995470000000  0.3867170000000 1.0
C      1  0.4391330000000  0.5119370000000  0.5219990000000 1.0
C      1  0.5161800000000  0.5063840000000  0.4388070000000 1.0
C      1  0.4627230000000  0.4475390000000  0.5625300000000 1.0
C      1  0.4832810000000  0.4998840000000  0.3682500000000 1.0
C      1  0.5941530000000  0.5275340000000  0.4342760000000 1.0
C      1  0.4814130000000  0.5180040000000  0.5288030000000 1.0
C      1  0.4606950000000  0.5260510000000  0.6100970000000 1.0
C      1  0.4376430000000  0.4999220000000  0.4216350000000 1.0
C      1  0.5069150000000  0.5141410000000  0.6005160000000 1.0
C      1  0.4945040000000  0.4386850000000  0.4045650000000 1.0
C      1  0.3901430000000  0.4819600000000  0.5109610000000 1.0
C      1  0.5064610000000  0.5406790000000  0.5318580000000 1.0
C      1  0.5671770000000  0.4406460000000  0.5165600000000 1.0
C      1  0.5149140000000  0.4601180000000  0.4423600000000 1.0
C      1  0.5196300000000  0.5352540000000  0.5691620000000 1.0
C      1  0.5110390000000  0.4925300000000  0.5236320000000 1.0
C      1  0.4712920000000  0.4308080000000  0.5442240000000 1.0
C      1  0.4096550000000  0.5464110000000  0.4708780000000 1.0
C      1  0.5637690000000  0.4576700000000  0.5829830000000 1.0
C      1  0.4491720000000  0.4827130000000  0.5245500000000 1.0
C      1  0.4155990000000  0.4588610000000  0.4268990000000 1.0
C      1  0.4076040000000  0.4785910000000  0.4479720000000 1.0
C      1  0.4759320000000  0.5695500000000  0.5893050000000 1.0
C      1  0.4879320000000  0.4876000000000  0.4179080000000 1.0
C      1  0.6019490000000  0.4733160000000  0.4719980000000 1.0
C      1  0.4933000000000  0.5541310000000  0.4275620000000 1.0
C      1  0.5498030000000  0.5838050000000  0.4776970000000 1.0
C      1  0.5612470000000  0.5572110000000  0.5138790000000 1.0
C      1  0.5940400000000  0.5214900000000  0.5471060000000 1.0
C      1  0.4429330000000  0.4907340000000  0.4621600000000 1.0
C      1  0.5176490000000  0.5540190000000  0.5975120000000 1.0
C      1  0.4389620000000  0.4338550000000  0.4310060000000 1.0
C      1  0.4840170000000  0.5407050000000  0.4552750000000 1.0
C      1  0.5699820000000  0.5296140000000  0.4085470000000 1.0
C      1  0.5768560000000  0.5202160000000  0.4695100000000 1.0
C      1  0.5403170000000  0.4963140000000  0.4197170000000 1.0
C      1  0.4168390000000  0.4609910000000  0.5129190000000 1.0
C      1  0.4390190000000  0.4196540000000  0.4587450000000 1.0
C      1  0.5348330000000  0.4153020000000  0.5603240000000 1.0
C      1  0.5192780000000  0.5436260000000  0.4072350000000 1.0
C      1  0.4931740000000  0.4850510000000  0.4519220000000 1.0
C      1  0.5285750000000  0.5855860000000  0.4511970000000 1.0
C      1  0.4090560000000  0.5581380000000  0.5553810000000 1.0
C      1  0.4803020000000  0.4782430000000  0.5263350000000 1.0
C      1  0.5349970000000  0.5120940000000  0.6000120000000 1.0
C      1  0.3945520000000  0.5223670000000  0.4676140000000 1.0
C      1  0.5328990000000  0.4557510000000  0.5975120000000 1.0
C      1  0.4696130000000  0.5554860000000  0.5353780000000 1.0
C      1  0.5090480000000  0.5721640000000  0.5248720000000 1.0
C      1  0.4970150000000  0.5349590000000  0.4861650000000 1.0
C      1  0.5186240000000  0.5223700000000  0.5092010000000 1.0
C      1  0.4579630000000  0.5973240000000  0.5138700000000 1.0
C      1  0.5098500000000  0.4036600000000  0.4993180000000 1.0
C      1  0.5129580000000  0.4837560000000  0.4795460000000 1.0
C      1  0.5776810000000  0.5221540000000  0.5761490000000 1.0
C      1  0.5010350000000  0.5184000000000  0.4119840000000 1.0
C      1  0.5216750000000  0.4312620000000  0.5333380000000 1.0
C      1  0.5436130000000  0.5168840000000  0.5320310000000 1.0
C      1  0.4851990000000  0.4854590000000  0.4939810000000 1.0
C      1  0.5103540000000  0.4356080000000  0.5713520000000 1.0
C      1  0.5521450000000  0.4873870000000  0.4624700000000 1.0
C      1  0.4459600000000  0.4657560000000  0.4405930000000 1.0
C      1  0.4952210000000  0.4928990000000  0.5873330000000 1.0
C      1  0.4270040000000  0.4035490000000  0.4925410000000 1.0
C      1  0.5410950000000  0.5855660000000  0.5575660000000 1.0
C      1  0.5505010000000  0.4887830000000  0.5864930000000 1.0
C      1  0.4169630000000  0.4624460000000  0.4731520000000 1.0
C      1  0.4617590000000  0.4466690000000  0.4092910000000 1.0
C      1  0.4484870000000  0.5625150000000  0.5850610000000 1.0
C      1  0.5641980000000  0.4898190000000  0.5324640000000 1.0
C      1  0.4710140000000  0.5156280000000  0.4964820000000 1.0
C      1  0.5434560000000  0.3989220000000  0.5016220000000 1.0
C      1  0.5491100000000  0.5355700000000  0.5861120000000 1.0
C      1  0.4402780000000  0.4388970000000  0.5052080000000 1.0
C      1  0.4189640000000  0.5708620000000  0.4845610000000 1.0
C      1  0.5929340000000  0.4545290000000  0.4490680000000 1.0
C      1  0.4862400000000  0.4964300000000  0.5547000000000 1.0
C      1  0.5704730000000  0.5595110000000  0.4704010000000 1.0
C      1  0.4884140000000  0.5408620000000  0.6027630000000 1.0
C      1  0.5022030000000  0.4875570000000  0.3869480000000 1.0
C      1  0.4064260000000  0.5066580000000  0.4464930000000 1.0
C      1  0.6012140000000  0.5573060000000  0.5134350000000 1.0
C      1  0.5748430000000  0.4909170000000  0.5639320000000 1.0
C      1  0.4056490000000  0.5077930000000  0.5525950000000 1.0
C      1  0.4250530000000  0.5166680000000  0.4927460000000 1.0
C      1  0.4423710000000  0.5531580000000  0.5556370000000 1.0
C      1  0.6045500000000  0.4889120000000  0.5475110000000 1.0
C      1  0.5296970000000  0.4702950000000  0.5669410000000 1.0
C      1  0.5927820000000  0.4286600000000  0.4884290000000 1.0
C      1  0.5346110000000  0.6126690000000  0.5477930000000 1.0
C      1  0.4820540000000  0.4471170000000  0.5862790000000 1.0
C      1  0.5345250000000  0.5771570000000  0.5071710000000 1.0
C      1  0.4664640000000  0.4293970000000  0.5158040000000 1.0
C      1  0.5943250000000  0.5541590000000  0.5411380000000 1.0
C      1  0.4659530000000  0.6010800000000  0.5471050000000 1.0
C      1  0.4783890000000  0.5887370000000  0.4615410000000 1.0
C      1  0.4580220000000  0.4000620000000  0.4790350000000 1.0
C      1  0.6024670000000  0.4577020000000  0.5033720000000 1.0
C      1  0.5567540000000  0.5384080000000  0.5548380000000 1.0
C      1  0.4874840000000  0.5917200000000  0.5695130000000 1.0
C      1  0.5428710000000  0.5285500000000  0.3935870000000 1.0
C      1  0.5178610000000  0.5087830000000  0.5527080000000 1.0
END
