TITL C-2847946-5639-218 -0.000241388615128026 125000 -436.953814252131 0 0 78 (C1) n - 1
REM
REM in /home/bkarasulu/work/CARBON/AIRSS/Generating-Clusters/AIREBO/with-SteepDescent/Only-C1/SD-CG-opt/Try1-1.4A-POS3A/HFTN-CG
REM
REM
REM
REM
REM
REM ./C.cell (11c1c37f851c82e70ff6c80c92926a4b)
REM
REM compiler GCC version 9.2.1 20190827 (Red Hat 9.2.1-1)
REM options -cpp -mtune=generic -march=x86-64 -g -O0 -fpre-include=/usr/include/finclude/math-vector-fortran.h
REM seed -1860987833 -1097288156 -1859761263 705021359 1676658612 695857796 -305992081 887837948 1051438226 1577823390 1469083669 1823164110 -1771622332 -1632819830 1476405668 568340815 1347854654 979209284 468423178 -866504405 -859929918 1104431507 984895360 -394628650 571453854 1847946410 -1582911573 -1423886646 -1416197673 -1277320829 -1613760435 -104873368 -296910524
REM
CELL 1.54180   50.00000   50.00000   50.00000   90.00000   90.00000   90.00000
LATT -1
SFAC C  
C      1  0.4987850000000  0.5646600000000  0.5502800000000 1.0
C      1  0.5310260000000  0.4888240000000  0.5199560000000 1.0
C      1  0.4637770000000  0.4353550000000  0.4545670000000 1.0
C      1  0.5193590000000  0.4698930000000  0.4998980000000 1.0
C      1  0.5153170000000  0.4778200000000  0.4447590000000 1.0
C      1  0.5274620000000  0.5303490000000  0.4983840000000 1.0
C      1  0.5135520000000  0.5363990000000  0.5266550000000 1.0
C      1  0.5768900000000  0.4482400000000  0.5097400000000 1.0
C      1  0.5177270000000  0.5177380000000  0.4717630000000 1.0
C      1  0.4387120000000  0.5423180000000  0.5048260000000 1.0
C      1  0.4479440000000  0.5066930000000  0.4888580000000 1.0
C      1  0.4986260000000  0.4537490000000  0.4323240000000 1.0
C      1  0.4776840000000  0.5431310000000  0.5531510000000 1.0
C      1  0.5089440000000  0.4887990000000  0.4739450000000 1.0
C      1  0.4539450000000  0.4767410000000  0.4803650000000 1.0
C      1  0.5267160000000  0.5473990000000  0.5561110000000 1.0
C      1  0.5714470000000  0.4717070000000  0.4899120000000 1.0
C      1  0.5110190000000  0.4255440000000  0.4696260000000 1.0
C      1  0.5585510000000  0.4965960000000  0.5070870000000 1.0
C      1  0.4942990000000  0.5152330000000  0.5574950000000 1.0
C      1  0.4510910000000  0.4875480000000  0.5418260000000 1.0
C      1  0.5021920000000  0.4273460000000  0.4980800000000 1.0
C      1  0.5766020000000  0.5245210000000  0.4758330000000 1.0
C      1  0.5337630000000  0.4983220000000  0.5699220000000 1.0
C      1  0.4821720000000  0.4820780000000  0.4929220000000 1.0
C      1  0.5188500000000  0.4749630000000  0.5759130000000 1.0
C      1  0.4828900000000  0.5085550000000  0.5091360000000 1.0
C      1  0.4600700000000  0.4559540000000  0.5504990000000 1.0
C      1  0.5068280000000  0.5499350000000  0.4706950000000 1.0
C      1  0.5349200000000  0.5241850000000  0.4453390000000 1.0
C      1  0.4750190000000  0.4217020000000  0.5177370000000 1.0
C      1  0.4889480000000  0.5579470000000  0.4476860000000 1.0
C      1  0.4787840000000  0.5189470000000  0.4628610000000 1.0
C      1  0.4633280000000  0.5765910000000  0.4814950000000 1.0
C      1  0.4941570000000  0.4699860000000  0.5657350000000 1.0
C      1  0.6008800000000  0.4448780000000  0.5222870000000 1.0
C      1  0.5603970000000  0.5278590000000  0.5015650000000 1.0
C      1  0.4528090000000  0.4361840000000  0.5164960000000 1.0
C      1  0.4540700000000  0.5097830000000  0.5221710000000 1.0
C      1  0.4583800000000  0.5226490000000  0.5725220000000 1.0
C      1  0.5065100000000  0.5064180000000  0.5294770000000 1.0
C      1  0.4987970000000  0.5488010000000  0.4240330000000 1.0
C      1  0.5009470000000  0.4208250000000  0.5372720000000 1.0
C      1  0.5505340000000  0.5563270000000  0.5173510000000 1.0
C      1  0.4923880000000  0.4313950000000  0.4495640000000 1.0
C      1  0.4872100000000  0.5333390000000  0.4920400000000 1.0
C      1  0.4587470000000  0.5628290000000  0.5075860000000 1.0
C      1  0.5462690000000  0.5031030000000  0.5445790000000 1.0
C      1  0.5523430000000  0.4341930000000  0.5155090000000 1.0
C      1  0.4480810000000  0.5296100000000  0.4637240000000 1.0
C      1  0.4306990000000  0.5335580000000  0.5652640000000 1.0
C      1  0.4926250000000  0.4569730000000  0.5112880000000 1.0
C      1  0.4767900000000  0.4755050000000  0.4354630000000 1.0
C      1  0.4337270000000  0.4609430000000  0.5308180000000 1.0
C      1  0.5340030000000  0.5617750000000  0.4874590000000 1.0
C      1  0.5394650000000  0.4344670000000  0.4664070000000 1.0
C      1  0.5265970000000  0.4199940000000  0.5210670000000 1.0
C      1  0.4930300000000  0.5031920000000  0.4403100000000 1.0
C      1  0.5119610000000  0.5240030000000  0.4271200000000 1.0
C      1  0.5194890000000  0.5694310000000  0.5237310000000 1.0
C      1  0.5192330000000  0.5230120000000  0.5767310000000 1.0
C      1  0.4424840000000  0.5719630000000  0.4366010000000 1.0
C      1  0.4587520000000  0.5594590000000  0.4559820000000 1.0
C      1  0.4183070000000  0.5215110000000  0.5005130000000 1.0
C      1  0.4927790000000  0.5642040000000  0.5052160000000 1.0
C      1  0.4383600000000  0.4580160000000  0.4981290000000 1.0
C      1  0.5574360000000  0.4587400000000  0.4617650000000 1.0
C      1  0.5766900000000  0.4937730000000  0.4662880000000 1.0
C      1  0.5463350000000  0.4747950000000  0.4429060000000 1.0
C      1  0.5507140000000  0.5311250000000  0.5401850000000 1.0
C      1  0.4577640000000  0.4639340000000  0.4534300000000 1.0
C      1  0.4489990000000  0.5376700000000  0.5368990000000 1.0
C      1  0.4720500000000  0.4925840000000  0.5666180000000 1.0
C      1  0.4889850000000  0.4504810000000  0.5417140000000 1.0
C      1  0.5611810000000  0.5163260000000  0.4487330000000 1.0
C      1  0.5368310000000  0.4472450000000  0.4937690000000 1.0
C      1  0.4159170000000  0.5208900000000  0.4700990000000 1.0
C      1  0.4890370000000  0.5904710000000  0.4839420000000 1.0
END
