TITL C-2848502-4955-207 6.7186143177309e-06 125000 -914.305682222009 0 0 168 (C1) n - 1
REM
REM in /home/bkarasulu/work/CARBON/AIRSS/Generating-Clusters/AIREBO/with-SteepDescent/Only-C1/SD-CG-opt/Try1-1.4A-POS3A/HFTN-CG
REM
REM
REM
REM
REM
REM ./C.cell (11c1c37f851c82e70ff6c80c92926a4b)
REM
REM compiler GCC version 9.2.1 20190827 (Red Hat 9.2.1-1)
REM options -cpp -mtune=generic -march=x86-64 -g -O0 -fpre-include=/usr/include/finclude/math-vector-fortran.h
REM seed -303166397 964721716 918323318 454133072 110730887 714785166 -339882222 2106389310 -696596129 -1884820106 -338771780 -1668291424 1039683630 -126837914 -1875808961 229055828 -723221550 -1169702988 739623752 112257969 291942598 1038287526 1306620439 2141608098 1856252804 746886821 -1003950414 1254066581 216310101 -929292997 10796698 -1431482598 -1517096392
REM
CELL 1.54180   50.00000   50.00000   50.00000   90.00000   90.00000   90.00000
LATT -1
SFAC C  
C      1  0.5192610000000  0.5128680000000  0.6071600000000 1.0
C      1  0.5138330000000  0.4653360000000  0.3973420000000 1.0
C      1  0.5186650000000  0.5704150000000  0.5623780000000 1.0
C      1  0.5289640000000  0.4844970000000  0.4432550000000 1.0
C      1  0.5675580000000  0.4867390000000  0.5320660000000 1.0
C      1  0.5430170000000  0.5110450000000  0.5111320000000 1.0
C      1  0.5038790000000  0.4079650000000  0.4973860000000 1.0
C      1  0.5043010000000  0.4903750000000  0.5878140000000 1.0
C      1  0.4281630000000  0.5293510000000  0.4160380000000 1.0
C      1  0.5462270000000  0.4765360000000  0.5811300000000 1.0
C      1  0.4657280000000  0.5549640000000  0.4309770000000 1.0
C      1  0.3901360000000  0.5105200000000  0.4521980000000 1.0
C      1  0.5332630000000  0.5248280000000  0.4690330000000 1.0
C      1  0.4484650000000  0.4635160000000  0.4130720000000 1.0
C      1  0.5613800000000  0.5760470000000  0.5380430000000 1.0
C      1  0.4340740000000  0.4770660000000  0.4646520000000 1.0
C      1  0.5708300000000  0.5078100000000  0.5795730000000 1.0
C      1  0.5452710000000  0.5410420000000  0.5672580000000 1.0
C      1  0.4397000000000  0.5339950000000  0.5108050000000 1.0
C      1  0.6052940000000  0.5573450000000  0.4533000000000 1.0
C      1  0.5167410000000  0.5571900000000  0.4445740000000 1.0
C      1  0.4895020000000  0.5368270000000  0.4464450000000 1.0
C      1  0.5384500000000  0.5698820000000  0.4675350000000 1.0
C      1  0.5708930000000  0.5782990000000  0.5093850000000 1.0
C      1  0.4013170000000  0.5009420000000  0.5310890000000 1.0
C      1  0.4792480000000  0.5918640000000  0.5480130000000 1.0
C      1  0.4102680000000  0.5048580000000  0.4288250000000 1.0
C      1  0.4801410000000  0.4755080000000  0.4157900000000 1.0
C      1  0.4594710000000  0.4550190000000  0.4430060000000 1.0
C      1  0.5813120000000  0.5365160000000  0.4654400000000 1.0
C      1  0.4189580000000  0.5709950000000  0.4498740000000 1.0
C      1  0.5590840000000  0.4766880000000  0.4590920000000 1.0
C      1  0.5434620000000  0.5903750000000  0.4932160000000 1.0
C      1  0.4874500000000  0.4712070000000  0.5344330000000 1.0
C      1  0.5856890000000  0.5015590000000  0.5074020000000 1.0
C      1  0.4670310000000  0.4651120000000  0.5609360000000 1.0
C      1  0.3900090000000  0.5258380000000  0.4812160000000 1.0
C      1  0.4661120000000  0.4159160000000  0.4478710000000 1.0
C      1  0.4794440000000  0.5053130000000  0.4544200000000 1.0
C      1  0.5689810000000  0.5484050000000  0.5481040000000 1.0
C      1  0.5478040000000  0.5014530000000  0.6037680000000 1.0
C      1  0.4608920000000  0.4989440000000  0.4265090000000 1.0
C      1  0.4553490000000  0.5211360000000  0.4071870000000 1.0
C      1  0.5594670000000  0.4227490000000  0.4920680000000 1.0
C      1  0.4807880000000  0.4713500000000  0.4555310000000 1.0
C      1  0.4287290000000  0.5247600000000  0.5477450000000 1.0
C      1  0.4687580000000  0.5273750000000  0.5224450000000 1.0
C      1  0.4937360000000  0.4607340000000  0.5815690000000 1.0
C      1  0.5271640000000  0.4940700000000  0.4750720000000 1.0
C      1  0.4756490000000  0.5259170000000  0.5827420000000 1.0
C      1  0.4822230000000  0.5635500000000  0.5938780000000 1.0
C      1  0.5993250000000  0.4909080000000  0.5434490000000 1.0
C      1  0.5804260000000  0.4320440000000  0.4669510000000 1.0
C      1  0.5879890000000  0.5299890000000  0.5621490000000 1.0
C      1  0.4811770000000  0.5365570000000  0.4068690000000 1.0
C      1  0.5476760000000  0.4061270000000  0.4690300000000 1.0
C      1  0.4030550000000  0.4650530000000  0.4721740000000 1.0
C      1  0.4539910000000  0.5885880000000  0.4754810000000 1.0
C      1  0.5103840000000  0.3880040000000  0.5412590000000 1.0
C      1  0.5623390000000  0.5551010000000  0.4867080000000 1.0
C      1  0.4729100000000  0.4246960000000  0.5445840000000 1.0
C      1  0.5499200000000  0.4981140000000  0.5551960000000 1.0
C      1  0.5077290000000  0.5196880000000  0.4108150000000 1.0
C      1  0.4153330000000  0.5667540000000  0.4973280000000 1.0
C      1  0.4733010000000  0.5706170000000  0.4600500000000 1.0
C      1  0.4378260000000  0.4789390000000  0.5517010000000 1.0
C      1  0.4920240000000  0.5805260000000  0.5711570000000 1.0
C      1  0.4070930000000  0.5582300000000  0.5496600000000 1.0
C      1  0.5191770000000  0.4925000000000  0.5233120000000 1.0
C      1  0.5726470000000  0.4468440000000  0.5341230000000 1.0
C      1  0.4270980000000  0.5797840000000  0.4756500000000 1.0
C      1  0.5137220000000  0.5989150000000  0.4791110000000 1.0
C      1  0.4148570000000  0.4842030000000  0.5051660000000 1.0
C      1  0.4493650000000  0.4336780000000  0.5223090000000 1.0
C      1  0.5199770000000  0.5842130000000  0.5157570000000 1.0
C      1  0.5238530000000  0.5456610000000  0.4820300000000 1.0
C      1  0.5108580000000  0.3830630000000  0.5163260000000 1.0
C      1  0.5212970000000  0.4606950000000  0.4794680000000 1.0
C      1  0.4957830000000  0.6035430000000  0.5278950000000 1.0
C      1  0.5538040000000  0.5316800000000  0.4485410000000 1.0
C      1  0.5900560000000  0.5054970000000  0.4545680000000 1.0
C      1  0.5080450000000  0.5420170000000  0.5993750000000 1.0
C      1  0.5553540000000  0.5423520000000  0.5174390000000 1.0
C      1  0.6051000000000  0.4982540000000  0.4796730000000 1.0
C      1  0.5177690000000  0.4585630000000  0.5251210000000 1.0
C      1  0.5100150000000  0.4434670000000  0.4525350000000 1.0
C      1  0.5019950000000  0.5830660000000  0.4584560000000 1.0
C      1  0.4953060000000  0.6114920000000  0.4966690000000 1.0
C      1  0.4874090000000  0.5285840000000  0.4986940000000 1.0
C      1  0.4996440000000  0.4501620000000  0.4213490000000 1.0
C      1  0.4905360000000  0.4723490000000  0.4880900000000 1.0
C      1  0.5882400000000  0.4534010000000  0.4880700000000 1.0
C      1  0.4845750000000  0.4314370000000  0.4632760000000 1.0
C      1  0.5544160000000  0.4559460000000  0.4856340000000 1.0
C      1  0.4357230000000  0.5474410000000  0.4395650000000 1.0
C      1  0.4098020000000  0.4909520000000  0.5567770000000 1.0
C      1  0.5849730000000  0.4809070000000  0.5677900000000 1.0
C      1  0.4254600000000  0.4800810000000  0.4111060000000 1.0
C      1  0.5296700000000  0.4916080000000  0.4027430000000 1.0
C      1  0.4309410000000  0.5376430000000  0.5791350000000 1.0
C      1  0.4427100000000  0.5278110000000  0.4645530000000 1.0
C      1  0.4678400000000  0.4847660000000  0.5101880000000 1.0
C      1  0.4119250000000  0.5128470000000  0.5767840000000 1.0
C      1  0.4327360000000  0.4455960000000  0.4544710000000 1.0
C      1  0.4022070000000  0.5325470000000  0.5279220000000 1.0
C      1  0.5342670000000  0.5805430000000  0.5423530000000 1.0
C      1  0.4053410000000  0.4566480000000  0.5226900000000 1.0
C      1  0.5720940000000  0.4845050000000  0.4082590000000 1.0
C      1  0.4443600000000  0.4063290000000  0.5027040000000 1.0
C      1  0.4498430000000  0.5025500000000  0.5329310000000 1.0
C      1  0.5768220000000  0.4442720000000  0.4422080000000 1.0
C      1  0.4475140000000  0.4059000000000  0.4677350000000 1.0
C      1  0.4804760000000  0.4307600000000  0.5773470000000 1.0
C      1  0.4021980000000  0.4433860000000  0.4459830000000 1.0
C      1  0.5764960000000  0.5128530000000  0.4245540000000 1.0
C      1  0.5041080000000  0.4181110000000  0.5480620000000 1.0
C      1  0.5242460000000  0.5203910000000  0.5539620000000 1.0
C      1  0.4376740000000  0.4340170000000  0.4841340000000 1.0
C      1  0.4328370000000  0.5098620000000  0.4918390000000 1.0
C      1  0.6067800000000  0.4747980000000  0.5042350000000 1.0
C      1  0.5982320000000  0.5621600000000  0.5080970000000 1.0
C      1  0.5034330000000  0.5025290000000  0.4969840000000 1.0
C      1  0.6057240000000  0.5179610000000  0.5433800000000 1.0
C      1  0.6041510000000  0.5292390000000  0.5146720000000 1.0
C      1  0.5294300000000  0.5418670000000  0.4211300000000 1.0
C      1  0.4713470000000  0.5393440000000  0.4736050000000 1.0
C      1  0.5588010000000  0.4954750000000  0.4874850000000 1.0
C      1  0.5748560000000  0.4551580000000  0.5647160000000 1.0
C      1  0.4422370000000  0.4644990000000  0.5096030000000 1.0
C      1  0.5024660000000  0.4960240000000  0.4311790000000 1.0
C      1  0.4101020000000  0.4457890000000  0.4951120000000 1.0
C      1  0.4759600000000  0.5722390000000  0.5129950000000 1.0
C      1  0.5186080000000  0.4260700000000  0.5208650000000 1.0
C      1  0.4371210000000  0.5015460000000  0.4460490000000 1.0
C      1  0.5522880000000  0.4393690000000  0.4286850000000 1.0
C      1  0.4701700000000  0.4451250000000  0.4885450000000 1.0
C      1  0.4770710000000  0.5468950000000  0.5436740000000 1.0
C      1  0.5044120000000  0.4933340000000  0.5539350000000 1.0
C      1  0.4546380000000  0.5488400000000  0.5862480000000 1.0
C      1  0.4754840000000  0.4153610000000  0.4985840000000 1.0
C      1  0.5482600000000  0.4183350000000  0.5203750000000 1.0
C      1  0.5244410000000  0.5358450000000  0.5249980000000 1.0
C      1  0.5142120000000  0.4375980000000  0.5719600000000 1.0
C      1  0.4695940000000  0.4342510000000  0.4194450000000 1.0
C      1  0.5007600000000  0.5417470000000  0.5661500000000 1.0
C      1  0.3965200000000  0.5442640000000  0.5000750000000 1.0
C      1  0.5632550000000  0.5434960000000  0.4180880000000 1.0
C      1  0.4721030000000  0.4938750000000  0.5774540000000 1.0
C      1  0.4490060000000  0.4360630000000  0.5656110000000 1.0
C      1  0.4947510000000  0.5020490000000  0.6248250000000 1.0
C      1  0.5500750000000  0.4637870000000  0.5177320000000 1.0
C      1  0.4564270000000  0.5717330000000  0.5369770000000 1.0
C      1  0.5972720000000  0.4455350000000  0.5177840000000 1.0
C      1  0.5471180000000  0.5160760000000  0.4061150000000 1.0
C      1  0.4272810000000  0.4488600000000  0.5429820000000 1.0
C      1  0.4705430000000  0.5951200000000  0.4975140000000 1.0
C      1  0.5435570000000  0.4438700000000  0.5720240000000 1.0
C      1  0.4585070000000  0.4944020000000  0.4789340000000 1.0
C      1  0.4298410000000  0.5613680000000  0.5259330000000 1.0
C      1  0.5457990000000  0.4676700000000  0.4207180000000 1.0
C      1  0.4723210000000  0.5043800000000  0.6089190000000 1.0
C      1  0.5043230000000  0.5555800000000  0.5074880000000 1.0
C      1  0.5329110000000  0.4227170000000  0.4443570000000 1.0
C      1  0.5586890000000  0.4222190000000  0.5505810000000 1.0
C      1  0.5163720000000  0.4083120000000  0.4705230000000 1.0
C      1  0.6092010000000  0.5423200000000  0.4840080000000 1.0
C      1  0.3921440000000  0.4925260000000  0.4812450000000 1.0
C      1  0.5836170000000  0.4761420000000  0.4386150000000 1.0
END
