TITL C-2848495-5024-283 0.00192389572751363 125000 -587.928789776798 0 0 107 (C1) n - 1
REM
REM in /home/bkarasulu/work/CARBON/AIRSS/Generating-Clusters/AIREBO/with-SteepDescent/Only-C1/SD-CG-opt/Try1-1.4A-POS3A/HFTN-CG
REM
REM
REM
REM
REM
REM ./C.cell (11c1c37f851c82e70ff6c80c92926a4b)
REM
REM compiler GCC version 9.2.1 20190827 (Red Hat 9.2.1-1)
REM options -cpp -mtune=generic -march=x86-64 -g -O0 -fpre-include=/usr/include/finclude/math-vector-fortran.h
REM seed -222260607 -1198050338 1108909785 1806754745 1023014280 448408260 -799589877 1289453719 619133732 1944665977 -1456033458 1252142866 -356765887 -502065689 -1882901079 -1247668477 -2023854334 -1961007513 -718390028 -1904495479 -1857199330 1959939926 -2055967157 1443199822 -264580450 -1574662660 339636684 1437770899 -821787290 989028748 -1329950374 1160992600 176738026
REM
CELL 1.54180   50.00000   50.00000   50.00000   90.00000   90.00000   90.00000
LATT -1
SFAC C  
C      1  0.4616340000000  0.5203630000000  0.4919010000000 1.0
C      1  0.5135930000000  0.5006490000000  0.5584580000000 1.0
C      1  0.5132720000000  0.5406120000000  0.5126770000000 1.0
C      1  0.4937460000000  0.5116430000000  0.4848550000000 1.0
C      1  0.5602350000000  0.4630790000000  0.5600020000000 1.0
C      1  0.5067600000000  0.4525050000000  0.5374460000000 1.0
C      1  0.4230680000000  0.4779210000000  0.4866950000000 1.0
C      1  0.5400010000000  0.5247350000000  0.5198140000000 1.0
C      1  0.5649620000000  0.5321730000000  0.5001550000000 1.0
C      1  0.4662330000000  0.4708340000000  0.5143160000000 1.0
C      1  0.4448410000000  0.4940230000000  0.5278700000000 1.0
C      1  0.5612710000000  0.4689690000000  0.5118800000000 1.0
C      1  0.4347960000000  0.5360460000000  0.4297620000000 1.0
C      1  0.4882830000000  0.5855710000000  0.4748370000000 1.0
C      1  0.4507580000000  0.5503810000000  0.4801780000000 1.0
C      1  0.4732640000000  0.5673000000000  0.4992400000000 1.0
C      1  0.4478550000000  0.5564020000000  0.5476290000000 1.0
C      1  0.5669770000000  0.5419330000000  0.4495680000000 1.0
C      1  0.5705850000000  0.4779110000000  0.4212850000000 1.0
C      1  0.4287100000000  0.5439700000000  0.4551010000000 1.0
C      1  0.4903390000000  0.5451170000000  0.4798990000000 1.0
C      1  0.5002370000000  0.4984950000000  0.4559040000000 1.0
C      1  0.4702140000000  0.4304260000000  0.5027130000000 1.0
C      1  0.5074310000000  0.5789940000000  0.5495130000000 1.0
C      1  0.5480950000000  0.4878170000000  0.5737730000000 1.0
C      1  0.5165640000000  0.4573250000000  0.4698390000000 1.0
C      1  0.5408250000000  0.4135090000000  0.5203550000000 1.0
C      1  0.5798310000000  0.5570010000000  0.4302340000000 1.0
C      1  0.5220090000000  0.4180410000000  0.4729180000000 1.0
C      1  0.4737060000000  0.4421700000000  0.4737750000000 1.0
C      1  0.4231920000000  0.5470890000000  0.5278260000000 1.0
C      1  0.4538430000000  0.5028650000000  0.4637880000000 1.0
C      1  0.4923410000000  0.4624180000000  0.4941050000000 1.0
C      1  0.4665690000000  0.5760890000000  0.5271530000000 1.0
C      1  0.5444750000000  0.4385380000000  0.4703640000000 1.0
C      1  0.4585810000000  0.4452010000000  0.5634850000000 1.0
C      1  0.4653410000000  0.4891060000000  0.4205350000000 1.0
C      1  0.5994580000000  0.5146970000000  0.5339660000000 1.0
C      1  0.5156340000000  0.4336760000000  0.5613430000000 1.0
C      1  0.5322670000000  0.4133830000000  0.5486940000000 1.0
C      1  0.5804700000000  0.4723600000000  0.4868370000000 1.0
C      1  0.5331760000000  0.4989940000000  0.4468440000000 1.0
C      1  0.5058400000000  0.4720290000000  0.4111370000000 1.0
C      1  0.5384940000000  0.5433170000000  0.5630520000000 1.0
C      1  0.5929040000000  0.4930940000000  0.5112440000000 1.0
C      1  0.5403300000000  0.4915080000000  0.5196260000000 1.0
C      1  0.5690310000000  0.4512160000000  0.5337940000000 1.0
C      1  0.4709060000000  0.4999050000000  0.5488970000000 1.0
C      1  0.4439810000000  0.4379230000000  0.5109250000000 1.0
C      1  0.4206490000000  0.4740960000000  0.5410590000000 1.0
C      1  0.4743330000000  0.5402660000000  0.5437270000000 1.0
C      1  0.5291940000000  0.5593450000000  0.5366890000000 1.0
C      1  0.5338690000000  0.4682590000000  0.5422390000000 1.0
C      1  0.5152650000000  0.5925210000000  0.4735280000000 1.0
C      1  0.5353860000000  0.5733340000000  0.4761290000000 1.0
C      1  0.4985340000000  0.5540560000000  0.5616930000000 1.0
C      1  0.5439680000000  0.5144980000000  0.5520040000000 1.0
C      1  0.5177020000000  0.5228640000000  0.4282210000000 1.0
C      1  0.4744290000000  0.5625340000000  0.4336100000000 1.0
C      1  0.4634970000000  0.4814460000000  0.5947550000000 1.0
C      1  0.4681650000000  0.5706160000000  0.4587300000000 1.0
C      1  0.5600870000000  0.5553850000000  0.4772120000000 1.0
C      1  0.5345870000000  0.5384430000000  0.4517220000000 1.0
C      1  0.5219840000000  0.5444490000000  0.4807640000000 1.0
C      1  0.5644220000000  0.4292220000000  0.5133460000000 1.0
C      1  0.5768500000000  0.5135090000000  0.4547990000000 1.0
C      1  0.5296480000000  0.5447320000000  0.5887130000000 1.0
C      1  0.5190990000000  0.4163290000000  0.5020920000000 1.0
C      1  0.4817790000000  0.5323750000000  0.5165560000000 1.0
C      1  0.4793470000000  0.4759170000000  0.4005400000000 1.0
C      1  0.5239860000000  0.4869640000000  0.4754700000000 1.0
C      1  0.5793460000000  0.5062190000000  0.4838060000000 1.0
C      1  0.5613750000000  0.4951470000000  0.4402970000000 1.0
C      1  0.5734590000000  0.5599010000000  0.5145230000000 1.0
C      1  0.4978110000000  0.4843050000000  0.5365480000000 1.0
C      1  0.5060880000000  0.5314590000000  0.5953930000000 1.0
C      1  0.5041830000000  0.4550110000000  0.5803000000000 1.0
C      1  0.4224800000000  0.5047150000000  0.4570880000000 1.0
C      1  0.4604610000000  0.5182880000000  0.4253850000000 1.0
C      1  0.4740980000000  0.5287450000000  0.4549110000000 1.0
C      1  0.4190270000000  0.5263420000000  0.4825170000000 1.0
C      1  0.4461600000000  0.4550550000000  0.5367770000000 1.0
C      1  0.4439130000000  0.5281160000000  0.5664310000000 1.0
C      1  0.5093380000000  0.4894670000000  0.5057690000000 1.0
C      1  0.4793750000000  0.4781870000000  0.4456090000000 1.0
C      1  0.4338320000000  0.5018570000000  0.4983600000000 1.0
C      1  0.4753440000000  0.4579800000000  0.5826560000000 1.0
C      1  0.4463500000000  0.4107980000000  0.4501700000000 1.0
C      1  0.4578820000000  0.4704850000000  0.4685280000000 1.0
C      1  0.5553950000000  0.5728110000000  0.5265260000000 1.0
C      1  0.4565080000000  0.5040800000000  0.5791130000000 1.0
C      1  0.5035420000000  0.4548900000000  0.4394760000000 1.0
C      1  0.4234960000000  0.5522680000000  0.5009040000000 1.0
C      1  0.4353800000000  0.4491910000000  0.4826730000000 1.0
C      1  0.4730660000000  0.4179570000000  0.4541460000000 1.0
C      1  0.4990400000000  0.4352900000000  0.5134790000000 1.0
C      1  0.4901560000000  0.5213230000000  0.5671180000000 1.0
C      1  0.4056460000000  0.4955410000000  0.4399720000000 1.0
C      1  0.4904120000000  0.5343490000000  0.4263750000000 1.0
C      1  0.4302030000000  0.5213700000000  0.5410670000000 1.0
C      1  0.5195710000000  0.4789000000000  0.5816720000000 1.0
C      1  0.5022120000000  0.4243600000000  0.4523760000000 1.0
C      1  0.5676630000000  0.4405110000000  0.4852920000000 1.0
C      1  0.4272610000000  0.4268920000000  0.4622780000000 1.0
C      1  0.5696690000000  0.5005120000000  0.5346870000000 1.0
C      1  0.5210960000000  0.4948230000000  0.4092750000000 1.0
C      1  0.4854560000000  0.5923700000000  0.5386940000000 1.0
END
