TITL C-2848496-4490-656 -0.00120336188660919 125000 -196.16655720107 0 0 36 (C1) n - 1
REM
REM in /home/bkarasulu/work/CARBON/AIRSS/Generating-Clusters/AIREBO/with-SteepDescent/Only-C1/SD-CG-opt/Try1-1.4A-POS3A/HFTN-CG
REM
REM
REM
REM
REM
REM ./C.cell (11c1c37f851c82e70ff6c80c92926a4b)
REM
REM compiler GCC version 9.2.1 20190827 (Red Hat 9.2.1-1)
REM options -cpp -mtune=generic -march=x86-64 -g -O0 -fpre-include=/usr/include/finclude/math-vector-fortran.h
REM seed -1719435076 -710060352 562150260 682550469 -365879006 298284309 1864801389 -802511334 -1516467311 -772486523 927279599 -1163392761 1767795598 1163036037 2049023828 424150620 -605743112 1714542590 1906507719 348471990 610147385 2069458175 -1326734995 1039454831 1863232034 1944106348 -2131265412 1940218013 680432319 -1798511598 -1036347006 -1690642666 -1888785861
REM
CELL 1.54180   50.00000   50.00000   50.00000   90.00000   90.00000   90.00000
LATT -1
SFAC C  
C      1  0.4851650000000  0.4356920000000  0.5044800000000 1.0
C      1  0.4718380000000  0.4507300000000  0.5272520000000 1.0
C      1  0.5459310000000  0.5346110000000  0.4337620000000 1.0
C      1  0.5184040000000  0.4749770000000  0.5117950000000 1.0
C      1  0.4930270000000  0.5359580000000  0.5365080000000 1.0
C      1  0.5456740000000  0.4873860000000  0.5247850000000 1.0
C      1  0.4728310000000  0.5151250000000  0.5510520000000 1.0
C      1  0.4751490000000  0.4650070000000  0.4903060000000 1.0
C      1  0.4623020000000  0.5136530000000  0.4850980000000 1.0
C      1  0.4960340000000  0.4962620000000  0.5367250000000 1.0
C      1  0.4468300000000  0.5052250000000  0.5492890000000 1.0
C      1  0.5248920000000  0.5071680000000  0.5380010000000 1.0
C      1  0.5105850000000  0.4261950000000  0.5135440000000 1.0
C      1  0.4375250000000  0.4863050000000  0.5313220000000 1.0
C      1  0.5226520000000  0.4429470000000  0.5347740000000 1.0
C      1  0.5228610000000  0.5358350000000  0.5317450000000 1.0
C      1  0.5453560000000  0.5258790000000  0.4883140000000 1.0
C      1  0.5066190000000  0.5530100000000  0.4901750000000 1.0
C      1  0.5108940000000  0.4724710000000  0.4529360000000 1.0
C      1  0.5004200000000  0.5777840000000  0.4807990000000 1.0
C      1  0.4926730000000  0.5270060000000  0.4834030000000 1.0
C      1  0.5294790000000  0.5440490000000  0.5050350000000 1.0
C      1  0.4975560000000  0.4645820000000  0.5366110000000 1.0
C      1  0.5379650000000  0.5259040000000  0.4565610000000 1.0
C      1  0.5463270000000  0.4567980000000  0.5364110000000 1.0
C      1  0.4906390000000  0.4782670000000  0.4351300000000 1.0
C      1  0.4518410000000  0.4685690000000  0.5155170000000 1.0
C      1  0.4815280000000  0.5152430000000  0.5122060000000 1.0
C      1  0.4651850000000  0.4828060000000  0.4450580000000 1.0
C      1  0.5589950000000  0.4992520000000  0.5008270000000 1.0
C      1  0.4619170000000  0.4866200000000  0.4717260000000 1.0
C      1  0.5422550000000  0.4913640000000  0.4754410000000 1.0
C      1  0.5129460000000  0.5080480000000  0.4710970000000 1.0
C      1  0.4930450000000  0.6019720000000  0.4739170000000 1.0
C      1  0.5058220000000  0.4777470000000  0.4847780000000 1.0
C      1  0.4368360000000  0.5295540000000  0.4836200000000 1.0
END
