TITL C-2848495-5024-66 0.000424768559922381 125000 -852.435502156946 0 0 160 (C1) n - 1
REM
REM in /home/bkarasulu/work/CARBON/AIRSS/Generating-Clusters/AIREBO/with-SteepDescent/Only-C1/SD-CG-opt/Try1-1.4A-POS3A/HFTN-CG
REM
REM
REM
REM
REM
REM ./C.cell (11c1c37f851c82e70ff6c80c92926a4b)
REM
REM compiler GCC version 9.2.1 20190827 (Red Hat 9.2.1-1)
REM options -cpp -mtune=generic -march=x86-64 -g -O0 -fpre-include=/usr/include/finclude/math-vector-fortran.h
REM seed 122582032 518007545 -1577790222 1157691181 493837325 89069249 -754321871 -1426826227 -927911574 1749887616 10970791 -1595711129 -551531024 -169389795 -643027192 1379323985 1118459348 -1769294351 786443791 -159258894 -47464618 2104805073 -542861923 826805793 185645246 457160374 -490349318 -268891833 1061665594 -168271433 562888781 -1978531475 334109732
REM
CELL 1.54180   50.00000   50.00000   50.00000   90.00000   90.00000   90.00000
LATT -1
SFAC C  
C      1  0.5339850000000  0.5039870000000  0.3982580000000 1.0
C      1  0.4648070000000  0.4674480000000  0.4291700000000 1.0
C      1  0.4637950000000  0.4197990000000  0.4571980000000 1.0
C      1  0.5632680000000  0.4500860000000  0.5573300000000 1.0
C      1  0.5173990000000  0.5767470000000  0.4669350000000 1.0
C      1  0.5537040000000  0.4211710000000  0.4569980000000 1.0
C      1  0.4832700000000  0.6083300000000  0.5363240000000 1.0
C      1  0.4581120000000  0.5941170000000  0.5291900000000 1.0
C      1  0.4261120000000  0.5036030000000  0.4985190000000 1.0
C      1  0.5296990000000  0.4522440000000  0.5624690000000 1.0
C      1  0.3917050000000  0.4880620000000  0.5505620000000 1.0
C      1  0.5006630000000  0.6067750000000  0.4770650000000 1.0
C      1  0.5118880000000  0.4951390000000  0.5996080000000 1.0
C      1  0.4735550000000  0.4357600000000  0.5589630000000 1.0
C      1  0.4609770000000  0.5836960000000  0.5029720000000 1.0
C      1  0.4653390000000  0.4467160000000  0.4736640000000 1.0
C      1  0.5173180000000  0.3824700000000  0.4686860000000 1.0
C      1  0.4992560000000  0.5099500000000  0.5589370000000 1.0
C      1  0.4033080000000  0.5137710000000  0.5498580000000 1.0
C      1  0.5716110000000  0.4288740000000  0.5353520000000 1.0
C      1  0.4579230000000  0.4939880000000  0.6038840000000 1.0
C      1  0.5706170000000  0.4893960000000  0.5811450000000 1.0
C      1  0.4024840000000  0.4697920000000  0.5702890000000 1.0
C      1  0.5641370000000  0.5827830000000  0.4462430000000 1.0
C      1  0.5309060000000  0.4748670000000  0.3884700000000 1.0
C      1  0.4208420000000  0.5561250000000  0.5615180000000 1.0
C      1  0.6038270000000  0.4994510000000  0.4528970000000 1.0
C      1  0.4897530000000  0.4019100000000  0.4696070000000 1.0
C      1  0.4274850000000  0.4435760000000  0.4860340000000 1.0
C      1  0.4556070000000  0.4600020000000  0.5689960000000 1.0
C      1  0.4232040000000  0.4602060000000  0.5301690000000 1.0
C      1  0.5157630000000  0.5195770000000  0.4405840000000 1.0
C      1  0.4730800000000  0.5338410000000  0.4854260000000 1.0
C      1  0.5148090000000  0.4873200000000  0.4369890000000 1.0
C      1  0.4265210000000  0.4589040000000  0.5611920000000 1.0
C      1  0.4956610000000  0.5937530000000  0.5576020000000 1.0
C      1  0.4930930000000  0.6065550000000  0.5084220000000 1.0
C      1  0.4144460000000  0.5596990000000  0.5322870000000 1.0
C      1  0.5179800000000  0.4901520000000  0.5385490000000 1.0
C      1  0.5346930000000  0.5419010000000  0.4429390000000 1.0
C      1  0.5654760000000  0.5334560000000  0.4311420000000 1.0
C      1  0.5550740000000  0.5156020000000  0.4648890000000 1.0
C      1  0.5162400000000  0.4091910000000  0.4896930000000 1.0
C      1  0.5058020000000  0.4286170000000  0.5677350000000 1.0
C      1  0.4790670000000  0.5045210000000  0.4357920000000 1.0
C      1  0.5149730000000  0.4433100000000  0.4515070000000 1.0
C      1  0.4640140000000  0.4920140000000  0.5036180000000 1.0
C      1  0.4859920000000  0.5526000000000  0.5841730000000 1.0
C      1  0.4934430000000  0.5740790000000  0.4988120000000 1.0
C      1  0.4429310000000  0.5139070000000  0.5827020000000 1.0
C      1  0.4888470000000  0.4597110000000  0.6008920000000 1.0
C      1  0.4918050000000  0.4807950000000  0.4168430000000 1.0
C      1  0.5971060000000  0.4538370000000  0.4559590000000 1.0
C      1  0.3942390000000  0.4759180000000  0.5231680000000 1.0
C      1  0.4392230000000  0.4874170000000  0.5254000000000 1.0
C      1  0.5364180000000  0.5095640000000  0.5175870000000 1.0
C      1  0.5118110000000  0.5162590000000  0.4096480000000 1.0
C      1  0.5189360000000  0.5705390000000  0.4335410000000 1.0
C      1  0.5983680000000  0.4690580000000  0.5076630000000 1.0
C      1  0.4408430000000  0.5529990000000  0.4600360000000 1.0
C      1  0.5510280000000  0.5729560000000  0.4704450000000 1.0
C      1  0.4895030000000  0.5574300000000  0.4703100000000 1.0
C      1  0.4911510000000  0.5400580000000  0.5205620000000 1.0
C      1  0.5110770000000  0.5377740000000  0.5718050000000 1.0
C      1  0.4564670000000  0.4708780000000  0.4587260000000 1.0
C      1  0.5773570000000  0.4691500000000  0.4347630000000 1.0
C      1  0.4874790000000  0.5251080000000  0.4014740000000 1.0
C      1  0.4046560000000  0.5402340000000  0.4712480000000 1.0
C      1  0.5404410000000  0.5418660000000  0.4750740000000 1.0
C      1  0.4619430000000  0.5233140000000  0.5157890000000 1.0
C      1  0.5842230000000  0.4928400000000  0.4790780000000 1.0
C      1  0.5774690000000  0.4227920000000  0.5030950000000 1.0
C      1  0.4283710000000  0.4527760000000  0.4366660000000 1.0
C      1  0.4758040000000  0.4104540000000  0.5143810000000 1.0
C      1  0.4185590000000  0.5288820000000  0.5683580000000 1.0
C      1  0.4916600000000  0.4136460000000  0.4385050000000 1.0
C      1  0.5715090000000  0.5643030000000  0.4950330000000 1.0
C      1  0.4372170000000  0.5379240000000  0.5188670000000 1.0
C      1  0.5280200000000  0.5986140000000  0.4907250000000 1.0
C      1  0.5849820000000  0.5271430000000  0.4587630000000 1.0
C      1  0.5368860000000  0.4891190000000  0.4945880000000 1.0
C      1  0.6117770000000  0.4760480000000  0.4771150000000 1.0
C      1  0.5791820000000  0.4735620000000  0.5570540000000 1.0
C      1  0.5974270000000  0.4406530000000  0.4873330000000 1.0
C      1  0.4089860000000  0.5216710000000  0.5217060000000 1.0
C      1  0.4202550000000  0.5076020000000  0.4545390000000 1.0
C      1  0.5046610000000  0.4674210000000  0.3919710000000 1.0
C      1  0.5809450000000  0.5204750000000  0.5396880000000 1.0
C      1  0.4562690000000  0.4201500000000  0.5373500000000 1.0
C      1  0.4087230000000  0.5349780000000  0.4378850000000 1.0
C      1  0.4320290000000  0.4318700000000  0.4583260000000 1.0
C      1  0.5067670000000  0.4528600000000  0.4813940000000 1.0
C      1  0.4337610000000  0.4352160000000  0.5166820000000 1.0
C      1  0.4955450000000  0.5075310000000  0.4653980000000 1.0
C      1  0.5876380000000  0.4906930000000  0.5315970000000 1.0
C      1  0.5427670000000  0.4418950000000  0.4175170000000 1.0
C      1  0.5528470000000  0.4801710000000  0.4139040000000 1.0
C      1  0.5170420000000  0.5592200000000  0.5182930000000 1.0
C      1  0.5525480000000  0.5649180000000  0.4253910000000 1.0
C      1  0.5653650000000  0.4372750000000  0.4367780000000 1.0
C      1  0.5480130000000  0.5244930000000  0.5471550000000 1.0
C      1  0.5068280000000  0.4715400000000  0.5756060000000 1.0
C      1  0.5617840000000  0.5665370000000  0.5444740000000 1.0
C      1  0.4761010000000  0.5722980000000  0.5653280000000 1.0
C      1  0.4801670000000  0.5373940000000  0.4444040000000 1.0
C      1  0.4103230000000  0.5482960000000  0.5006020000000 1.0
C      1  0.4316940000000  0.5135450000000  0.4230730000000 1.0
C      1  0.4594710000000  0.5249070000000  0.4199470000000 1.0
C      1  0.5104440000000  0.4059140000000  0.5498090000000 1.0
C      1  0.3941850000000  0.4919090000000  0.4994750000000 1.0
C      1  0.4579930000000  0.5699190000000  0.4419990000000 1.0
C      1  0.5365230000000  0.4627030000000  0.5308360000000 1.0
C      1  0.5349360000000  0.5866360000000  0.5138060000000 1.0
C      1  0.5663270000000  0.5367170000000  0.5138810000000 1.0
C      1  0.4943550000000  0.4477070000000  0.5348900000000 1.0
C      1  0.4426490000000  0.5223860000000  0.4754330000000 1.0
C      1  0.4887200000000  0.4570940000000  0.5043280000000 1.0
C      1  0.4620140000000  0.4672590000000  0.5975420000000 1.0
C      1  0.4849580000000  0.5060540000000  0.6101370000000 1.0
C      1  0.4643070000000  0.4962950000000  0.4727640000000 1.0
C      1  0.5409410000000  0.4845020000000  0.5915900000000 1.0
C      1  0.4953920000000  0.4865250000000  0.5147580000000 1.0
C      1  0.5468110000000  0.4232630000000  0.4883720000000 1.0
C      1  0.4360370000000  0.4801910000000  0.4177550000000 1.0
C      1  0.5213150000000  0.5846540000000  0.5595120000000 1.0
C      1  0.4729350000000  0.5048370000000  0.5421360000000 1.0
C      1  0.5150710000000  0.4812050000000  0.4701310000000 1.0
C      1  0.5528850000000  0.4012260000000  0.5135840000000 1.0
C      1  0.5682510000000  0.4568300000000  0.4848170000000 1.0
C      1  0.4440340000000  0.5019540000000  0.5533710000000 1.0
C      1  0.5365240000000  0.4552460000000  0.4916270000000 1.0
C      1  0.5538130000000  0.5256950000000  0.5806450000000 1.0
C      1  0.5798890000000  0.5026030000000  0.4289490000000 1.0
C      1  0.4633030000000  0.4386500000000  0.5029130000000 1.0
C      1  0.5679290000000  0.4584420000000  0.5185120000000 1.0
C      1  0.5856580000000  0.5118090000000  0.5015870000000 1.0
C      1  0.3925390000000  0.5090700000000  0.4741810000000 1.0
C      1  0.5380530000000  0.4660070000000  0.4410600000000 1.0
C      1  0.4455730000000  0.5740870000000  0.5525370000000 1.0
C      1  0.5306280000000  0.5536880000000  0.5489850000000 1.0
C      1  0.5357780000000  0.5384150000000  0.5040890000000 1.0
C      1  0.5929540000000  0.5412960000000  0.4856760000000 1.0
C      1  0.5281700000000  0.5222410000000  0.5923190000000 1.0
C      1  0.4247590000000  0.4784630000000  0.4558720000000 1.0
C      1  0.5386330000000  0.4289980000000  0.5270710000000 1.0
C      1  0.4266110000000  0.4722580000000  0.4853080000000 1.0
C      1  0.5067520000000  0.4202020000000  0.5191730000000 1.0
C      1  0.4868950000000  0.5679030000000  0.4321160000000 1.0
C      1  0.4402740000000  0.5847600000000  0.4842850000000 1.0
C      1  0.4760810000000  0.5217730000000  0.5820340000000 1.0
C      1  0.5237290000000  0.4104570000000  0.4504640000000 1.0
C      1  0.5819070000000  0.5503050000000  0.5524060000000 1.0
C      1  0.5444960000000  0.4930590000000  0.5596310000000 1.0
C      1  0.4967610000000  0.5142710000000  0.4987140000000 1.0
C      1  0.4699330000000  0.5559350000000  0.5373530000000 1.0
C      1  0.5615290000000  0.5802650000000  0.5202010000000 1.0
C      1  0.4819130000000  0.4740570000000  0.5525580000000 1.0
C      1  0.4178820000000  0.5714980000000  0.4693350000000 1.0
C      1  0.4872600000000  0.4447240000000  0.4323110000000 1.0
C      1  0.5547660000000  0.4816250000000  0.4662990000000 1.0
END
