TITL C-2848502-4955-22 -0.00082850909778634 125000 -607.337475142485 0 0 111 (C1) n - 1
REM
REM in /home/bkarasulu/work/CARBON/AIRSS/Generating-Clusters/AIREBO/with-SteepDescent/Only-C1/SD-CG-opt/Try1-1.4A-POS3A/HFTN-CG
REM
REM
REM
REM
REM
REM ./C.cell (11c1c37f851c82e70ff6c80c92926a4b)
REM
REM compiler GCC version 9.2.1 20190827 (Red Hat 9.2.1-1)
REM options -cpp -mtune=generic -march=x86-64 -g -O0 -fpre-include=/usr/include/finclude/math-vector-fortran.h
REM seed 1518044577 -1550453860 940406782 -1813257578 -1943229099 47573361 1469699110 -301355985 -1123519328 -1781072087 -1491273548 -1828174396 -1686587546 -1246501007 -938917378 2106581805 -1211268563 1194573087 -593140266 -218351581 734203595 814640503 228308311 1678862137 2111527268 1842497332 1244766886 -1648967303 1586951067 85834795 -300930695 -591620956 1330312440
REM
CELL 1.54180   50.00000   50.00000   50.00000   90.00000   90.00000   90.00000
LATT -1
SFAC C  
C      1  0.5117320000000  0.5459320000000  0.4599840000000 1.0
C      1  0.4175370000000  0.5119350000000  0.5119610000000 1.0
C      1  0.5687420000000  0.4653610000000  0.5576680000000 1.0
C      1  0.4841870000000  0.5415850000000  0.5322310000000 1.0
C      1  0.4997520000000  0.4281490000000  0.5495230000000 1.0
C      1  0.5484080000000  0.4991630000000  0.5632070000000 1.0
C      1  0.5677480000000  0.4689050000000  0.4978490000000 1.0
C      1  0.4820520000000  0.5313070000000  0.5894750000000 1.0
C      1  0.5367200000000  0.4821130000000  0.4932910000000 1.0
C      1  0.4676510000000  0.4875700000000  0.4569970000000 1.0
C      1  0.5383170000000  0.5833340000000  0.5065450000000 1.0
C      1  0.5254500000000  0.4853040000000  0.4422420000000 1.0
C      1  0.5259300000000  0.4270760000000  0.5421170000000 1.0
C      1  0.4960940000000  0.5097540000000  0.5719640000000 1.0
C      1  0.4447840000000  0.4989940000000  0.4345720000000 1.0
C      1  0.5775850000000  0.4959100000000  0.5455890000000 1.0
C      1  0.4763340000000  0.5647520000000  0.4293180000000 1.0
C      1  0.5696270000000  0.5170710000000  0.4733620000000 1.0
C      1  0.4805780000000  0.4219510000000  0.5302290000000 1.0
C      1  0.5639290000000  0.5443540000000  0.5264940000000 1.0
C      1  0.4816180000000  0.4578020000000  0.4048900000000 1.0
C      1  0.5142960000000  0.5257220000000  0.5319310000000 1.0
C      1  0.4668250000000  0.4647610000000  0.5666720000000 1.0
C      1  0.5070330000000  0.5798930000000  0.5519480000000 1.0
C      1  0.5641940000000  0.4379930000000  0.5085030000000 1.0
C      1  0.5135280000000  0.5664070000000  0.5771490000000 1.0
C      1  0.5316810000000  0.4253390000000  0.4891910000000 1.0
C      1  0.5103610000000  0.4492440000000  0.4555840000000 1.0
C      1  0.4948130000000  0.4796640000000  0.5730290000000 1.0
C      1  0.4933380000000  0.4456860000000  0.5725190000000 1.0
C      1  0.5851580000000  0.4880870000000  0.4800140000000 1.0
C      1  0.4583190000000  0.5199760000000  0.4214650000000 1.0
C      1  0.5674330000000  0.4981610000000  0.4307220000000 1.0
C      1  0.5801310000000  0.4681180000000  0.4343170000000 1.0
C      1  0.5634360000000  0.4266720000000  0.4766730000000 1.0
C      1  0.4846570000000  0.4760380000000  0.4840970000000 1.0
C      1  0.5580500000000  0.5072110000000  0.5017330000000 1.0
C      1  0.4418870000000  0.4904520000000  0.5018700000000 1.0
C      1  0.4872660000000  0.4432810000000  0.4752950000000 1.0
C      1  0.5480020000000  0.4503100000000  0.5359040000000 1.0
C      1  0.5344580000000  0.5469800000000  0.5759460000000 1.0
C      1  0.4374710000000  0.4497290000000  0.4699010000000 1.0
C      1  0.4874950000000  0.5127560000000  0.4203630000000 1.0
C      1  0.5179180000000  0.4945740000000  0.5187590000000 1.0
C      1  0.5410290000000  0.4153890000000  0.5186480000000 1.0
C      1  0.4566210000000  0.5980190000000  0.5198160000000 1.0
C      1  0.5533920000000  0.5308000000000  0.4490880000000 1.0
C      1  0.4744000000000  0.5837410000000  0.4513840000000 1.0
C      1  0.4177980000000  0.5359810000000  0.4945660000000 1.0
C      1  0.5380020000000  0.5118570000000  0.4294840000000 1.0
C      1  0.5159890000000  0.5280850000000  0.4152270000000 1.0
C      1  0.4581660000000  0.4400060000000  0.5228720000000 1.0
C      1  0.4896360000000  0.4069290000000  0.5083550000000 1.0
C      1  0.5492890000000  0.4727420000000  0.5832400000000 1.0
C      1  0.4428990000000  0.5492290000000  0.4564710000000 1.0
C      1  0.5228700000000  0.5203260000000  0.5616510000000 1.0
C      1  0.5361990000000  0.4548950000000  0.4729060000000 1.0
C      1  0.5446460000000  0.5386670000000  0.4814640000000 1.0
C      1  0.4774320000000  0.5770790000000  0.5029480000000 1.0
C      1  0.5395870000000  0.4625240000000  0.6123310000000 1.0
C      1  0.4306920000000  0.5182020000000  0.5402160000000 1.0
C      1  0.4567460000000  0.4604820000000  0.4957630000000 1.0
C      1  0.5159380000000  0.4259650000000  0.4362420000000 1.0
C      1  0.5544240000000  0.5589770000000  0.5014960000000 1.0
C      1  0.4298870000000  0.4771280000000  0.4492420000000 1.0
C      1  0.5149860000000  0.5242300000000  0.4859600000000 1.0
C      1  0.5817730000000  0.4690420000000  0.5264790000000 1.0
C      1  0.4596920000000  0.5418510000000  0.4972270000000 1.0
C      1  0.4427540000000  0.4113930000000  0.4600440000000 1.0
C      1  0.5405710000000  0.5593260000000  0.4479230000000 1.0
C      1  0.4481830000000  0.5711670000000  0.5331080000000 1.0
C      1  0.5206960000000  0.5908240000000  0.4866830000000 1.0
C      1  0.5571420000000  0.5271970000000  0.5809810000000 1.0
C      1  0.4588760000000  0.5683100000000  0.4758480000000 1.0
C      1  0.5006630000000  0.5510650000000  0.4288180000000 1.0
C      1  0.5282090000000  0.5759790000000  0.5333930000000 1.0
C      1  0.4315210000000  0.4862220000000  0.5400620000000 1.0
C      1  0.4257820000000  0.4415780000000  0.5195830000000 1.0
C      1  0.4457660000000  0.5053960000000  0.4735550000000 1.0
C      1  0.4644540000000  0.5123960000000  0.5135450000000 1.0
C      1  0.4379230000000  0.4722940000000  0.5662880000000 1.0
C      1  0.4584180000000  0.5278330000000  0.5496560000000 1.0
C      1  0.4820140000000  0.5722030000000  0.5363790000000 1.0
C      1  0.5379230000000  0.4801930000000  0.5370600000000 1.0
C      1  0.4987210000000  0.5683920000000  0.4788660000000 1.0
C      1  0.4942810000000  0.5561700000000  0.5955130000000 1.0
C      1  0.4725170000000  0.4477380000000  0.4302360000000 1.0
C      1  0.5021850000000  0.4202350000000  0.4886020000000 1.0
C      1  0.4311910000000  0.5290130000000  0.4707750000000 1.0
C      1  0.5638040000000  0.4489700000000  0.4539400000000 1.0
C      1  0.4935010000000  0.4739760000000  0.4394400000000 1.0
C      1  0.4917470000000  0.4847900000000  0.4072470000000 1.0
C      1  0.4808870000000  0.5034800000000  0.5420250000000 1.0
C      1  0.5914860000000  0.4918450000000  0.4514140000000 1.0
C      1  0.4164150000000  0.4743040000000  0.4803540000000 1.0
C      1  0.4541180000000  0.5464390000000  0.4310010000000 1.0
C      1  0.5701220000000  0.5174670000000  0.5245470000000 1.0
C      1  0.4177550000000  0.4698080000000  0.5140790000000 1.0
C      1  0.5005830000000  0.5154580000000  0.4498120000000 1.0
C      1  0.4615990000000  0.4697010000000  0.5343310000000 1.0
C      1  0.5366120000000  0.5487790000000  0.5357980000000 1.0
C      1  0.5411000000000  0.4623900000000  0.4339420000000 1.0
C      1  0.4989810000000  0.5990760000000  0.4628240000000 1.0
C      1  0.5120030000000  0.4928930000000  0.4725530000000 1.0
C      1  0.4568510000000  0.5333980000000  0.5795150000000 1.0
C      1  0.4189890000000  0.4210210000000  0.4708070000000 1.0
C      1  0.4887770000000  0.4812810000000  0.5174890000000 1.0
C      1  0.4903150000000  0.5305870000000  0.5006460000000 1.0
C      1  0.4647490000000  0.4350860000000  0.4558460000000 1.0
C      1  0.5182320000000  0.4612340000000  0.5883320000000 1.0
C      1  0.4369660000000  0.5455730000000  0.5209680000000 1.0
END
