TITL C-2847944-5688-479 6.30490011961301e-05 125000 -167.030395084521 0 0 32 (C1) n - 1
REM
REM in /home/bkarasulu/work/CARBON/AIRSS/Generating-Clusters/AIREBO/with-SteepDescent/Only-C1/SD-CG-opt/Try1-1.4A-POS3A/HFTN-CG
REM
REM
REM
REM
REM
REM ./C.cell (11c1c37f851c82e70ff6c80c92926a4b)
REM
REM compiler GCC version 9.2.1 20190827 (Red Hat 9.2.1-1)
REM options -cpp -mtune=generic -march=x86-64 -g -O0 -fpre-include=/usr/include/finclude/math-vector-fortran.h
REM seed -798958755 1157455864 -944756383 1700906895 415336850 770543737 -368479294 -1831455638 -2095681884 -289038804 1365530621 442284971 -1348902251 -116211485 1536054782 78600686 854237803 1002170425 -372434858 -718628374 -1907934718 774043032 189097312 778548488 -449552570 -2057094318 1260669461 -1466219935 938717533 1421595183 -940839470 -558519390 778923095
REM
CELL 1.54180   50.00000   50.00000   50.00000   90.00000   90.00000   90.00000
LATT -1
SFAC C  
C      1  0.4719740000000  0.5344480000000  0.5088090000000 1.0
C      1  0.5405970000000  0.5396880000000  0.5038330000000 1.0
C      1  0.4992830000000  0.4409270000000  0.4986840000000 1.0
C      1  0.4324080000000  0.5048600000000  0.5266770000000 1.0
C      1  0.5784070000000  0.5102980000000  0.5251620000000 1.0
C      1  0.4782020000000  0.5184140000000  0.4878430000000 1.0
C      1  0.5278740000000  0.5059940000000  0.5210100000000 1.0
C      1  0.4548050000000  0.5221730000000  0.5287350000000 1.0
C      1  0.4711400000000  0.4884640000000  0.4258490000000 1.0
C      1  0.4942550000000  0.5320370000000  0.5527240000000 1.0
C      1  0.5645060000000  0.5174580000000  0.4567400000000 1.0
C      1  0.5157950000000  0.4561060000000  0.5117660000000 1.0
C      1  0.4615890000000  0.4679230000000  0.5390650000000 1.0
C      1  0.4366930000000  0.4774730000000  0.5305010000000 1.0
C      1  0.4759200000000  0.4537330000000  0.4875580000000 1.0
C      1  0.5126080000000  0.4843850000000  0.4598420000000 1.0
C      1  0.5054920000000  0.4854400000000  0.5154650000000 1.0
C      1  0.5194270000000  0.5279610000000  0.5356540000000 1.0
C      1  0.4731770000000  0.4783400000000  0.4584860000000 1.0
C      1  0.4835250000000  0.4861150000000  0.5389720000000 1.0
C      1  0.5238060000000  0.5592750000000  0.5112140000000 1.0
C      1  0.4438270000000  0.4524660000000  0.4983200000000 1.0
C      1  0.4487320000000  0.4610310000000  0.4684850000000 1.0
C      1  0.4967380000000  0.4719690000000  0.4351390000000 1.0
C      1  0.5564210000000  0.5110650000000  0.5080100000000 1.0
C      1  0.5282340000000  0.5862440000000  0.5100040000000 1.0
C      1  0.5428220000000  0.4763500000000  0.4713200000000 1.0
C      1  0.4963330000000  0.5490120000000  0.5222550000000 1.0
C      1  0.4907030000000  0.4888820000000  0.4850240000000 1.0
C      1  0.5394940000000  0.5005020000000  0.4478010000000 1.0
C      1  0.4747420000000  0.5120710000000  0.5476760000000 1.0
C      1  0.5604700000000  0.4988960000000  0.4813770000000 1.0
END
