TITL C-2847958-8115-228 -0.000279505575971622 125000 -118.47880993603 0 0 23 (C1) n - 1
REM
REM in /home/bkarasulu/work/CARBON/AIRSS/Generating-Clusters/AIREBO/with-SteepDescent/Only-C1/SD-CG-opt/Try1-1.4A-POS3A/HFTN-CG
REM
REM
REM
REM
REM
REM ./C.cell (11c1c37f851c82e70ff6c80c92926a4b)
REM
REM compiler GCC version 9.2.1 20190827 (Red Hat 9.2.1-1)
REM options -cpp -mtune=generic -march=x86-64 -g -O0 -fpre-include=/usr/include/finclude/math-vector-fortran.h
REM seed -1084705333 -1191907601 1081005755 674223238 1003711457 -1985776207 -2047389664 1715790315 -101214696 1892736009 1583863547 -1228814711 1654360538 742536016 1835389399 -1475332159 -1659548905 -618189064 -415947412 -259469603 -1560243570 1432057809 1125720560 -758775454 1311987996 240252192 -81988536 -29025209 -1165853877 1385590516 1873790666 -1537081586 -831981843
REM
CELL 1.54180   50.00000   50.00000   50.00000   90.00000   90.00000   90.00000
LATT -1
SFAC C  
C      1  0.5110400000000  0.5553540000000  0.4429950000000 1.0
C      1  0.5420350000000  0.4519730000000  0.4956310000000 1.0
C      1  0.5265990000000  0.5408040000000  0.4922820000000 1.0
C      1  0.4632070000000  0.5009640000000  0.4580470000000 1.0
C      1  0.4901020000000  0.5188730000000  0.5341420000000 1.0
C      1  0.4580730000000  0.5162790000000  0.5435120000000 1.0
C      1  0.4436590000000  0.5102010000000  0.5175700000000 1.0
C      1  0.5374350000000  0.4655360000000  0.5199040000000 1.0
C      1  0.5101010000000  0.5089830000000  0.4748150000000 1.0
C      1  0.4720290000000  0.5091570000000  0.5070460000000 1.0
C      1  0.5107170000000  0.4985920000000  0.5416950000000 1.0
C      1  0.5155270000000  0.5400480000000  0.4644880000000 1.0
C      1  0.4512320000000  0.4453540000000  0.4815750000000 1.0
C      1  0.5005830000000  0.5478770000000  0.5323910000000 1.0
C      1  0.5327930000000  0.5126240000000  0.4998770000000 1.0
C      1  0.5182000000000  0.5570410000000  0.5136060000000 1.0
C      1  0.4883590000000  0.4656050000000  0.5124060000000 1.0
C      1  0.5270750000000  0.4571400000000  0.4729420000000 1.0
C      1  0.4805670000000  0.4930750000000  0.4804320000000 1.0
C      1  0.5089050000000  0.4759340000000  0.4692240000000 1.0
C      1  0.5079900000000  0.4688890000000  0.5318670000000 1.0
C      1  0.5347900000000  0.4966760000000  0.5222260000000 1.0
C      1  0.4689820000000  0.4630210000000  0.4913270000000 1.0
END
