TITL C-2847957-7266-655 0.00146470262290733 125000 -494.873940531203 0 0 94 (C1) n - 1
REM
REM in /home/bkarasulu/work/CARBON/AIRSS/Generating-Clusters/AIREBO/with-SteepDescent/Only-C1/SD-CG-opt/Try1-1.4A-POS3A/HFTN-CG
REM
REM
REM
REM
REM
REM ./C.cell (11c1c37f851c82e70ff6c80c92926a4b)
REM
REM compiler GCC version 9.2.1 20190827 (Red Hat 9.2.1-1)
REM options -cpp -mtune=generic -march=x86-64 -g -O0 -fpre-include=/usr/include/finclude/math-vector-fortran.h
REM seed -1742423962 -1408916879 -2120495191 1115052471 1505816869 380758369 -1194498932 -963808150 184134231 813871451 -1331087623 1114966223 890317295 337498527 -852032545 -8056880 -1479256750 1367259719 -332241973 1542157253 1481856124 1209868192 659053102 789384124 -1315171930 917072148 1371333598 -722088344 318022688 -1120617955 -960932647 926388727 1641232726
REM
CELL 1.54180   50.00000   50.00000   50.00000   90.00000   90.00000   90.00000
LATT -1
SFAC C  
C      1  0.4423500000000  0.4538440000000  0.4327100000000 1.0
C      1  0.5331100000000  0.5308040000000  0.5240110000000 1.0
C      1  0.5158400000000  0.5342900000000  0.5530990000000 1.0
C      1  0.5547880000000  0.5587750000000  0.5353500000000 1.0
C      1  0.4508160000000  0.5175360000000  0.5116140000000 1.0
C      1  0.4925960000000  0.4116220000000  0.4805020000000 1.0
C      1  0.5870190000000  0.4940190000000  0.5331870000000 1.0
C      1  0.5755390000000  0.5317770000000  0.4653140000000 1.0
C      1  0.4785850000000  0.5657360000000  0.5725090000000 1.0
C      1  0.5035940000000  0.5698590000000  0.4722900000000 1.0
C      1  0.4477520000000  0.4507710000000  0.5366230000000 1.0
C      1  0.4793400000000  0.5484430000000  0.5449050000000 1.0
C      1  0.4720610000000  0.4588800000000  0.5576920000000 1.0
C      1  0.5006110000000  0.5151180000000  0.4641280000000 1.0
C      1  0.5095190000000  0.4469520000000  0.4724330000000 1.0
C      1  0.4501480000000  0.4320780000000  0.5081320000000 1.0
C      1  0.4739540000000  0.4298070000000  0.5400290000000 1.0
C      1  0.5357910000000  0.4709280000000  0.4544090000000 1.0
C      1  0.5338270000000  0.5443600000000  0.4398500000000 1.0
C      1  0.4155330000000  0.4691410000000  0.4683430000000 1.0
C      1  0.5055700000000  0.4746710000000  0.4841810000000 1.0
C      1  0.5922490000000  0.4791840000000  0.5558190000000 1.0
C      1  0.4273660000000  0.5227310000000  0.4606750000000 1.0
C      1  0.4419780000000  0.5313080000000  0.4851240000000 1.0
C      1  0.5281020000000  0.4828740000000  0.4252040000000 1.0
C      1  0.4402150000000  0.5890960000000  0.5356700000000 1.0
C      1  0.5300510000000  0.4007680000000  0.5133790000000 1.0
C      1  0.4507270000000  0.5381810000000  0.5344430000000 1.0
C      1  0.4748530000000  0.4877240000000  0.4776710000000 1.0
C      1  0.5154090000000  0.4690460000000  0.6035790000000 1.0
C      1  0.4385520000000  0.4774030000000  0.5248000000000 1.0
C      1  0.4714910000000  0.5210570000000  0.4778150000000 1.0
C      1  0.4565500000000  0.5629940000000  0.4657980000000 1.0
C      1  0.4677260000000  0.4880360000000  0.5109190000000 1.0
C      1  0.4981950000000  0.4741350000000  0.5837370000000 1.0
C      1  0.5019480000000  0.4925050000000  0.5129020000000 1.0
C      1  0.4974600000000  0.5256700000000  0.4097850000000 1.0
C      1  0.5551680000000  0.5004710000000  0.4369440000000 1.0
C      1  0.5109320000000  0.5784900000000  0.5154000000000 1.0
C      1  0.4838300000000  0.5761060000000  0.5125040000000 1.0
C      1  0.5724180000000  0.5375470000000  0.5235970000000 1.0
C      1  0.4652650000000  0.5114560000000  0.5731030000000 1.0
C      1  0.5555200000000  0.4968850000000  0.4917730000000 1.0
C      1  0.4863970000000  0.5343580000000  0.5166400000000 1.0
C      1  0.4971810000000  0.4804350000000  0.5507050000000 1.0
C      1  0.5583020000000  0.4485540000000  0.5637910000000 1.0
C      1  0.4478620000000  0.5136910000000  0.4350840000000 1.0
C      1  0.4675980000000  0.5630900000000  0.4401170000000 1.0
C      1  0.4879820000000  0.5328320000000  0.5725660000000 1.0
C      1  0.5425430000000  0.5799950000000  0.5187010000000 1.0
C      1  0.4694930000000  0.4850850000000  0.5789820000000 1.0
C      1  0.4808750000000  0.5082300000000  0.4411920000000 1.0
C      1  0.5844650000000  0.4557240000000  0.5672440000000 1.0
C      1  0.4794140000000  0.5523260000000  0.4886060000000 1.0
C      1  0.5131100000000  0.4399770000000  0.4452580000000 1.0
C      1  0.4533250000000  0.5690190000000  0.5211140000000 1.0
C      1  0.5382150000000  0.3837520000000  0.5305630000000 1.0
C      1  0.5134230000000  0.4588160000000  0.5334810000000 1.0
C      1  0.5289330000000  0.5684350000000  0.4511880000000 1.0
C      1  0.3888280000000  0.4700110000000  0.4875770000000 1.0
C      1  0.4286380000000  0.4970690000000  0.5467650000000 1.0
C      1  0.5991490000000  0.5356010000000  0.5174140000000 1.0
C      1  0.5311470000000  0.4864950000000  0.5293300000000 1.0
C      1  0.5008590000000  0.4623310000000  0.4250940000000 1.0
C      1  0.5069770000000  0.5203990000000  0.4959310000000 1.0
C      1  0.4388000000000  0.4516260000000  0.4859850000000 1.0
C      1  0.5573920000000  0.5070480000000  0.5225410000000 1.0
C      1  0.4439300000000  0.5173970000000  0.5561200000000 1.0
C      1  0.5508590000000  0.5525230000000  0.5850070000000 1.0
C      1  0.4801570000000  0.4162050000000  0.5100110000000 1.0
C      1  0.4746540000000  0.4488040000000  0.4420520000000 1.0
C      1  0.4974600000000  0.5111870000000  0.5404930000000 1.0
C      1  0.4408890000000  0.5620930000000  0.4930490000000 1.0
C      1  0.6081350000000  0.5095850000000  0.5215370000000 1.0
C      1  0.5346290000000  0.5352210000000  0.4902870000000 1.0
C      1  0.4548410000000  0.4687000000000  0.4612440000000 1.0
C      1  0.4912200000000  0.5772930000000  0.4427500000000 1.0
C      1  0.5465280000000  0.5232480000000  0.4606810000000 1.0
C      1  0.5213340000000  0.4242330000000  0.4936150000000 1.0
C      1  0.5596680000000  0.4559190000000  0.4644990000000 1.0
C      1  0.5012230000000  0.4427040000000  0.5138890000000 1.0
C      1  0.5208430000000  0.5384140000000  0.4157500000000 1.0
C      1  0.4984590000000  0.4944940000000  0.4188000000000 1.0
C      1  0.5514270000000  0.4342690000000  0.4812130000000 1.0
C      1  0.5737060000000  0.4803970000000  0.4472020000000 1.0
C      1  0.4695340000000  0.5368160000000  0.4255480000000 1.0
C      1  0.5282200000000  0.4968090000000  0.4718060000000 1.0
C      1  0.5411300000000  0.5502330000000  0.5606640000000 1.0
C      1  0.5430290000000  0.4586870000000  0.5451940000000 1.0
C      1  0.4309630000000  0.4916280000000  0.4534800000000 1.0
C      1  0.4803770000000  0.4210580000000  0.4576570000000 1.0
C      1  0.4734840000000  0.4551880000000  0.5063680000000 1.0
C      1  0.4181990000000  0.4730750000000  0.5022970000000 1.0
C      1  0.5298470000000  0.5658430000000  0.4909680000000 1.0
END
