TITL C-2848506-1665-634 6.90194677241004e-05 125000 -728.814221530922 0 0 133 (C1) n - 1
REM
REM in /home/bkarasulu/work/CARBON/AIRSS/Generating-Clusters/AIREBO/with-SteepDescent/Only-C1/SD-CG-opt/Try1-1.4A-POS3A/HFTN-CG
REM
REM
REM
REM
REM
REM ./C.cell (11c1c37f851c82e70ff6c80c92926a4b)
REM
REM compiler GCC version 9.2.1 20190827 (Red Hat 9.2.1-1)
REM options -cpp -mtune=generic -march=x86-64 -g -O0 -fpre-include=/usr/include/finclude/math-vector-fortran.h
REM seed 2039427094 493672693 -874433608 2073976638 208257896 1237829904 -1179988076 -192657440 1853558781 -1724436633 2052694909 -1822036174 -237794029 -963417621 72721525 560048148 -18175544 1731715054 -5008403 -1947975489 1842605433 377972577 1540472932 1391631379 504877601 -1411453828 1707215655 -148377004 480464140 -1963599634 1302492277 1570848308 2023853703
REM
CELL 1.54180   50.00000   50.00000   50.00000   90.00000   90.00000   90.00000
LATT -1
SFAC C  
C      1  0.4441980000000  0.5405730000000  0.4157170000000 1.0
C      1  0.5514720000000  0.5771050000000  0.5367490000000 1.0
C      1  0.4222940000000  0.5255090000000  0.5558580000000 1.0
C      1  0.5600650000000  0.4035330000000  0.5266140000000 1.0
C      1  0.5147970000000  0.5488700000000  0.4970100000000 1.0
C      1  0.4675020000000  0.5829960000000  0.4810680000000 1.0
C      1  0.3981320000000  0.5176690000000  0.5418770000000 1.0
C      1  0.5645700000000  0.4666120000000  0.5503340000000 1.0
C      1  0.4527390000000  0.4201270000000  0.5174530000000 1.0
C      1  0.5719180000000  0.5091050000000  0.5010180000000 1.0
C      1  0.5051240000000  0.5437030000000  0.5255900000000 1.0
C      1  0.5019080000000  0.5062760000000  0.4324820000000 1.0
C      1  0.4825800000000  0.5733010000000  0.5534240000000 1.0
C      1  0.4897580000000  0.4712800000000  0.5352540000000 1.0
C      1  0.4928280000000  0.5921850000000  0.5270520000000 1.0
C      1  0.4753590000000  0.5388810000000  0.5218090000000 1.0
C      1  0.4752250000000  0.4818230000000  0.5641420000000 1.0
C      1  0.5279150000000  0.4832450000000  0.4956450000000 1.0
C      1  0.5110240000000  0.5210710000000  0.5636950000000 1.0
C      1  0.5440500000000  0.4218860000000  0.4463020000000 1.0
C      1  0.5605870000000  0.4855810000000  0.4156920000000 1.0
C      1  0.4009090000000  0.4589480000000  0.4956860000000 1.0
C      1  0.5919860000000  0.5450070000000  0.5081350000000 1.0
C      1  0.4621120000000  0.5342650000000  0.5807910000000 1.0
C      1  0.5928920000000  0.5047380000000  0.4783180000000 1.0
C      1  0.5104140000000  0.4653230000000  0.4055580000000 1.0
C      1  0.5321160000000  0.5022280000000  0.4381340000000 1.0
C      1  0.5212370000000  0.5144990000000  0.5322610000000 1.0
C      1  0.5791330000000  0.4245160000000  0.5298850000000 1.0
C      1  0.5645490000000  0.5827930000000  0.4918090000000 1.0
C      1  0.4129730000000  0.4684850000000  0.4507200000000 1.0
C      1  0.4002210000000  0.5126240000000  0.5106160000000 1.0
C      1  0.4184400000000  0.5759780000000  0.4807470000000 1.0
C      1  0.5476880000000  0.5303630000000  0.4321120000000 1.0
C      1  0.5077120000000  0.5602050000000  0.5725220000000 1.0
C      1  0.5717770000000  0.5067260000000  0.4362590000000 1.0
C      1  0.5015640000000  0.5516900000000  0.4667460000000 1.0
C      1  0.5283390000000  0.4326390000000  0.5498410000000 1.0
C      1  0.5313140000000  0.4970840000000  0.4675400000000 1.0
C      1  0.4293960000000  0.4425750000000  0.4487470000000 1.0
C      1  0.4966310000000  0.4485590000000  0.5674330000000 1.0
C      1  0.4848130000000  0.4936600000000  0.4575430000000 1.0
C      1  0.4518140000000  0.5621020000000  0.5442160000000 1.0
C      1  0.4321030000000  0.4746430000000  0.5345680000000 1.0
C      1  0.5843630000000  0.4520910000000  0.4873110000000 1.0
C      1  0.4298140000000  0.4905630000000  0.4694480000000 1.0
C      1  0.5262190000000  0.4060010000000  0.4596470000000 1.0
C      1  0.4720570000000  0.4197360000000  0.4737080000000 1.0
C      1  0.4755590000000  0.4702690000000  0.5043650000000 1.0
C      1  0.4081270000000  0.5100210000000  0.4519000000000 1.0
C      1  0.4045780000000  0.4445530000000  0.4704010000000 1.0
C      1  0.5743370000000  0.5370020000000  0.4521600000000 1.0
C      1  0.5867880000000  0.5217990000000  0.5256860000000 1.0
C      1  0.5350020000000  0.4633190000000  0.5928960000000 1.0
C      1  0.5855470000000  0.4893920000000  0.4570280000000 1.0
C      1  0.4534360000000  0.4418590000000  0.4285580000000 1.0
C      1  0.4330920000000  0.5185040000000  0.5041400000000 1.0
C      1  0.5333810000000  0.4051120000000  0.5321330000000 1.0
C      1  0.6045090000000  0.4222030000000  0.5398740000000 1.0
C      1  0.4351120000000  0.5043650000000  0.5349960000000 1.0
C      1  0.4630630000000  0.5179360000000  0.5404000000000 1.0
C      1  0.4443920000000  0.5493740000000  0.5146140000000 1.0
C      1  0.5447460000000  0.5390270000000  0.5266280000000 1.0
C      1  0.5471450000000  0.4943730000000  0.5412610000000 1.0
C      1  0.3792470000000  0.5253220000000  0.4970330000000 1.0
C      1  0.5197940000000  0.5660920000000  0.5423710000000 1.0
C      1  0.4836460000000  0.5745050000000  0.4490130000000 1.0
C      1  0.5408230000000  0.5366920000000  0.5586130000000 1.0
C      1  0.4682930000000  0.4857910000000  0.3936860000000 1.0
C      1  0.5429940000000  0.4389890000000  0.5020750000000 1.0
C      1  0.5014080000000  0.4128320000000  0.4803260000000 1.0
C      1  0.5314230000000  0.5427300000000  0.5897670000000 1.0
C      1  0.4924750000000  0.4636410000000  0.4558490000000 1.0
C      1  0.4839180000000  0.4386460000000  0.5431620000000 1.0
C      1  0.4541680000000  0.5002040000000  0.4477630000000 1.0
C      1  0.5685710000000  0.4546280000000  0.5181300000000 1.0
C      1  0.5932710000000  0.5359140000000  0.4804340000000 1.0
C      1  0.4894170000000  0.5078800000000  0.4879760000000 1.0
C      1  0.5390910000000  0.5664610000000  0.5073490000000 1.0
C      1  0.5500010000000  0.5305110000000  0.4941130000000 1.0
C      1  0.5708260000000  0.4255170000000  0.4908980000000 1.0
C      1  0.5245780000000  0.5982560000000  0.5349190000000 1.0
C      1  0.5197590000000  0.4655470000000  0.5501940000000 1.0
C      1  0.5583130000000  0.5541260000000  0.4746160000000 1.0
C      1  0.4956640000000  0.4927600000000  0.4060500000000 1.0
C      1  0.5329960000000  0.4707840000000  0.4252170000000 1.0
C      1  0.4293880000000  0.5531880000000  0.4661330000000 1.0
C      1  0.4221550000000  0.5267990000000  0.4736940000000 1.0
C      1  0.5776790000000  0.5680550000000  0.5167550000000 1.0
C      1  0.5160060000000  0.4380040000000  0.5193020000000 1.0
C      1  0.5013800000000  0.5286800000000  0.5953990000000 1.0
C      1  0.5490530000000  0.5143620000000  0.5804430000000 1.0
C      1  0.4787520000000  0.4177350000000  0.5274340000000 1.0
C      1  0.5746930000000  0.5133860000000  0.5482300000000 1.0
C      1  0.4812890000000  0.5528390000000  0.5926440000000 1.0
C      1  0.5781930000000  0.4629310000000  0.4617680000000 1.0
C      1  0.5334540000000  0.4866620000000  0.5714140000000 1.0
C      1  0.4725600000000  0.5365160000000  0.4894840000000 1.0
C      1  0.4583120000000  0.4971880000000  0.4966020000000 1.0
C      1  0.4547610000000  0.4689240000000  0.4776200000000 1.0
C      1  0.4391750000000  0.4416920000000  0.5315030000000 1.0
C      1  0.4585900000000  0.5305840000000  0.4403360000000 1.0
C      1  0.5397930000000  0.5827220000000  0.4709220000000 1.0
C      1  0.4881540000000  0.4646210000000  0.5905600000000 1.0
C      1  0.5045490000000  0.4598110000000  0.4997530000000 1.0
C      1  0.4110000000000  0.4849920000000  0.4972450000000 1.0
C      1  0.5729620000000  0.4918430000000  0.5715330000000 1.0
C      1  0.5108510000000  0.4633080000000  0.6079750000000 1.0
C      1  0.5246650000000  0.4560520000000  0.4536200000000 1.0
C      1  0.4525340000000  0.4616170000000  0.5541480000000 1.0
C      1  0.4518130000000  0.4118180000000  0.4903960000000 1.0
C      1  0.4424810000000  0.5747380000000  0.4970200000000 1.0
C      1  0.5487700000000  0.4474950000000  0.5703150000000 1.0
C      1  0.3882470000000  0.5090600000000  0.4354310000000 1.0
C      1  0.4495170000000  0.4815210000000  0.4255780000000 1.0
C      1  0.5186200000000  0.4397850000000  0.4795240000000 1.0
C      1  0.4776390000000  0.4575870000000  0.4102510000000 1.0
C      1  0.5573930000000  0.4490790000000  0.4482130000000 1.0
C      1  0.5124580000000  0.5822250000000  0.4755990000000 1.0
C      1  0.4892970000000  0.5315900000000  0.4461700000000 1.0
C      1  0.4450520000000  0.4595160000000  0.4007340000000 1.0
C      1  0.4677760000000  0.4454490000000  0.4583590000000 1.0
C      1  0.5295080000000  0.5540250000000  0.4234570000000 1.0
C      1  0.4409170000000  0.5436670000000  0.5652240000000 1.0
C      1  0.5204860000000  0.5207090000000  0.4837780000000 1.0
C      1  0.5545440000000  0.4845930000000  0.5102880000000 1.0
C      1  0.4785120000000  0.5119410000000  0.5665500000000 1.0
C      1  0.5069420000000  0.5638000000000  0.4291210000000 1.0
C      1  0.5038960000000  0.4956960000000  0.5162430000000 1.0
C      1  0.4610910000000  0.5945350000000  0.5393130000000 1.0
C      1  0.5049370000000  0.4064850000000  0.5129740000000 1.0
C      1  0.4616740000000  0.5537850000000  0.4646570000000 1.0
C      1  0.4923630000000  0.5920830000000  0.4946040000000 1.0
END
