TITL C-2848495-5024-321 0.000162535428876132 125000 -709.024579223511 0 0 132 (C1) n - 1
REM
REM in /home/bkarasulu/work/CARBON/AIRSS/Generating-Clusters/AIREBO/with-SteepDescent/Only-C1/SD-CG-opt/Try1-1.4A-POS3A/HFTN-CG
REM
REM
REM
REM
REM
REM ./C.cell (11c1c37f851c82e70ff6c80c92926a4b)
REM
REM compiler GCC version 9.2.1 20190827 (Red Hat 9.2.1-1)
REM options -cpp -mtune=generic -march=x86-64 -g -O0 -fpre-include=/usr/include/finclude/math-vector-fortran.h
REM seed -6949749 -1335750782 -155320801 1708895186 1200612043 -250993724 175797115 1596014412 737357504 483254256 -1375434641 -603085215 866566587 -2049279763 -321129498 1554719353 -1561874148 118497726 -572815002 1070520246 -239650408 -1726648486 -1234063646 504952213 189349277 -1909538279 1106982754 551407257 282263043 -1292412760 878882500 456072949 -231785466
REM
CELL 1.54180   50.00000   50.00000   50.00000   90.00000   90.00000   90.00000
LATT -1
SFAC C  
C      1  0.5345040000000  0.5093900000000  0.5560870000000 1.0
C      1  0.5254250000000  0.5319090000000  0.5314710000000 1.0
C      1  0.4597570000000  0.5561750000000  0.4275700000000 1.0
C      1  0.4313520000000  0.4639940000000  0.4178070000000 1.0
C      1  0.4997150000000  0.5746430000000  0.5435330000000 1.0
C      1  0.5756730000000  0.5704010000000  0.4742790000000 1.0
C      1  0.4131370000000  0.4679110000000  0.4464460000000 1.0
C      1  0.4055730000000  0.4539460000000  0.4739760000000 1.0
C      1  0.5597130000000  0.5115710000000  0.5343280000000 1.0
C      1  0.4909550000000  0.4432410000000  0.4131060000000 1.0
C      1  0.4428670000000  0.4852520000000  0.4890170000000 1.0
C      1  0.5688310000000  0.4685720000000  0.5680120000000 1.0
C      1  0.5280000000000  0.4253510000000  0.5646950000000 1.0
C      1  0.4883930000000  0.5251410000000  0.5735550000000 1.0
C      1  0.4241350000000  0.4576170000000  0.4935570000000 1.0
C      1  0.5325150000000  0.4379110000000  0.4613090000000 1.0
C      1  0.4046480000000  0.4920480000000  0.4982060000000 1.0
C      1  0.4320390000000  0.4746860000000  0.5578770000000 1.0
C      1  0.4512810000000  0.4499760000000  0.5602720000000 1.0
C      1  0.5290360000000  0.4662910000000  0.4149300000000 1.0
C      1  0.4965390000000  0.5832630000000  0.5107390000000 1.0
C      1  0.5037370000000  0.5517840000000  0.5023880000000 1.0
C      1  0.4908480000000  0.4692970000000  0.5040260000000 1.0
C      1  0.4165280000000  0.5174280000000  0.4517000000000 1.0
C      1  0.5321870000000  0.4991680000000  0.5884370000000 1.0
C      1  0.5778990000000  0.5447100000000  0.5468330000000 1.0
C      1  0.4435070000000  0.5627890000000  0.4567020000000 1.0
C      1  0.4636890000000  0.5896860000000  0.5047610000000 1.0
C      1  0.4270750000000  0.5089830000000  0.5380820000000 1.0
C      1  0.4670440000000  0.4385260000000  0.5131810000000 1.0
C      1  0.4472950000000  0.4303970000000  0.5407370000000 1.0
C      1  0.5317940000000  0.5005660000000  0.4863960000000 1.0
C      1  0.5687850000000  0.4779370000000  0.4515220000000 1.0
C      1  0.5035280000000  0.4110610000000  0.4658240000000 1.0
C      1  0.4518690000000  0.4116420000000  0.4989230000000 1.0
C      1  0.5447550000000  0.5783410000000  0.5181120000000 1.0
C      1  0.5455250000000  0.5235150000000  0.5068120000000 1.0
C      1  0.5394080000000  0.5175970000000  0.4574360000000 1.0
C      1  0.4459150000000  0.4645890000000  0.4480420000000 1.0
C      1  0.5951290000000  0.4522670000000  0.5224940000000 1.0
C      1  0.4063330000000  0.4938740000000  0.4659900000000 1.0
C      1  0.4497260000000  0.4660120000000  0.5232760000000 1.0
C      1  0.4270350000000  0.5395470000000  0.5516060000000 1.0
C      1  0.5639190000000  0.5594300000000  0.5016220000000 1.0
C      1  0.5576700000000  0.5015240000000  0.4336190000000 1.0
C      1  0.5812410000000  0.5409760000000  0.5183790000000 1.0
C      1  0.4953740000000  0.5076930000000  0.4251060000000 1.0
C      1  0.4791260000000  0.5374720000000  0.4877720000000 1.0
C      1  0.4926940000000  0.4276120000000  0.4936960000000 1.0
C      1  0.5201990000000  0.4498970000000  0.5440470000000 1.0
C      1  0.4590890000000  0.5282850000000  0.5093660000000 1.0
C      1  0.4488450000000  0.5947350000000  0.5510860000000 1.0
C      1  0.5589150000000  0.5349560000000  0.4275540000000 1.0
C      1  0.5919160000000  0.5197740000000  0.4766480000000 1.0
C      1  0.5720450000000  0.4795910000000  0.5053370000000 1.0
C      1  0.5324720000000  0.5505990000000  0.4921290000000 1.0
C      1  0.4489140000000  0.4134500000000  0.4737990000000 1.0
C      1  0.5622860000000  0.4420360000000  0.4671150000000 1.0
C      1  0.5055250000000  0.5384010000000  0.4194000000000 1.0
C      1  0.4931170000000  0.4470650000000  0.5884040000000 1.0
C      1  0.5661130000000  0.4649150000000  0.5349470000000 1.0
C      1  0.5443340000000  0.4255240000000  0.5083890000000 1.0
C      1  0.4782420000000  0.5002010000000  0.5105920000000 1.0
C      1  0.4579870000000  0.4954770000000  0.5353210000000 1.0
C      1  0.4812250000000  0.5588290000000  0.4115100000000 1.0
C      1  0.4976930000000  0.4765420000000  0.4116520000000 1.0
C      1  0.4634310000000  0.4594530000000  0.4864880000000 1.0
C      1  0.5565340000000  0.4818780000000  0.4800260000000 1.0
C      1  0.4764830000000  0.5583370000000  0.4637020000000 1.0
C      1  0.5003920000000  0.4186490000000  0.4347560000000 1.0
C      1  0.4507640000000  0.5506020000000  0.5312030000000 1.0
C      1  0.5317170000000  0.4287660000000  0.4285700000000 1.0
C      1  0.4594070000000  0.4865480000000  0.5742230000000 1.0
C      1  0.5363730000000  0.4768620000000  0.5463490000000 1.0
C      1  0.6018870000000  0.4549830000000  0.4953470000000 1.0
C      1  0.4376490000000  0.5120450000000  0.4341030000000 1.0
C      1  0.5182660000000  0.5377930000000  0.5962060000000 1.0
C      1  0.5548570000000  0.4534000000000  0.4329250000000 1.0
C      1  0.5083620000000  0.5090230000000  0.4551500000000 1.0
C      1  0.4535130000000  0.5443380000000  0.5705050000000 1.0
C      1  0.5317900000000  0.5610340000000  0.4631830000000 1.0
C      1  0.4930870000000  0.5954970000000  0.4788820000000 1.0
C      1  0.4157000000000  0.5392740000000  0.4918210000000 1.0
C      1  0.5887920000000  0.4596440000000  0.4720690000000 1.0
C      1  0.5613340000000  0.4920150000000  0.5798740000000 1.0
C      1  0.4204080000000  0.5426140000000  0.4650760000000 1.0
C      1  0.4652080000000  0.4930240000000  0.4277080000000 1.0
C      1  0.5036510000000  0.4861200000000  0.5460350000000 1.0
C      1  0.5404780000000  0.5362640000000  0.5760410000000 1.0
C      1  0.4821780000000  0.4647270000000  0.5614900000000 1.0
C      1  0.4850890000000  0.4637760000000  0.6098640000000 1.0
C      1  0.5359620000000  0.5407830000000  0.4105740000000 1.0
C      1  0.5239680000000  0.4143560000000  0.4921410000000 1.0
C      1  0.4839790000000  0.5106080000000  0.5485300000000 1.0
C      1  0.4462900000000  0.5813930000000  0.5243290000000 1.0
C      1  0.5310700000000  0.5620110000000  0.5397160000000 1.0
C      1  0.5880020000000  0.5096350000000  0.5065120000000 1.0
C      1  0.5178650000000  0.4623990000000  0.4447950000000 1.0
C      1  0.5103340000000  0.4816770000000  0.4689650000000 1.0
C      1  0.5021440000000  0.5076580000000  0.5971180000000 1.0
C      1  0.5717310000000  0.5279790000000  0.4595350000000 1.0
C      1  0.4649750000000  0.4651750000000  0.4128980000000 1.0
C      1  0.5372030000000  0.4251930000000  0.5346270000000 1.0
C      1  0.5485450000000  0.4881980000000  0.4096360000000 1.0
C      1  0.4419920000000  0.5124250000000  0.5684850000000 1.0
C      1  0.4879740000000  0.4552960000000  0.4439930000000 1.0
C      1  0.5597450000000  0.5578620000000  0.4519710000000 1.0
C      1  0.5054920000000  0.5544290000000  0.5694360000000 1.0
C      1  0.4919780000000  0.4504880000000  0.5323320000000 1.0
C      1  0.4779510000000  0.5533820000000  0.5893480000000 1.0
C      1  0.4595370000000  0.5300630000000  0.4406430000000 1.0
C      1  0.4785360000000  0.4886570000000  0.6005150000000 1.0
C      1  0.4606770000000  0.5872520000000  0.4727440000000 1.0
C      1  0.4307030000000  0.5129770000000  0.5045110000000 1.0
C      1  0.4274880000000  0.4409260000000  0.5175900000000 1.0
C      1  0.5533080000000  0.5552370000000  0.5598130000000 1.0
C      1  0.4792630000000  0.5185920000000  0.4619340000000 1.0
C      1  0.5933150000000  0.5088980000000  0.5387960000000 1.0
C      1  0.5163800000000  0.4891320000000  0.5145530000000 1.0
C      1  0.5622740000000  0.4475360000000  0.4992450000000 1.0
C      1  0.4966840000000  0.5262610000000  0.5223880000000 1.0
C      1  0.5267380000000  0.5976940000000  0.5097050000000 1.0
C      1  0.4700820000000  0.5679900000000  0.5531510000000 1.0
C      1  0.4587390000000  0.4914970000000  0.4610540000000 1.0
C      1  0.4664750000000  0.4185380000000  0.4322710000000 1.0
C      1  0.5734570000000  0.5164220000000  0.5651740000000 1.0
C      1  0.5116620000000  0.4527590000000  0.4828190000000 1.0
C      1  0.4183860000000  0.4787230000000  0.5269400000000 1.0
C      1  0.5118920000000  0.5868420000000  0.4586180000000 1.0
C      1  0.4642860000000  0.4394340000000  0.4590130000000 1.0
C      1  0.5031680000000  0.5581810000000  0.4449040000000 1.0
C      1  0.5097650000000  0.4247890000000  0.5855340000000 1.0
END
