TITL C-2847956-8218-529 -0.00112959243854581 125000 -442.785966865442 0 0 81 (C1) n - 1
REM
REM in /home/bkarasulu/work/CARBON/AIRSS/Generating-Clusters/AIREBO/with-SteepDescent/Only-C1/SD-CG-opt/Try1-1.4A-POS3A/HFTN-CG
REM
REM
REM
REM
REM
REM ./C.cell (11c1c37f851c82e70ff6c80c92926a4b)
REM
REM compiler GCC version 9.2.1 20190827 (Red Hat 9.2.1-1)
REM options -cpp -mtune=generic -march=x86-64 -g -O0 -fpre-include=/usr/include/finclude/math-vector-fortran.h
REM seed 348643372 1007909799 -1453409097 -1997859971 764472570 958483909 288779093 -1829478512 -2146879049 831306590 -1366947553 1739214483 -744246075 -799118014 213457453 -387680994 206341609 -1356513329 -1252620975 1403143153 2124572062 -1586575437 1181977002 1389958513 -1848936760 578959826 1857155326 727017800 -2117541285 -2110807406 558932989 -559707807 1013904658
REM
CELL 1.54180   50.00000   50.00000   50.00000   90.00000   90.00000   90.00000
LATT -1
SFAC C  
C      1  0.5111560000000  0.5083880000000  0.4253640000000 1.0
C      1  0.5220360000000  0.4979920000000  0.5739310000000 1.0
C      1  0.4969360000000  0.4514440000000  0.4774570000000 1.0
C      1  0.5524290000000  0.5377300000000  0.5339020000000 1.0
C      1  0.5082600000000  0.4367620000000  0.5398700000000 1.0
C      1  0.5594160000000  0.5208380000000  0.5077240000000 1.0
C      1  0.4108490000000  0.4966680000000  0.5305110000000 1.0
C      1  0.4505690000000  0.4248860000000  0.4910240000000 1.0
C      1  0.4620540000000  0.5623070000000  0.5499760000000 1.0
C      1  0.5191470000000  0.4051910000000  0.4974970000000 1.0
C      1  0.5134190000000  0.5694950000000  0.5312740000000 1.0
C      1  0.5605720000000  0.4924840000000  0.5660250000000 1.0
C      1  0.4276530000000  0.5243240000000  0.4546340000000 1.0
C      1  0.5223810000000  0.4882790000000  0.5982640000000 1.0
C      1  0.4411040000000  0.4998840000000  0.4740100000000 1.0
C      1  0.5541570000000  0.4555740000000  0.5290170000000 1.0
C      1  0.4721740000000  0.5131240000000  0.4285340000000 1.0
C      1  0.5709720000000  0.5028880000000  0.4812460000000 1.0
C      1  0.5328390000000  0.4399710000000  0.4647240000000 1.0
C      1  0.4702490000000  0.4727970000000  0.5050730000000 1.0
C      1  0.4318960000000  0.5140570000000  0.5236680000000 1.0
C      1  0.5271860000000  0.5276620000000  0.4164860000000 1.0
C      1  0.4592220000000  0.4457570000000  0.4655270000000 1.0
C      1  0.4740060000000  0.5047210000000  0.4813290000000 1.0
C      1  0.4530380000000  0.5620720000000  0.5231740000000 1.0
C      1  0.4821640000000  0.5475080000000  0.5618850000000 1.0
C      1  0.5217130000000  0.5779810000000  0.4855600000000 1.0
C      1  0.5887560000000  0.5096080000000  0.5163410000000 1.0
C      1  0.5212400000000  0.5402610000000  0.5365440000000 1.0
C      1  0.5032620000000  0.4756200000000  0.4298780000000 1.0
C      1  0.4608420000000  0.5380870000000  0.4261750000000 1.0
C      1  0.4870550000000  0.4507010000000  0.4465960000000 1.0
C      1  0.4594390000000  0.5570520000000  0.4722900000000 1.0
C      1  0.5031650000000  0.5742770000000  0.5069890000000 1.0
C      1  0.4398230000000  0.5500780000000  0.4966120000000 1.0
C      1  0.5971170000000  0.5168840000000  0.4752910000000 1.0
C      1  0.4948380000000  0.4793210000000  0.4902030000000 1.0
C      1  0.5200180000000  0.4325110000000  0.4921410000000 1.0
C      1  0.5600910000000  0.5605940000000  0.5102840000000 1.0
C      1  0.4701470000000  0.4833050000000  0.4308470000000 1.0
C      1  0.4869500000000  0.5184310000000  0.5722330000000 1.0
C      1  0.4906750000000  0.5531650000000  0.4656150000000 1.0
C      1  0.5363910000000  0.5257110000000  0.4851050000000 1.0
C      1  0.4760800000000  0.5246870000000  0.5072760000000 1.0
C      1  0.5506880000000  0.5433010000000  0.4627650000000 1.0
C      1  0.4524230000000  0.4761340000000  0.4517870000000 1.0
C      1  0.5412400000000  0.4657960000000  0.4640940000000 1.0
C      1  0.4501330000000  0.4643190000000  0.4895970000000 1.0
C      1  0.4605190000000  0.5057910000000  0.5311340000000 1.0
C      1  0.5198300000000  0.5012370000000  0.4714090000000 1.0
C      1  0.5466120000000  0.5643420000000  0.4864520000000 1.0
C      1  0.5073760000000  0.5742490000000  0.4614520000000 1.0
C      1  0.5150930000000  0.4331580000000  0.4446000000000 1.0
C      1  0.4448720000000  0.5449310000000  0.4481590000000 1.0
C      1  0.5423720000000  0.4690560000000  0.5554050000000 1.0
C      1  0.4235830000000  0.4761880000000  0.4909970000000 1.0
C      1  0.5433830000000  0.4845570000000  0.4889280000000 1.0
C      1  0.5193980000000  0.4837440000000  0.5130160000000 1.0
C      1  0.4778480000000  0.5583690000000  0.5027370000000 1.0
C      1  0.5847130000000  0.4743790000000  0.4936330000000 1.0
C      1  0.4516210000000  0.4339010000000  0.5203830000000 1.0
C      1  0.5250530000000  0.4504290000000  0.5169860000000 1.0
C      1  0.4548540000000  0.4779010000000  0.5511900000000 1.0
C      1  0.5141910000000  0.5364810000000  0.5676350000000 1.0
C      1  0.5756410000000  0.4596260000000  0.5143250000000 1.0
C      1  0.5206820000000  0.4455650000000  0.5630350000000 1.0
C      1  0.5029430000000  0.5314920000000  0.4875520000000 1.0
C      1  0.4934490000000  0.5054780000000  0.4542580000000 1.0
C      1  0.4442970000000  0.4768440000000  0.5777000000000 1.0
C      1  0.4362060000000  0.4570370000000  0.5318350000000 1.0
C      1  0.5125100000000  0.4825660000000  0.5463030000000 1.0
C      1  0.4329530000000  0.5232850000000  0.4973230000000 1.0
C      1  0.4838240000000  0.4955500000000  0.5536720000000 1.0
C      1  0.5489280000000  0.5331630000000  0.4318360000000 1.0
C      1  0.4157910000000  0.4716910000000  0.5181350000000 1.0
C      1  0.5134020000000  0.5171270000000  0.5165400000000 1.0
C      1  0.5441660000000  0.5211670000000  0.5625570000000 1.0
C      1  0.5540600000000  0.5090960000000  0.4524040000000 1.0
C      1  0.4813980000000  0.4353840000000  0.5313220000000 1.0
C      1  0.5350550000000  0.4811600000000  0.4407240000000 1.0
C      1  0.4754100000000  0.4644310000000  0.5300170000000 1.0
END
