TITL C-2847951-7423-540 -0.0009559527817211 125000 -885.136661297238 0 0 169 (C1) n - 1
REM
REM in /home/bkarasulu/work/CARBON/AIRSS/Generating-Clusters/AIREBO/with-SteepDescent/Only-C1/SD-CG-opt/Try1-1.4A-POS3A/HFTN-CG
REM
REM
REM
REM
REM
REM ./C.cell (11c1c37f851c82e70ff6c80c92926a4b)
REM
REM compiler GCC version 9.2.1 20190827 (Red Hat 9.2.1-1)
REM options -cpp -mtune=generic -march=x86-64 -g -O0 -fpre-include=/usr/include/finclude/math-vector-fortran.h
REM seed -101384312 -949464352 -1789261832 1544499841 -1696136161 142125884 -899148448 -1988915320 1897520505 33754587 -1064263123 -1023373076 -174843200 1861777195 -1145451752 683842119 1377798452 945216452 -703749938 487797907 -1199221350 -579980301 1844113659 -214292662 1597230582 524903569 -1959210604 -1920017797 1221178018 852349647 -1239280216 302163632 346905268
REM
CELL 1.54180   50.00000   50.00000   50.00000   90.00000   90.00000   90.00000
LATT -1
SFAC C  
C      1  0.5402020000000  0.4473230000000  0.5125780000000 1.0
C      1  0.5273610000000  0.5458100000000  0.4241430000000 1.0
C      1  0.4523280000000  0.5221430000000  0.4009380000000 1.0
C      1  0.4180880000000  0.5049920000000  0.5192160000000 1.0
C      1  0.4021820000000  0.4807190000000  0.4789170000000 1.0
C      1  0.4453060000000  0.5039300000000  0.5736310000000 1.0
C      1  0.4655520000000  0.4936960000000  0.5480980000000 1.0
C      1  0.5591890000000  0.4845180000000  0.5003310000000 1.0
C      1  0.5486770000000  0.5941870000000  0.5165880000000 1.0
C      1  0.4767090000000  0.4429300000000  0.5581900000000 1.0
C      1  0.6051370000000  0.5220670000000  0.4998080000000 1.0
C      1  0.5867270000000  0.4648840000000  0.5533190000000 1.0
C      1  0.4468670000000  0.5273960000000  0.5885840000000 1.0
C      1  0.4562640000000  0.5456770000000  0.5470750000000 1.0
C      1  0.4396320000000  0.4870090000000  0.4632010000000 1.0
C      1  0.3813610000000  0.4603240000000  0.4613000000000 1.0
C      1  0.6123870000000  0.5148910000000  0.4673310000000 1.0
C      1  0.4722020000000  0.4989070000000  0.4266590000000 1.0
C      1  0.4995230000000  0.5711560000000  0.5168130000000 1.0
C      1  0.5657450000000  0.4957820000000  0.4634130000000 1.0
C      1  0.5055250000000  0.4953560000000  0.5143450000000 1.0
C      1  0.5246130000000  0.5013160000000  0.5858980000000 1.0
C      1  0.5524090000000  0.4375500000000  0.4008340000000 1.0
C      1  0.4543030000000  0.4495340000000  0.5107990000000 1.0
C      1  0.4895870000000  0.4670130000000  0.5043840000000 1.0
C      1  0.4888800000000  0.4743720000000  0.4368270000000 1.0
C      1  0.4681180000000  0.6078250000000  0.4967090000000 1.0
C      1  0.6223000000000  0.4950650000000  0.4905400000000 1.0
C      1  0.4344670000000  0.4212200000000  0.4907870000000 1.0
C      1  0.3976430000000  0.5234270000000  0.5375250000000 1.0
C      1  0.4959110000000  0.4507700000000  0.4579530000000 1.0
C      1  0.4352350000000  0.5772060000000  0.4586550000000 1.0
C      1  0.4962430000000  0.4520390000000  0.5344580000000 1.0
C      1  0.4554190000000  0.4310470000000  0.4374650000000 1.0
C      1  0.5163210000000  0.4939210000000  0.4094200000000 1.0
C      1  0.4157710000000  0.5095720000000  0.4728250000000 1.0
C      1  0.4442710000000  0.5890460000000  0.4854280000000 1.0
C      1  0.4803520000000  0.5983820000000  0.5506970000000 1.0
C      1  0.5135410000000  0.4050850000000  0.4905190000000 1.0
C      1  0.5678940000000  0.5688480000000  0.5407350000000 1.0
C      1  0.4955700000000  0.5703680000000  0.5835970000000 1.0
C      1  0.4803000000000  0.5552730000000  0.4716000000000 1.0
C      1  0.4886420000000  0.6006030000000  0.5117820000000 1.0
C      1  0.4122320000000  0.5640310000000  0.5134880000000 1.0
C      1  0.5326760000000  0.5107290000000  0.4800860000000 1.0
C      1  0.4538630000000  0.5234120000000  0.4522140000000 1.0
C      1  0.4085380000000  0.4573740000000  0.5251050000000 1.0
C      1  0.5093780000000  0.5997080000000  0.5382480000000 1.0
C      1  0.5443660000000  0.4801190000000  0.5928720000000 1.0
C      1  0.5698750000000  0.5460070000000  0.5622720000000 1.0
C      1  0.4726320000000  0.3984490000000  0.4665510000000 1.0
C      1  0.4006670000000  0.5378780000000  0.4711090000000 1.0
C      1  0.5280320000000  0.4756450000000  0.4981430000000 1.0
C      1  0.5265890000000  0.4475880000000  0.4631010000000 1.0
C      1  0.5071740000000  0.4299590000000  0.4200170000000 1.0
C      1  0.3770210000000  0.5321740000000  0.5149390000000 1.0
C      1  0.5876660000000  0.4557080000000  0.5147540000000 1.0
C      1  0.5002660000000  0.5895470000000  0.4749280000000 1.0
C      1  0.5580650000000  0.5182570000000  0.4962550000000 1.0
C      1  0.6033990000000  0.4814790000000  0.5307180000000 1.0
C      1  0.4426700000000  0.4440620000000  0.5611920000000 1.0
C      1  0.4560580000000  0.5786420000000  0.5387350000000 1.0
C      1  0.5352730000000  0.5170890000000  0.4500710000000 1.0
C      1  0.4192430000000  0.4651010000000  0.5518680000000 1.0
C      1  0.4821300000000  0.4978980000000  0.6036310000000 1.0
C      1  0.4801630000000  0.5836850000000  0.4529140000000 1.0
C      1  0.6086770000000  0.4709750000000  0.4928090000000 1.0
C      1  0.4863780000000  0.5202460000000  0.5522840000000 1.0
C      1  0.4312240000000  0.5434430000000  0.4583190000000 1.0
C      1  0.4407560000000  0.5040160000000  0.4272730000000 1.0
C      1  0.4190090000000  0.5938310000000  0.5047920000000 1.0
C      1  0.5846610000000  0.4853600000000  0.4302450000000 1.0
C      1  0.5956350000000  0.5529230000000  0.4949160000000 1.0
C      1  0.5740070000000  0.5555920000000  0.4680210000000 1.0
C      1  0.5908930000000  0.5131090000000  0.5293610000000 1.0
C      1  0.5414070000000  0.5157380000000  0.4166560000000 1.0
C      1  0.4235560000000  0.4966510000000  0.5512810000000 1.0
C      1  0.4871160000000  0.4348510000000  0.4935980000000 1.0
C      1  0.5657570000000  0.5323020000000  0.4458340000000 1.0
C      1  0.4037330000000  0.4795900000000  0.5089260000000 1.0
C      1  0.5203480000000  0.4371130000000  0.4905100000000 1.0
C      1  0.5446810000000  0.4529690000000  0.5855240000000 1.0
C      1  0.4771580000000  0.4046190000000  0.5471300000000 1.0
C      1  0.5069860000000  0.5260980000000  0.4890120000000 1.0
C      1  0.4609880000000  0.4485600000000  0.4790210000000 1.0
C      1  0.4563680000000  0.4289370000000  0.5356100000000 1.0
C      1  0.5874370000000  0.5181640000000  0.5628070000000 1.0
C      1  0.4675420000000  0.3908320000000  0.5184470000000 1.0
C      1  0.4874150000000  0.5257500000000  0.4298020000000 1.0
C      1  0.4705150000000  0.5485420000000  0.5778180000000 1.0
C      1  0.4961270000000  0.4805720000000  0.4738840000000 1.0
C      1  0.4756730000000  0.4782400000000  0.5766460000000 1.0
C      1  0.4894600000000  0.4688630000000  0.6127490000000 1.0
C      1  0.4983900000000  0.4080450000000  0.5728880000000 1.0
C      1  0.4591700000000  0.4633890000000  0.4484740000000 1.0
C      1  0.3918850000000  0.5481180000000  0.4973200000000 1.0
C      1  0.4972220000000  0.3997740000000  0.5132260000000 1.0
C      1  0.5241770000000  0.5658640000000  0.5738220000000 1.0
C      1  0.4575150000000  0.5727740000000  0.4368410000000 1.0
C      1  0.5485090000000  0.5222000000000  0.5559440000000 1.0
C      1  0.4812450000000  0.5190570000000  0.5186640000000 1.0
C      1  0.4078760000000  0.5545170000000  0.5423130000000 1.0
C      1  0.5508700000000  0.4665810000000  0.4028840000000 1.0
C      1  0.5316960000000  0.5614450000000  0.4540260000000 1.0
C      1  0.5530710000000  0.4198010000000  0.5265230000000 1.0
C      1  0.5199620000000  0.4341920000000  0.5700820000000 1.0
C      1  0.5053260000000  0.4895020000000  0.5690190000000 1.0
C      1  0.5663730000000  0.4480250000000  0.5643150000000 1.0
C      1  0.5910860000000  0.5471020000000  0.5284850000000 1.0
C      1  0.4937100000000  0.4504520000000  0.5843890000000 1.0
C      1  0.5343860000000  0.4760020000000  0.4310910000000 1.0
C      1  0.4597510000000  0.4909620000000  0.4903370000000 1.0
C      1  0.4845930000000  0.5960040000000  0.5780730000000 1.0
C      1  0.5037780000000  0.5211350000000  0.4042440000000 1.0
C      1  0.4642190000000  0.5386520000000  0.4966410000000 1.0
C      1  0.5661440000000  0.4385970000000  0.4483440000000 1.0
C      1  0.4630110000000  0.4799790000000  0.5211720000000 1.0
C      1  0.4293510000000  0.5301050000000  0.5480410000000 1.0
C      1  0.5417590000000  0.4070820000000  0.4729910000000 1.0
C      1  0.5369860000000  0.4420960000000  0.4311960000000 1.0
C      1  0.5898450000000  0.5111160000000  0.4485600000000 1.0
C      1  0.4904610000000  0.4728100000000  0.4028980000000 1.0
C      1  0.5729950000000  0.5748670000000  0.5076510000000 1.0
C      1  0.4335430000000  0.4366000000000  0.4628970000000 1.0
C      1  0.5646390000000  0.4745690000000  0.5293480000000 1.0
C      1  0.4243930000000  0.4385170000000  0.5130670000000 1.0
C      1  0.4460000000000  0.5647590000000  0.5093200000000 1.0
C      1  0.5376950000000  0.4507920000000  0.5462740000000 1.0
C      1  0.5432870000000  0.4828520000000  0.5522800000000 1.0
C      1  0.4870150000000  0.4214370000000  0.4460400000000 1.0
C      1  0.5563020000000  0.5484790000000  0.4941960000000 1.0
C      1  0.5049360000000  0.4205100000000  0.5357650000000 1.0
C      1  0.4775950000000  0.5157360000000  0.4753730000000 1.0
C      1  0.5222370000000  0.5351040000000  0.5890710000000 1.0
C      1  0.4626560000000  0.4904070000000  0.3943210000000 1.0
C      1  0.5355550000000  0.4802420000000  0.4652820000000 1.0
C      1  0.4247010000000  0.4773480000000  0.4342150000000 1.0
C      1  0.5658760000000  0.5393150000000  0.4150590000000 1.0
C      1  0.5741110000000  0.4294620000000  0.5016150000000 1.0
C      1  0.4591540000000  0.5442460000000  0.4258690000000 1.0
C      1  0.4132710000000  0.4577020000000  0.4564820000000 1.0
C      1  0.4509860000000  0.4671030000000  0.4152300000000 1.0
C      1  0.5027610000000  0.5074860000000  0.4540450000000 1.0
C      1  0.4769640000000  0.4438130000000  0.4144620000000 1.0
C      1  0.4505340000000  0.5759480000000  0.5721820000000 1.0
C      1  0.5629200000000  0.4990380000000  0.5748340000000 1.0
C      1  0.5173490000000  0.5282640000000  0.5572820000000 1.0
C      1  0.5513310000000  0.6008960000000  0.4865270000000 1.0
C      1  0.4632770000000  0.4105100000000  0.4941190000000 1.0
C      1  0.5258580000000  0.5483330000000  0.5359430000000 1.0
C      1  0.4907740000000  0.5225300000000  0.5861280000000 1.0
C      1  0.5249230000000  0.5219350000000  0.5176290000000 1.0
C      1  0.5005270000000  0.5509500000000  0.4443880000000 1.0
C      1  0.4385180000000  0.5157000000000  0.4964740000000 1.0
C      1  0.5631300000000  0.4248690000000  0.4740980000000 1.0
C      1  0.4053510000000  0.5636950000000  0.4494870000000 1.0
C      1  0.5136190000000  0.4033310000000  0.4570230000000 1.0
C      1  0.4425820000000  0.4709300000000  0.5794110000000 1.0
C      1  0.5809100000000  0.4714870000000  0.4788560000000 1.0
C      1  0.5301830000000  0.5601500000000  0.5070040000000 1.0
C      1  0.5648320000000  0.4914750000000  0.4106410000000 1.0
C      1  0.5355790000000  0.5788280000000  0.5443700000000 1.0
C      1  0.5535560000000  0.5817060000000  0.4666670000000 1.0
C      1  0.4834150000000  0.5513490000000  0.5290860000000 1.0
C      1  0.5337350000000  0.4117010000000  0.5485510000000 1.0
C      1  0.5809210000000  0.4624040000000  0.4481140000000 1.0
C      1  0.5569440000000  0.5136140000000  0.5273920000000 1.0
C      1  0.5112540000000  0.4796670000000  0.5413050000000 1.0
C      1  0.5127030000000  0.5583590000000  0.4814250000000 1.0
END
