TITL C-2848498-1409-321 -0.00634504971565391 125000 -683.824471733214 0 0 135 (C1) n - 1
REM
REM in /home/bkarasulu/work/CARBON/AIRSS/Generating-Clusters/AIREBO/with-SteepDescent/Only-C1/SD-CG-opt/Try1-1.4A-POS3A/HFTN-CG
REM
REM
REM
REM
REM
REM ./C.cell (11c1c37f851c82e70ff6c80c92926a4b)
REM
REM compiler GCC version 9.2.1 20190827 (Red Hat 9.2.1-1)
REM options -cpp -mtune=generic -march=x86-64 -g -O0 -fpre-include=/usr/include/finclude/math-vector-fortran.h
REM seed -1769675007 1275904058 -50304354 -409035995 -766256432 1272069509 -577242784 -1633087375 -352879022 -1196659365 -135286311 -369318690 1159567617 7135811 10107346 -988452872 631745435 2011345888 -456840705 1199232845 -358572483 1154048592 1873000807 -2128495019 357645292 -86131823 -1898090468 1995437170 1203935549 -2002763520 1608116554 11390384 -655476932
REM
CELL 1.54180   50.00000   50.00000   50.00000   90.00000   90.00000   90.00000
LATT -1
SFAC C  
C      1  0.4568580000000  0.5381930000000  0.5202520000000 1.0
C      1  0.5480980000000  0.4981660000000  0.4328340000000 1.0
C      1  0.5460130000000  0.4632840000000  0.5072960000000 1.0
C      1  0.5392970000000  0.5510640000000  0.5822180000000 1.0
C      1  0.4915290000000  0.4538630000000  0.5329440000000 1.0
C      1  0.5086830000000  0.5286410000000  0.4756910000000 1.0
C      1  0.4928610000000  0.4649690000000  0.4284420000000 1.0
C      1  0.5733530000000  0.4440280000000  0.4632770000000 1.0
C      1  0.4930020000000  0.5738920000000  0.4595150000000 1.0
C      1  0.4937240000000  0.5531010000000  0.5197540000000 1.0
C      1  0.5525470000000  0.5080530000000  0.5668620000000 1.0
C      1  0.5150380000000  0.4484620000000  0.4483430000000 1.0
C      1  0.5456990000000  0.5056340000000  0.4915560000000 1.0
C      1  0.4233250000000  0.5310400000000  0.5002400000000 1.0
C      1  0.4831370000000  0.5411110000000  0.5892740000000 1.0
C      1  0.5123860000000  0.5183030000000  0.5416980000000 1.0
C      1  0.4426140000000  0.5052640000000  0.4884110000000 1.0
C      1  0.4000340000000  0.5066320000000  0.4974270000000 1.0
C      1  0.5835770000000  0.5022790000000  0.4797180000000 1.0
C      1  0.5106770000000  0.4875950000000  0.4462820000000 1.0
C      1  0.4805760000000  0.5318750000000  0.4449620000000 1.0
C      1  0.4271060000000  0.4993680000000  0.4586270000000 1.0
C      1  0.4593770000000  0.4688810000000  0.4225580000000 1.0
C      1  0.4819440000000  0.4582680000000  0.4892400000000 1.0
C      1  0.4524930000000  0.4139870000000  0.4760970000000 1.0
C      1  0.4608530000000  0.4357790000000  0.4227450000000 1.0
C      1  0.4366170000000  0.5618180000000  0.5059110000000 1.0
C      1  0.5271910000000  0.4810040000000  0.4163250000000 1.0
C      1  0.5614760000000  0.5259450000000  0.4693160000000 1.0
C      1  0.5453120000000  0.5376200000000  0.4058960000000 1.0
C      1  0.5691480000000  0.5335620000000  0.5622720000000 1.0
C      1  0.5566830000000  0.5804530000000  0.4831090000000 1.0
C      1  0.5308470000000  0.4746940000000  0.5851490000000 1.0
C      1  0.5351690000000  0.5265800000000  0.6004600000000 1.0
C      1  0.5204750000000  0.5049120000000  0.5784590000000 1.0
C      1  0.5886480000000  0.5269710000000  0.4982860000000 1.0
C      1  0.5530720000000  0.4471990000000  0.4361680000000 1.0
C      1  0.4882170000000  0.5870040000000  0.5528780000000 1.0
C      1  0.4328780000000  0.5194350000000  0.5629980000000 1.0
C      1  0.4755980000000  0.5100500000000  0.5995180000000 1.0
C      1  0.4607110000000  0.5222980000000  0.5719010000000 1.0
C      1  0.4605510000000  0.5056850000000  0.4378470000000 1.0
C      1  0.5116200000000  0.4107030000000  0.5365170000000 1.0
C      1  0.4737080000000  0.3947500000000  0.4940660000000 1.0
C      1  0.5295730000000  0.5905180000000  0.5443100000000 1.0
C      1  0.5689120000000  0.4887590000000  0.5098120000000 1.0
C      1  0.4761540000000  0.6048550000000  0.5080370000000 1.0
C      1  0.4258210000000  0.5354610000000  0.5338670000000 1.0
C      1  0.4096880000000  0.5060500000000  0.5281030000000 1.0
C      1  0.5668360000000  0.5557180000000  0.5376380000000 1.0
C      1  0.4611440000000  0.5747360000000  0.4627960000000 1.0
C      1  0.5149270000000  0.4543930000000  0.4967010000000 1.0
C      1  0.5047090000000  0.5974200000000  0.5249810000000 1.0
C      1  0.5413010000000  0.4325770000000  0.4631000000000 1.0
C      1  0.5578960000000  0.4155840000000  0.5387690000000 1.0
C      1  0.5636230000000  0.4773780000000  0.5764910000000 1.0
C      1  0.4495430000000  0.5325000000000  0.4200730000000 1.0
C      1  0.5355770000000  0.4504850000000  0.4144060000000 1.0
C      1  0.4835830000000  0.4270360000000  0.4364470000000 1.0
C      1  0.4598700000000  0.4768490000000  0.4553080000000 1.0
C      1  0.4966010000000  0.5673420000000  0.5711940000000 1.0
C      1  0.5188200000000  0.5163560000000  0.5023170000000 1.0
C      1  0.5429820000000  0.5530630000000  0.4978830000000 1.0
C      1  0.5109700000000  0.5365280000000  0.5702890000000 1.0
C      1  0.5078790000000  0.3851710000000  0.4644050000000 1.0
C      1  0.4724170000000  0.4902040000000  0.4817380000000 1.0
C      1  0.4328300000000  0.5688910000000  0.5385670000000 1.0
C      1  0.4913640000000  0.4902210000000  0.5686320000000 1.0
C      1  0.4104610000000  0.4825520000000  0.4819190000000 1.0
C      1  0.4862410000000  0.5494050000000  0.4807790000000 1.0
C      1  0.4815420000000  0.5649710000000  0.4052400000000 1.0
C      1  0.5558340000000  0.5104080000000  0.5325510000000 1.0
C      1  0.4110940000000  0.4577490000000  0.5029820000000 1.0
C      1  0.4494990000000  0.4528360000000  0.5723910000000 1.0
C      1  0.5887790000000  0.4632090000000  0.5202700000000 1.0
C      1  0.5124690000000  0.4314120000000  0.5637080000000 1.0
C      1  0.5659540000000  0.5351160000000  0.5143060000000 1.0
C      1  0.4921200000000  0.5182230000000  0.3943560000000 1.0
C      1  0.4918280000000  0.4846140000000  0.6021800000000 1.0
C      1  0.4401910000000  0.4403350000000  0.5487960000000 1.0
C      1  0.5198750000000  0.5705430000000  0.4800760000000 1.0
C      1  0.4280310000000  0.4783390000000  0.4317910000000 1.0
C      1  0.4391140000000  0.4600520000000  0.5221240000000 1.0
C      1  0.4536400000000  0.5836510000000  0.4927200000000 1.0
C      1  0.5943900000000  0.5016650000000  0.5282930000000 1.0
C      1  0.4189650000000  0.4957050000000  0.5655770000000 1.0
C      1  0.4706420000000  0.5522540000000  0.5448470000000 1.0
C      1  0.4977950000000  0.4286910000000  0.5109630000000 1.0
C      1  0.5754170000000  0.4527950000000  0.4938220000000 1.0
C      1  0.4464260000000  0.4408840000000  0.4949830000000 1.0
C      1  0.5423730000000  0.4298200000000  0.5121000000000 1.0
C      1  0.5256380000000  0.4686280000000  0.4702230000000 1.0
C      1  0.5369830000000  0.4399790000000  0.5441680000000 1.0
C      1  0.5035050000000  0.4078630000000  0.4842510000000 1.0
C      1  0.5567750000000  0.5846180000000  0.5269410000000 1.0
C      1  0.5334420000000  0.4175880000000  0.4865650000000 1.0
C      1  0.5317590000000  0.5906660000000  0.5046890000000 1.0
C      1  0.4931860000000  0.5059710000000  0.4608080000000 1.0
C      1  0.4581770000000  0.5820410000000  0.5493710000000 1.0
C      1  0.4427720000000  0.5011370000000  0.5223940000000 1.0
C      1  0.4677930000000  0.5398530000000  0.3981440000000 1.0
C      1  0.4899770000000  0.4989580000000  0.5082140000000 1.0
C      1  0.4397020000000  0.4660010000000  0.4766960000000 1.0
C      1  0.5754720000000  0.4853800000000  0.4337040000000 1.0
C      1  0.5369840000000  0.5594830000000  0.5505020000000 1.0
C      1  0.5776890000000  0.4695180000000  0.5463030000000 1.0
C      1  0.5071750000000  0.4565940000000  0.5833170000000 1.0
C      1  0.5298140000000  0.4923690000000  0.5384590000000 1.0
C      1  0.5496850000000  0.4880740000000  0.4641500000000 1.0
C      1  0.4984170000000  0.4862650000000  0.4025230000000 1.0
C      1  0.4825360000000  0.5220550000000  0.5462790000000 1.0
C      1  0.5510720000000  0.5569320000000  0.4591540000000 1.0
C      1  0.4549800000000  0.4173130000000  0.5418650000000 1.0
C      1  0.5104700000000  0.4304670000000  0.4200290000000 1.0
C      1  0.4182870000000  0.4779060000000  0.5422280000000 1.0
C      1  0.5245560000000  0.5421850000000  0.5236920000000 1.0
C      1  0.4650930000000  0.4205880000000  0.5129330000000 1.0
C      1  0.4848540000000  0.5751330000000  0.4985920000000 1.0
C      1  0.4835550000000  0.4251200000000  0.5481210000000 1.0
C      1  0.4793420000000  0.5275030000000  0.5026000000000 1.0
C      1  0.5073600000000  0.4730490000000  0.5469460000000 1.0
C      1  0.5175560000000  0.5353160000000  0.4026310000000 1.0
C      1  0.4813380000000  0.4306680000000  0.4693210000000 1.0
C      1  0.5464780000000  0.4669360000000  0.5492340000000 1.0
C      1  0.4269000000000  0.5267220000000  0.4445050000000 1.0
C      1  0.4676810000000  0.4937210000000  0.5444280000000 1.0
C      1  0.5026330000000  0.5513730000000  0.4279450000000 1.0
C      1  0.4745910000000  0.4614610000000  0.5755970000000 1.0
C      1  0.4703460000000  0.4728500000000  0.5176970000000 1.0
C      1  0.5811980000000  0.4758700000000  0.4617640000000 1.0
C      1  0.4526340000000  0.5483330000000  0.4500510000000 1.0
C      1  0.5231940000000  0.5715600000000  0.4460130000000 1.0
C      1  0.5209230000000  0.5316720000000  0.4479600000000 1.0
C      1  0.4671850000000  0.4975000000000  0.4059270000000 1.0
C      1  0.5518730000000  0.5310390000000  0.4370890000000 1.0
END
