TITL C-2847959-7740-304 -0.00175461159142866 125000 -874.008132723098 0 0 162 (C1) n - 1
REM
REM in /home/bkarasulu/work/CARBON/AIRSS/Generating-Clusters/AIREBO/with-SteepDescent/Only-C1/SD-CG-opt/Try1-1.4A-POS3A/HFTN-CG
REM
REM
REM
REM
REM
REM ./C.cell (11c1c37f851c82e70ff6c80c92926a4b)
REM
REM compiler GCC version 9.2.1 20190827 (Red Hat 9.2.1-1)
REM options -cpp -mtune=generic -march=x86-64 -g -O0 -fpre-include=/usr/include/finclude/math-vector-fortran.h
REM seed 2144518381 -235798349 229668883 36456780 -11047211 1312214582 1736015535 1958565998 -645831816 -1851961506 -206033919 1685678753 402422727 1556494224 1709190921 -2056496549 -1693240172 764688924 208564843 660958654 -182006214 -753960698 -1007267660 1952123767 -1142531785 468600980 -1010953970 1443846696 234762476 -595812152 314145694 -500183699 -1161826254
REM
CELL 1.54180   50.00000   50.00000   50.00000   90.00000   90.00000   90.00000
LATT -1
SFAC C  
C      1  0.5374200000000  0.4475300000000  0.4618570000000 1.0
C      1  0.5287720000000  0.4429230000000  0.5075140000000 1.0
C      1  0.5388500000000  0.4897620000000  0.6056050000000 1.0
C      1  0.5782800000000  0.5079830000000  0.5033950000000 1.0
C      1  0.4792610000000  0.4793780000000  0.5812800000000 1.0
C      1  0.5132910000000  0.5894250000000  0.4402450000000 1.0
C      1  0.5151520000000  0.4670260000000  0.5620900000000 1.0
C      1  0.4105540000000  0.4726740000000  0.4435600000000 1.0
C      1  0.5840010000000  0.4748670000000  0.5507850000000 1.0
C      1  0.5495590000000  0.6130550000000  0.4912190000000 1.0
C      1  0.5757180000000  0.4341600000000  0.4971900000000 1.0
C      1  0.5630910000000  0.4435050000000  0.5859770000000 1.0
C      1  0.4123100000000  0.5236150000000  0.5730550000000 1.0
C      1  0.4242020000000  0.5481630000000  0.4507410000000 1.0
C      1  0.4644830000000  0.4566160000000  0.5823810000000 1.0
C      1  0.4195000000000  0.4748120000000  0.5197970000000 1.0
C      1  0.5086550000000  0.4836580000000  0.5911820000000 1.0
C      1  0.5540810000000  0.5817820000000  0.4786470000000 1.0
C      1  0.5057830000000  0.3826590000000  0.4657640000000 1.0
C      1  0.5196500000000  0.5900850000000  0.5279940000000 1.0
C      1  0.5547390000000  0.4871360000000  0.5007780000000 1.0
C      1  0.3922920000000  0.5154440000000  0.4924360000000 1.0
C      1  0.5647040000000  0.5565210000000  0.5578490000000 1.0
C      1  0.4760790000000  0.6018810000000  0.5092440000000 1.0
C      1  0.5683010000000  0.5388550000000  0.4981820000000 1.0
C      1  0.5304770000000  0.4947700000000  0.4051950000000 1.0
C      1  0.4489700000000  0.5483610000000  0.5423200000000 1.0
C      1  0.4488380000000  0.5559050000000  0.4040730000000 1.0
C      1  0.5506490000000  0.5335620000000  0.5787990000000 1.0
C      1  0.4847160000000  0.4394010000000  0.5129620000000 1.0
C      1  0.5070700000000  0.5140310000000  0.6023290000000 1.0
C      1  0.4183820000000  0.4239440000000  0.5309850000000 1.0
C      1  0.4107650000000  0.5564980000000  0.5107470000000 1.0
C      1  0.4951840000000  0.5179150000000  0.4258050000000 1.0
C      1  0.4950160000000  0.6071710000000  0.4878100000000 1.0
C      1  0.4727970000000  0.4259950000000  0.5804420000000 1.0
C      1  0.4637340000000  0.5639660000000  0.5760240000000 1.0
C      1  0.4221630000000  0.5052350000000  0.4854930000000 1.0
C      1  0.3966280000000  0.5304740000000  0.5187680000000 1.0
C      1  0.5504110000000  0.5213620000000  0.5470610000000 1.0
C      1  0.4211380000000  0.4579580000000  0.4676160000000 1.0
C      1  0.6059670000000  0.4775440000000  0.5293280000000 1.0
C      1  0.5890600000000  0.5176480000000  0.4523040000000 1.0
C      1  0.5273540000000  0.4226900000000  0.4808080000000 1.0
C      1  0.5002790000000  0.5569430000000  0.5070650000000 1.0
C      1  0.5087410000000  0.5355420000000  0.5628150000000 1.0
C      1  0.5193120000000  0.5220340000000  0.5106980000000 1.0
C      1  0.4893850000000  0.4081210000000  0.5371990000000 1.0
C      1  0.5935890000000  0.5407860000000  0.4672780000000 1.0
C      1  0.5362720000000  0.4975150000000  0.5273770000000 1.0
C      1  0.5002290000000  0.4923150000000  0.4424770000000 1.0
C      1  0.4177830000000  0.5366950000000  0.5446560000000 1.0
C      1  0.4902000000000  0.5929280000000  0.5322810000000 1.0
C      1  0.4676870000000  0.5398700000000  0.5854610000000 1.0
C      1  0.5256800000000  0.5644750000000  0.4857530000000 1.0
C      1  0.4853010000000  0.3864120000000  0.4921200000000 1.0
C      1  0.5225400000000  0.4219530000000  0.4332320000000 1.0
C      1  0.4945790000000  0.4132290000000  0.5674900000000 1.0
C      1  0.4980870000000  0.5104610000000  0.5569900000000 1.0
C      1  0.5834020000000  0.5295840000000  0.5479420000000 1.0
C      1  0.5395440000000  0.4433600000000  0.5610500000000 1.0
C      1  0.4509750000000  0.4832860000000  0.4255120000000 1.0
C      1  0.5568670000000  0.5212710000000  0.4260830000000 1.0
C      1  0.3979620000000  0.4482030000000  0.4895290000000 1.0
C      1  0.4023700000000  0.5334780000000  0.4653830000000 1.0
C      1  0.4731120000000  0.5191270000000  0.4815980000000 1.0
C      1  0.5762150000000  0.5678620000000  0.4588310000000 1.0
C      1  0.5024720000000  0.4616230000000  0.5309360000000 1.0
C      1  0.4505900000000  0.5814340000000  0.5010030000000 1.0
C      1  0.5323540000000  0.5422750000000  0.5314780000000 1.0
C      1  0.4344350000000  0.4561040000000  0.5665740000000 1.0
C      1  0.5164690000000  0.4164490000000  0.5250090000000 1.0
C      1  0.5558270000000  0.4125580000000  0.4963890000000 1.0
C      1  0.5218900000000  0.5963420000000  0.4973140000000 1.0
C      1  0.4196240000000  0.4503270000000  0.5387490000000 1.0
C      1  0.4775390000000  0.4183250000000  0.4361240000000 1.0
C      1  0.4482790000000  0.4113890000000  0.4731910000000 1.0
C      1  0.4736230000000  0.5256480000000  0.4482220000000 1.0
C      1  0.4414340000000  0.5278240000000  0.4718560000000 1.0
C      1  0.4444720000000  0.5653470000000  0.4333380000000 1.0
C      1  0.5348130000000  0.4753660000000  0.4241650000000 1.0
C      1  0.6012500000000  0.5462160000000  0.4999580000000 1.0
C      1  0.5462530000000  0.5709620000000  0.5332060000000 1.0
C      1  0.4682890000000  0.5093130000000  0.5694530000000 1.0
C      1  0.4653070000000  0.5376030000000  0.3924280000000 1.0
C      1  0.5434740000000  0.5038680000000  0.4734050000000 1.0
C      1  0.5120280000000  0.4604910000000  0.4445590000000 1.0
C      1  0.5850440000000  0.5021480000000  0.5664650000000 1.0
C      1  0.4858220000000  0.5283230000000  0.5117850000000 1.0
C      1  0.5647260000000  0.4679160000000  0.4354230000000 1.0
C      1  0.6046480000000  0.5715290000000  0.4775120000000 1.0
C      1  0.5920030000000  0.5849560000000  0.5022910000000 1.0
C      1  0.4355210000000  0.4851200000000  0.5549520000000 1.0
C      1  0.5045140000000  0.4935400000000  0.5344570000000 1.0
C      1  0.5622150000000  0.4992150000000  0.4485860000000 1.0
C      1  0.4481940000000  0.4273290000000  0.5617110000000 1.0
C      1  0.4357300000000  0.5526990000000  0.4934010000000 1.0
C      1  0.4786350000000  0.4648970000000  0.4230370000000 1.0
C      1  0.4543350000000  0.3848230000000  0.4800440000000 1.0
C      1  0.5953180000000  0.4440740000000  0.4795590000000 1.0
C      1  0.5793140000000  0.4445780000000  0.5604540000000 1.0
C      1  0.5173030000000  0.5358030000000  0.4538350000000 1.0
C      1  0.5329800000000  0.5558370000000  0.4312410000000 1.0
C      1  0.4563430000000  0.4575450000000  0.5177080000000 1.0
C      1  0.4615290000000  0.4279200000000  0.5350220000000 1.0
C      1  0.5218000000000  0.5338160000000  0.5874430000000 1.0
C      1  0.4760550000000  0.4753290000000  0.4552970000000 1.0
C      1  0.5055420000000  0.5191850000000  0.4713600000000 1.0
C      1  0.4386760000000  0.4694960000000  0.4922100000000 1.0
C      1  0.5567950000000  0.4661980000000  0.4743060000000 1.0
C      1  0.5028300000000  0.5562210000000  0.5409680000000 1.0
C      1  0.4298690000000  0.5038720000000  0.5790800000000 1.0
C      1  0.5077170000000  0.4677620000000  0.4977260000000 1.0
C      1  0.4322720000000  0.5718520000000  0.5275130000000 1.0
C      1  0.4448030000000  0.5091100000000  0.4436670000000 1.0
C      1  0.3988250000000  0.4819300000000  0.4937570000000 1.0
C      1  0.4961920000000  0.4388980000000  0.4236040000000 1.0
C      1  0.4646110000000  0.4004820000000  0.5151710000000 1.0
C      1  0.5478510000000  0.4386020000000  0.4307500000000 1.0
C      1  0.4784640000000  0.5143290000000  0.4006690000000 1.0
C      1  0.4141360000000  0.5037590000000  0.5369410000000 1.0
C      1  0.6043310000000  0.5011880000000  0.5146800000000 1.0
C      1  0.5249890000000  0.5266830000000  0.4155590000000 1.0
C      1  0.4255660000000  0.4289720000000  0.4837300000000 1.0
C      1  0.5571750000000  0.4554160000000  0.5128030000000 1.0
C      1  0.4687500000000  0.5556960000000  0.4521100000000 1.0
C      1  0.4337200000000  0.4138830000000  0.5102890000000 1.0
C      1  0.4746010000000  0.4250830000000  0.4655970000000 1.0
C      1  0.4687980000000  0.4885220000000  0.4004970000000 1.0
C      1  0.5205120000000  0.4189380000000  0.5724700000000 1.0
C      1  0.4565440000000  0.4897560000000  0.5286160000000 1.0
C      1  0.5064440000000  0.5660530000000  0.4589780000000 1.0
C      1  0.5514060000000  0.4699290000000  0.5424310000000 1.0
C      1  0.5393340000000  0.5333550000000  0.4873950000000 1.0
C      1  0.4743640000000  0.5704430000000  0.5472170000000 1.0
C      1  0.4514390000000  0.5058840000000  0.5987970000000 1.0
C      1  0.5662200000000  0.5710490000000  0.5085470000000 1.0
C      1  0.5463710000000  0.4107510000000  0.5237120000000 1.0
C      1  0.5199910000000  0.4043300000000  0.4559110000000 1.0
C      1  0.4408040000000  0.5063040000000  0.5074200000000 1.0
C      1  0.5439650000000  0.4809670000000  0.5735730000000 1.0
C      1  0.5152380000000  0.5769280000000  0.4113250000000 1.0
C      1  0.5161130000000  0.4889540000000  0.4723590000000 1.0
C      1  0.4912350000000  0.4532190000000  0.4717620000000 1.0
C      1  0.5615060000000  0.4264110000000  0.5413870000000 1.0
C      1  0.4582150000000  0.5927410000000  0.4415850000000 1.0
C      1  0.4840550000000  0.4891230000000  0.5086370000000 1.0
C      1  0.5182550000000  0.5523200000000  0.3942630000000 1.0
C      1  0.6040030000000  0.5290890000000  0.5254160000000 1.0
C      1  0.4604540000000  0.5936010000000  0.4735700000000 1.0
C      1  0.4882660000000  0.6014690000000  0.4556640000000 1.0
C      1  0.4952320000000  0.4189350000000  0.4913650000000 1.0
C      1  0.5411990000000  0.5980610000000  0.4517080000000 1.0
C      1  0.5614740000000  0.5055760000000  0.5856920000000 1.0
C      1  0.5843770000000  0.4635980000000  0.4619830000000 1.0
C      1  0.4797050000000  0.5200970000000  0.6062360000000 1.0
C      1  0.4642790000000  0.4862890000000  0.4821360000000 1.0
C      1  0.4152270000000  0.4963780000000  0.4364590000000 1.0
C      1  0.5624620000000  0.5641680000000  0.4341100000000 1.0
C      1  0.4649540000000  0.5213970000000  0.5378280000000 1.0
C      1  0.4823360000000  0.5685190000000  0.4805190000000 1.0
C      1  0.4668970000000  0.3979740000000  0.4239100000000 1.0
END
