TITL C-2847947-6848-467 -3.19002379764819e-05 125000 -561.733516115712 0 0 104 (C1) n - 1
REM
REM in /home/bkarasulu/work/CARBON/AIRSS/Generating-Clusters/AIREBO/with-SteepDescent/Only-C1/SD-CG-opt/Try1-1.4A-POS3A/HFTN-CG
REM
REM
REM
REM
REM
REM ./C.cell (11c1c37f851c82e70ff6c80c92926a4b)
REM
REM compiler GCC version 9.2.1 20190827 (Red Hat 9.2.1-1)
REM options -cpp -mtune=generic -march=x86-64 -g -O0 -fpre-include=/usr/include/finclude/math-vector-fortran.h
REM seed -346774629 -603769906 530647053 -1539499044 -1593721046 -1984587997 -1107289981 -758152319 -1985546049 2104942092 -739415606 -2123703786 9486056 497040234 1606072618 -1865263512 1107986808 -563905327 -1821268314 432033691 1006522550 16475554 -226702782 1194454932 -774007602 -1260113509 292358719 -1792593014 775606891 1354209472 -1829332434 741527382 -1441866363
REM
CELL 1.54180   50.00000   50.00000   50.00000   90.00000   90.00000   90.00000
LATT -1
SFAC C  
C      1  0.5692420000000  0.4823380000000  0.4916020000000 1.0
C      1  0.4430390000000  0.4799500000000  0.5780330000000 1.0
C      1  0.5276220000000  0.5031700000000  0.5825680000000 1.0
C      1  0.4905060000000  0.5322980000000  0.4980500000000 1.0
C      1  0.5633360000000  0.5481480000000  0.5190630000000 1.0
C      1  0.4062650000000  0.4768590000000  0.5014170000000 1.0
C      1  0.5767500000000  0.4679730000000  0.4657680000000 1.0
C      1  0.5249430000000  0.4314450000000  0.5398750000000 1.0
C      1  0.5283160000000  0.5028560000000  0.5093220000000 1.0
C      1  0.4936160000000  0.5558640000000  0.5925490000000 1.0
C      1  0.5068120000000  0.5187540000000  0.5691990000000 1.0
C      1  0.4972820000000  0.5094020000000  0.5388390000000 1.0
C      1  0.4117820000000  0.4910640000000  0.5259650000000 1.0
C      1  0.4578410000000  0.4865840000000  0.4820590000000 1.0
C      1  0.4288510000000  0.4559030000000  0.4887060000000 1.0
C      1  0.4472840000000  0.4571030000000  0.5333370000000 1.0
C      1  0.4794810000000  0.4778790000000  0.4184740000000 1.0
C      1  0.5261000000000  0.5076290000000  0.4022070000000 1.0
C      1  0.4963920000000  0.4274200000000  0.5349000000000 1.0
C      1  0.4959610000000  0.4544000000000  0.4283660000000 1.0
C      1  0.5364010000000  0.4757620000000  0.4416930000000 1.0
C      1  0.5919810000000  0.5326420000000  0.5092090000000 1.0
C      1  0.4487550000000  0.5593790000000  0.5191260000000 1.0
C      1  0.5721960000000  0.5468040000000  0.4685480000000 1.0
C      1  0.5470640000000  0.5336160000000  0.4546500000000 1.0
C      1  0.5307480000000  0.5614850000000  0.5006940000000 1.0
C      1  0.4632110000000  0.5015240000000  0.5201820000000 1.0
C      1  0.4744800000000  0.4434900000000  0.5768760000000 1.0
C      1  0.4905420000000  0.4908550000000  0.4737260000000 1.0
C      1  0.4802190000000  0.4563120000000  0.5349770000000 1.0
C      1  0.5553660000000  0.5095220000000  0.4198620000000 1.0
C      1  0.5605150000000  0.4952510000000  0.5172270000000 1.0
C      1  0.5435250000000  0.5822350000000  0.4694940000000 1.0
C      1  0.4329370000000  0.5184790000000  0.4375980000000 1.0
C      1  0.5915280000000  0.5283180000000  0.4811830000000 1.0
C      1  0.5439850000000  0.4452130000000  0.4422240000000 1.0
C      1  0.5229990000000  0.4855100000000  0.4688760000000 1.0
C      1  0.4859450000000  0.4319300000000  0.5028580000000 1.0
C      1  0.5407210000000  0.5645130000000  0.4449710000000 1.0
C      1  0.4923150000000  0.5064450000000  0.4079040000000 1.0
C      1  0.4835100000000  0.5299190000000  0.5853560000000 1.0
C      1  0.5029650000000  0.4776410000000  0.5485400000000 1.0
C      1  0.4598870000000  0.5664280000000  0.4931770000000 1.0
C      1  0.5243440000000  0.4198660000000  0.4736910000000 1.0
C      1  0.4467470000000  0.4297760000000  0.4858830000000 1.0
C      1  0.4540910000000  0.4757740000000  0.4354940000000 1.0
C      1  0.4913430000000  0.4657360000000  0.5047510000000 1.0
C      1  0.4763740000000  0.4756110000000  0.5696520000000 1.0
C      1  0.5111710000000  0.4572310000000  0.4784660000000 1.0
C      1  0.5296730000000  0.5306180000000  0.4270010000000 1.0
C      1  0.4317310000000  0.5073090000000  0.4885390000000 1.0
C      1  0.4493790000000  0.5367360000000  0.4686390000000 1.0
C      1  0.4761130000000  0.5357710000000  0.5351860000000 1.0
C      1  0.5389310000000  0.5100110000000  0.4777840000000 1.0
C      1  0.5081210000000  0.5654780000000  0.5712980000000 1.0
C      1  0.5132140000000  0.4404660000000  0.4508320000000 1.0
C      1  0.4152660000000  0.5187830000000  0.5229520000000 1.0
C      1  0.4719630000000  0.4407330000000  0.4730010000000 1.0
C      1  0.5470560000000  0.4314800000000  0.4860930000000 1.0
C      1  0.4294740000000  0.4877420000000  0.4417150000000 1.0
C      1  0.5294430000000  0.4746020000000  0.5698140000000 1.0
C      1  0.4563890000000  0.4175910000000  0.5116390000000 1.0
C      1  0.5321920000000  0.5346190000000  0.5217440000000 1.0
C      1  0.5308730000000  0.4431730000000  0.5643100000000 1.0
C      1  0.4434680000000  0.5275070000000  0.5297430000000 1.0
C      1  0.4993170000000  0.5785870000000  0.5185520000000 1.0
C      1  0.4554840000000  0.5566580000000  0.5523530000000 1.0
C      1  0.4573030000000  0.4640060000000  0.5031520000000 1.0
C      1  0.4573710000000  0.4988660000000  0.5536760000000 1.0
C      1  0.4730160000000  0.4240760000000  0.5572940000000 1.0
C      1  0.4608570000000  0.5238060000000  0.4946020000000 1.0
C      1  0.5182140000000  0.5419720000000  0.5482440000000 1.0
C      1  0.5513980000000  0.5158220000000  0.5866810000000 1.0
C      1  0.5596160000000  0.4846280000000  0.5631000000000 1.0
C      1  0.4509840000000  0.4264780000000  0.5382480000000 1.0
C      1  0.5676370000000  0.4744840000000  0.5386620000000 1.0
C      1  0.4935390000000  0.5629490000000  0.5420880000000 1.0
C      1  0.4887060000000  0.5094360000000  0.4473210000000 1.0
C      1  0.5140150000000  0.4938160000000  0.4308300000000 1.0
C      1  0.5177980000000  0.5690380000000  0.4311020000000 1.0
C      1  0.4945740000000  0.4995770000000  0.5063780000000 1.0
C      1  0.5623960000000  0.4431810000000  0.4644390000000 1.0
C      1  0.5216350000000  0.4702560000000  0.5195330000000 1.0
C      1  0.5720110000000  0.5068940000000  0.4705480000000 1.0
C      1  0.4986350000000  0.5341080000000  0.4313030000000 1.0
C      1  0.5624450000000  0.5661180000000  0.4903430000000 1.0
C      1  0.4199760000000  0.4823340000000  0.4703690000000 1.0
C      1  0.5122420000000  0.5691610000000  0.4724850000000 1.0
C      1  0.4347740000000  0.5518740000000  0.4426920000000 1.0
C      1  0.4069350000000  0.5282740000000  0.4963750000000 1.0
C      1  0.5672630000000  0.4491860000000  0.5298210000000 1.0
C      1  0.4900980000000  0.5622600000000  0.4477080000000 1.0
C      1  0.4308320000000  0.4790260000000  0.5460050000000 1.0
C      1  0.4592860000000  0.5091100000000  0.4569770000000 1.0
C      1  0.5694960000000  0.5131660000000  0.5636360000000 1.0
C      1  0.5258120000000  0.5909450000000  0.5169380000000 1.0
C      1  0.4913840000000  0.5626340000000  0.4944800000000 1.0
C      1  0.5732660000000  0.5195990000000  0.5340370000000 1.0
C      1  0.4595900000000  0.5283990000000  0.5704290000000 1.0
C      1  0.5052690000000  0.4097500000000  0.4897310000000 1.0
C      1  0.5409180000000  0.4426550000000  0.5144800000000 1.0
C      1  0.4788280000000  0.4642730000000  0.4560270000000 1.0
C      1  0.4617720000000  0.5650020000000  0.4591910000000 1.0
C      1  0.5647400000000  0.4906700000000  0.4426940000000 1.0
END
