TITL C-2847945-6269-403 -0.00489568386989812 125000 -521.699502396036 0 0 96 (C1) n - 1
REM
REM in /home/bkarasulu/work/CARBON/AIRSS/Generating-Clusters/AIREBO/with-SteepDescent/Only-C1/SD-CG-opt/Try1-1.4A-POS3A/HFTN-CG
REM
REM
REM
REM
REM
REM ./C.cell (11c1c37f851c82e70ff6c80c92926a4b)
REM
REM compiler GCC version 9.2.1 20190827 (Red Hat 9.2.1-1)
REM options -cpp -mtune=generic -march=x86-64 -g -O0 -fpre-include=/usr/include/finclude/math-vector-fortran.h
REM seed -1260916025 -954178543 -1010954095 1749773070 -268027699 1173409927 337085590 -648984832 -1147646064 -1452504540 1453276265 -255929697 -219341719 436448938 -535044838 1259725749 -1405121626 431789420 -1446016415 160127642 -1094705254 -230000609 -885632542 1507512501 -414164657 262289984 -347808863 -2028101558 679521501 1532353469 -848246566 -1185203771 -2850015
REM
CELL 1.54180   50.00000   50.00000   50.00000   90.00000   90.00000   90.00000
LATT -1
SFAC C  
C      1  0.4757100000000  0.4413150000000  0.4779750000000 1.0
C      1  0.5084580000000  0.5014250000000  0.4360600000000 1.0
C      1  0.4741150000000  0.4932770000000  0.4174570000000 1.0
C      1  0.5790620000000  0.4864750000000  0.4905040000000 1.0
C      1  0.4859370000000  0.4619080000000  0.4616660000000 1.0
C      1  0.5170920000000  0.5917320000000  0.5093230000000 1.0
C      1  0.4376970000000  0.5062430000000  0.4879670000000 1.0
C      1  0.5432740000000  0.5161820000000  0.4707870000000 1.0
C      1  0.5667760000000  0.4632510000000  0.5093470000000 1.0
C      1  0.5595630000000  0.4982700000000  0.5458120000000 1.0
C      1  0.5034390000000  0.5107460000000  0.4940840000000 1.0
C      1  0.5271020000000  0.4371720000000  0.5326230000000 1.0
C      1  0.4515960000000  0.4730380000000  0.5725840000000 1.0
C      1  0.5451400000000  0.5131760000000  0.5670850000000 1.0
C      1  0.4321970000000  0.4343220000000  0.4166090000000 1.0
C      1  0.4422070000000  0.5252590000000  0.5555330000000 1.0
C      1  0.4785950000000  0.4886090000000  0.5354040000000 1.0
C      1  0.4974080000000  0.4727290000000  0.4218630000000 1.0
C      1  0.5356680000000  0.4412870000000  0.4590260000000 1.0
C      1  0.4863430000000  0.5597030000000  0.4869750000000 1.0
C      1  0.5029790000000  0.4578480000000  0.5279190000000 1.0
C      1  0.4440230000000  0.4457670000000  0.5589810000000 1.0
C      1  0.4582370000000  0.5341680000000  0.4300080000000 1.0
C      1  0.5282290000000  0.4481170000000  0.5778580000000 1.0
C      1  0.5086120000000  0.4739700000000  0.4795500000000 1.0
C      1  0.4209970000000  0.5085840000000  0.4512320000000 1.0
C      1  0.5168110000000  0.5215310000000  0.5598930000000 1.0
C      1  0.4493500000000  0.4875040000000  0.5211050000000 1.0
C      1  0.4338670000000  0.5562420000000  0.4629230000000 1.0
C      1  0.4541050000000  0.5114130000000  0.4519740000000 1.0
C      1  0.4821300000000  0.5101580000000  0.6182280000000 1.0
C      1  0.4876770000000  0.5165840000000  0.4504460000000 1.0
C      1  0.4632370000000  0.4736360000000  0.4425490000000 1.0
C      1  0.5317190000000  0.4290860000000  0.5577750000000 1.0
C      1  0.5008510000000  0.5350630000000  0.4729950000000 1.0
C      1  0.4877150000000  0.5046620000000  0.5623090000000 1.0
C      1  0.5598170000000  0.4612760000000  0.4458530000000 1.0
C      1  0.4253710000000  0.5307790000000  0.4718700000000 1.0
C      1  0.4073060000000  0.4585810000000  0.5041210000000 1.0
C      1  0.5570190000000  0.5221220000000  0.5886580000000 1.0
C      1  0.4196830000000  0.4364350000000  0.5158530000000 1.0
C      1  0.5417180000000  0.4933670000000  0.5173300000000 1.0
C      1  0.4220490000000  0.4807120000000  0.5019170000000 1.0
C      1  0.5498970000000  0.5682760000000  0.5565020000000 1.0
C      1  0.5738230000000  0.5265240000000  0.4940420000000 1.0
C      1  0.5267770000000  0.4927240000000  0.4608470000000 1.0
C      1  0.4819160000000  0.4339410000000  0.5249000000000 1.0
C      1  0.5530960000000  0.5599780000000  0.5297310000000 1.0
C      1  0.4515750000000  0.4514390000000  0.4907390000000 1.0
C      1  0.5029690000000  0.5338830000000  0.4136240000000 1.0
C      1  0.5733940000000  0.5376680000000  0.5251530000000 1.0
C      1  0.5104950000000  0.5163190000000  0.5268820000000 1.0
C      1  0.5258730000000  0.4785280000000  0.5678220000000 1.0
C      1  0.5017710000000  0.4647570000000  0.5844950000000 1.0
C      1  0.4559090000000  0.5579970000000  0.4449770000000 1.0
C      1  0.4451210000000  0.4525230000000  0.4289750000000 1.0
C      1  0.4756490000000  0.5018620000000  0.4765980000000 1.0
C      1  0.4616130000000  0.5365290000000  0.5766740000000 1.0
C      1  0.5729630000000  0.4694070000000  0.5367540000000 1.0
C      1  0.5149510000000  0.5727510000000  0.4621630000000 1.0
C      1  0.5236280000000  0.4339490000000  0.4838740000000 1.0
C      1  0.4946330000000  0.5428580000000  0.5715630000000 1.0
C      1  0.5432990000000  0.4392990000000  0.5075310000000 1.0
C      1  0.4776120000000  0.5143840000000  0.5933100000000 1.0
C      1  0.5110320000000  0.5666290000000  0.5045740000000 1.0
C      1  0.5182720000000  0.4854260000000  0.5388330000000 1.0
C      1  0.4835600000000  0.5653610000000  0.4534740000000 1.0
C      1  0.5814310000000  0.4677360000000  0.4620160000000 1.0
C      1  0.4769640000000  0.5212990000000  0.4123040000000 1.0
C      1  0.5767360000000  0.5177880000000  0.4649010000000 1.0
C      1  0.4810610000000  0.5284510000000  0.5277230000000 1.0
C      1  0.4780940000000  0.5486700000000  0.5462770000000 1.0
C      1  0.5442680000000  0.4843110000000  0.4262510000000 1.0
C      1  0.5318960000000  0.5717930000000  0.4331650000000 1.0
C      1  0.4938250000000  0.4829130000000  0.5075740000000 1.0
C      1  0.5799540000000  0.5046510000000  0.5193410000000 1.0
C      1  0.4298960000000  0.4697760000000  0.5394820000000 1.0
C      1  0.5594510000000  0.5821440000000  0.5128570000000 1.0
C      1  0.4571940000000  0.5165180000000  0.5110210000000 1.0
C      1  0.4429580000000  0.5396710000000  0.5295020000000 1.0
C      1  0.5280390000000  0.5438730000000  0.5174040000000 1.0
C      1  0.4518270000000  0.4785110000000  0.4742490000000 1.0
C      1  0.4842880000000  0.4097890000000  0.5430540000000 1.0
C      1  0.5208660000000  0.4645120000000  0.4427120000000 1.0
C      1  0.4597760000000  0.5560710000000  0.5079270000000 1.0
C      1  0.5038060000000  0.5589650000000  0.4268460000000 1.0
C      1  0.4371210000000  0.4975710000000  0.5577670000000 1.0
C      1  0.5394440000000  0.5410000000000  0.4288890000000 1.0
C      1  0.5959450000000  0.4954560000000  0.4623890000000 1.0
C      1  0.4506900000000  0.4474040000000  0.5244940000000 1.0
C      1  0.5423780000000  0.5193550000000  0.5029550000000 1.0
C      1  0.4783700000000  0.4778540000000  0.5775500000000 1.0
C      1  0.4965440000000  0.4309700000000  0.4943470000000 1.0
C      1  0.5356740000000  0.4699260000000  0.4964250000000 1.0
C      1  0.5305650000000  0.5426390000000  0.4603170000000 1.0
C      1  0.5302310000000  0.5136470000000  0.4161920000000 1.0
END
