TITL C-2848498-1409-372 0.000761073482217051 125000 -819.485827778913 0 0 147 (C1) n - 1
REM
REM in /home/bkarasulu/work/CARBON/AIRSS/Generating-Clusters/AIREBO/with-SteepDescent/Only-C1/SD-CG-opt/Try1-1.4A-POS3A/HFTN-CG
REM
REM
REM
REM
REM
REM ./C.cell (11c1c37f851c82e70ff6c80c92926a4b)
REM
REM compiler GCC version 9.2.1 20190827 (Red Hat 9.2.1-1)
REM options -cpp -mtune=generic -march=x86-64 -g -O0 -fpre-include=/usr/include/finclude/math-vector-fortran.h
REM seed 892328512 -105698652 -1033283753 -358313325 1796681923 -521444558 951862056 1711798417 287814046 -1526239281 -496369819 -1983680743 -921852931 -1284528234 -509543438 -2074760213 1598997299 697381085 872364419 1461398863 -2121883497 -842674847 1972805920 1335336300 -1704795945 -2032441209 -1896411279 1860385757 1538437191 -727341499 1785185532 1356057400 1257583230
REM
CELL 1.54180   50.00000   50.00000   50.00000   90.00000   90.00000   90.00000
LATT -1
SFAC C  
C      1  0.4744330000000  0.4435620000000  0.5286860000000 1.0
C      1  0.6079400000000  0.5396220000000  0.5068960000000 1.0
C      1  0.5285030000000  0.5984600000000  0.5089330000000 1.0
C      1  0.4224660000000  0.5727160000000  0.5192000000000 1.0
C      1  0.5177370000000  0.4703110000000  0.4227840000000 1.0
C      1  0.5516610000000  0.5331600000000  0.5029040000000 1.0
C      1  0.4621630000000  0.5057660000000  0.4520310000000 1.0
C      1  0.4829850000000  0.4114330000000  0.4392740000000 1.0
C      1  0.5279010000000  0.4365100000000  0.5691470000000 1.0
C      1  0.5850140000000  0.5622630000000  0.5143530000000 1.0
C      1  0.5450880000000  0.5688520000000  0.4666280000000 1.0
C      1  0.4796990000000  0.5066110000000  0.5504220000000 1.0
C      1  0.5660910000000  0.5814120000000  0.5128260000000 1.0
C      1  0.4911180000000  0.5341020000000  0.5125320000000 1.0
C      1  0.5835840000000  0.4598880000000  0.5078000000000 1.0
C      1  0.4423410000000  0.4823440000000  0.4373710000000 1.0
C      1  0.4948660000000  0.5818180000000  0.4473080000000 1.0
C      1  0.5785810000000  0.4989500000000  0.5186160000000 1.0
C      1  0.4994680000000  0.4376400000000  0.5760270000000 1.0
C      1  0.5026640000000  0.5203580000000  0.5681580000000 1.0
C      1  0.4560370000000  0.5004420000000  0.5695930000000 1.0
C      1  0.5807930000000  0.5276540000000  0.4467190000000 1.0
C      1  0.5574670000000  0.5296650000000  0.4038490000000 1.0
C      1  0.5170210000000  0.4091110000000  0.4752040000000 1.0
C      1  0.4908040000000  0.5635200000000  0.5074020000000 1.0
C      1  0.4181470000000  0.5287760000000  0.5080540000000 1.0
C      1  0.4889700000000  0.6032720000000  0.5111570000000 1.0
C      1  0.5104160000000  0.5553480000000  0.4326270000000 1.0
C      1  0.5308010000000  0.5488840000000  0.4858750000000 1.0
C      1  0.5600030000000  0.4913850000000  0.5827750000000 1.0
C      1  0.5945900000000  0.4635790000000  0.4757310000000 1.0
C      1  0.4340660000000  0.5585240000000  0.5460470000000 1.0
C      1  0.5305080000000  0.4875920000000  0.4491640000000 1.0
C      1  0.5064760000000  0.5023960000000  0.5950710000000 1.0
C      1  0.4944500000000  0.4427790000000  0.4708730000000 1.0
C      1  0.4898410000000  0.6146550000000  0.4861790000000 1.0
C      1  0.4749630000000  0.4540770000000  0.4963510000000 1.0
C      1  0.4315700000000  0.5045750000000  0.5527620000000 1.0
C      1  0.3966650000000  0.5813930000000  0.5170280000000 1.0
C      1  0.4680920000000  0.5234190000000  0.5269780000000 1.0
C      1  0.5023440000000  0.4036850000000  0.5340210000000 1.0
C      1  0.5114200000000  0.4157830000000  0.4464540000000 1.0
C      1  0.4784100000000  0.4759090000000  0.4529770000000 1.0
C      1  0.4681610000000  0.5778010000000  0.4494080000000 1.0
C      1  0.4488270000000  0.4064590000000  0.5337760000000 1.0
C      1  0.5428690000000  0.5579160000000  0.4392720000000 1.0
C      1  0.6028540000000  0.5391930000000  0.5405170000000 1.0
C      1  0.5437010000000  0.5161060000000  0.4545200000000 1.0
C      1  0.3952890000000  0.5263970000000  0.4544990000000 1.0
C      1  0.4765610000000  0.4025840000000  0.5442040000000 1.0
C      1  0.5412890000000  0.4638790000000  0.5750500000000 1.0
C      1  0.4511610000000  0.4303640000000  0.4910840000000 1.0
C      1  0.4686880000000  0.5081670000000  0.4191880000000 1.0
C      1  0.5040740000000  0.5040650000000  0.4742350000000 1.0
C      1  0.5848580000000  0.5397920000000  0.5637260000000 1.0
C      1  0.5322750000000  0.4432140000000  0.5032950000000 1.0
C      1  0.5560460000000  0.4522680000000  0.5263410000000 1.0
C      1  0.4132210000000  0.4558980000000  0.4720620000000 1.0
C      1  0.3945580000000  0.4901100000000  0.5256440000000 1.0
C      1  0.4882850000000  0.5708190000000  0.5560150000000 1.0
C      1  0.5589990000000  0.4544310000000  0.4871640000000 1.0
C      1  0.5043190000000  0.6012640000000  0.4650980000000 1.0
C      1  0.5882140000000  0.4772890000000  0.4501960000000 1.0
C      1  0.5229720000000  0.4381580000000  0.4328790000000 1.0
C      1  0.5315520000000  0.5976650000000  0.4749270000000 1.0
C      1  0.4491630000000  0.5594940000000  0.4701120000000 1.0
C      1  0.4794090000000  0.4430620000000  0.4434840000000 1.0
C      1  0.4622040000000  0.5750680000000  0.5439160000000 1.0
C      1  0.5991860000000  0.4840350000000  0.5494630000000 1.0
C      1  0.4633200000000  0.4651320000000  0.4168860000000 1.0
C      1  0.4147660000000  0.4793230000000  0.4518350000000 1.0
C      1  0.5148860000000  0.5708290000000  0.4993990000000 1.0
C      1  0.5963820000000  0.5039070000000  0.4430400000000 1.0
C      1  0.4854490000000  0.5487810000000  0.5753840000000 1.0
C      1  0.4267320000000  0.4797080000000  0.4897390000000 1.0
C      1  0.5567870000000  0.5250010000000  0.5597600000000 1.0
C      1  0.4466670000000  0.4658010000000  0.5890030000000 1.0
C      1  0.5301990000000  0.4881820000000  0.5956290000000 1.0
C      1  0.4153080000000  0.4829740000000  0.5435080000000 1.0
C      1  0.5735400000000  0.5320050000000  0.5248550000000 1.0
C      1  0.5357050000000  0.5069020000000  0.4058040000000 1.0
C      1  0.5695260000000  0.4957600000000  0.5518070000000 1.0
C      1  0.5213310000000  0.5231960000000  0.4307290000000 1.0
C      1  0.4757650000000  0.4842400000000  0.5250980000000 1.0
C      1  0.4371270000000  0.5301560000000  0.4823780000000 1.0
C      1  0.5610530000000  0.5905080000000  0.4871830000000 1.0
C      1  0.5004220000000  0.5340610000000  0.4821600000000 1.0
C      1  0.4728490000000  0.5359750000000  0.4635440000000 1.0
C      1  0.5005880000000  0.4998040000000  0.4433070000000 1.0
C      1  0.4452240000000  0.4469310000000  0.5649830000000 1.0
C      1  0.4666720000000  0.3951620000000  0.4558070000000 1.0
C      1  0.5492680000000  0.4462050000000  0.4492830000000 1.0
C      1  0.5395670000000  0.4274970000000  0.5428130000000 1.0
C      1  0.5496350000000  0.4794450000000  0.4153600000000 1.0
C      1  0.5614360000000  0.4205150000000  0.4882160000000 1.0
C      1  0.4607390000000  0.5460900000000  0.4101380000000 1.0
C      1  0.5252340000000  0.4796140000000  0.4818480000000 1.0
C      1  0.5385660000000  0.4047370000000  0.4949380000000 1.0
C      1  0.5661260000000  0.5243830000000  0.4751350000000 1.0
C      1  0.4228270000000  0.5704620000000  0.4571940000000 1.0
C      1  0.5398180000000  0.5745200000000  0.5302720000000 1.0
C      1  0.4354640000000  0.5299930000000  0.5335990000000 1.0
C      1  0.4774050000000  0.4924500000000  0.5948180000000 1.0
C      1  0.4778180000000  0.5016700000000  0.4882590000000 1.0
C      1  0.5086550000000  0.5885300000000  0.5347160000000 1.0
C      1  0.4384610000000  0.5577840000000  0.5776210000000 1.0
C      1  0.5524340000000  0.4841310000000  0.5024370000000 1.0
C      1  0.4390440000000  0.4873040000000  0.6041940000000 1.0
C      1  0.5368380000000  0.4747620000000  0.5431460000000 1.0
C      1  0.4266220000000  0.5314950000000  0.4500390000000 1.0
C      1  0.5112990000000  0.4951640000000  0.3898070000000 1.0
C      1  0.5103500000000  0.4568910000000  0.5398500000000 1.0
C      1  0.4436530000000  0.5744340000000  0.4999460000000 1.0
C      1  0.4449130000000  0.4783910000000  0.5173880000000 1.0
C      1  0.4097220000000  0.5031760000000  0.4719620000000 1.0
C      1  0.5240520000000  0.5465060000000  0.5658230000000 1.0
C      1  0.5244510000000  0.4947500000000  0.5185880000000 1.0
C      1  0.4003810000000  0.5062170000000  0.5036460000000 1.0
C      1  0.4837660000000  0.4669760000000  0.5513550000000 1.0
C      1  0.5042840000000  0.4328670000000  0.5166760000000 1.0
C      1  0.5382570000000  0.5451320000000  0.5391490000000 1.0
C      1  0.4338550000000  0.4373660000000  0.4664070000000 1.0
C      1  0.4605240000000  0.5433960000000  0.5880030000000 1.0
C      1  0.4780390000000  0.4637100000000  0.5803570000000 1.0
C      1  0.6047380000000  0.4774540000000  0.5218030000000 1.0
C      1  0.4582320000000  0.4774250000000  0.4799020000000 1.0
C      1  0.5233410000000  0.4495610000000  0.4710720000000 1.0
C      1  0.4677530000000  0.5805550000000  0.5153880000000 1.0
C      1  0.4387040000000  0.4279780000000  0.5199010000000 1.0
C      1  0.4907990000000  0.4178220000000  0.4905780000000 1.0
C      1  0.4709890000000  0.4301880000000  0.5597630000000 1.0
C      1  0.5317850000000  0.4049240000000  0.5240560000000 1.0
C      1  0.5674200000000  0.4243980000000  0.4605090000000 1.0
C      1  0.5657630000000  0.4676070000000  0.4355390000000 1.0
C      1  0.4553450000000  0.5171090000000  0.6026620000000 1.0
C      1  0.4889930000000  0.4826720000000  0.4092980000000 1.0
C      1  0.4329150000000  0.4554310000000  0.5369840000000 1.0
C      1  0.5311510000000  0.5048400000000  0.5579660000000 1.0
C      1  0.4487820000000  0.4506750000000  0.4441690000000 1.0
C      1  0.4652790000000  0.4028700000000  0.4820700000000 1.0
C      1  0.5932190000000  0.5169420000000  0.4937350000000 1.0
C      1  0.4834080000000  0.5354640000000  0.4331430000000 1.0
C      1  0.5635880000000  0.5419790000000  0.4286530000000 1.0
C      1  0.4519110000000  0.5085140000000  0.5041500000000 1.0
C      1  0.5010710000000  0.4740440000000  0.5051270000000 1.0
C      1  0.4419030000000  0.5280730000000  0.4262540000000 1.0
C      1  0.5222200000000  0.5248770000000  0.5176000000000 1.0
END
