TITL C-2848505-4874-549 -3.23705983886358e-05 125000 -538.33921726053 0 0 106 (C1) n - 1
REM
REM in /home/bkarasulu/work/CARBON/AIRSS/Generating-Clusters/AIREBO/with-SteepDescent/Only-C1/SD-CG-opt/Try1-1.4A-POS3A/HFTN-CG
REM
REM
REM
REM
REM
REM ./C.cell (11c1c37f851c82e70ff6c80c92926a4b)
REM
REM compiler GCC version 9.2.1 20190827 (Red Hat 9.2.1-1)
REM options -cpp -mtune=generic -march=x86-64 -g -O0 -fpre-include=/usr/include/finclude/math-vector-fortran.h
REM seed 1042087222 -967584247 382761640 -1627630351 -2102541051 -430393441 -1043787498 1206452333 1760340143 -1090605512 -451322367 1778359315 -2084472697 -533942818 193976484 -692004133 -1009752447 570509042 -1605057743 -1545007962 -249551708 20502214 671868778 -1644344068 1595920641 449280769 172310331 -1718157895 -1149134516 1126522259 2043931710 -964663465 2003230040
REM
CELL 1.54180   50.00000   50.00000   50.00000   90.00000   90.00000   90.00000
LATT -1
SFAC C  
C      1  0.5305880000000  0.5836750000000  0.5149040000000 1.0
C      1  0.4940300000000  0.5172750000000  0.5815540000000 1.0
C      1  0.4537640000000  0.5842530000000  0.4828550000000 1.0
C      1  0.5926640000000  0.4742990000000  0.5089360000000 1.0
C      1  0.5184930000000  0.5432550000000  0.4582640000000 1.0
C      1  0.5188210000000  0.5484510000000  0.5290970000000 1.0
C      1  0.5033750000000  0.5719230000000  0.4982190000000 1.0
C      1  0.4385500000000  0.4517440000000  0.5735120000000 1.0
C      1  0.5701180000000  0.4322700000000  0.5074980000000 1.0
C      1  0.5585610000000  0.5035790000000  0.5309090000000 1.0
C      1  0.4455830000000  0.4822450000000  0.5725580000000 1.0
C      1  0.4421550000000  0.4800870000000  0.5356490000000 1.0
C      1  0.5147510000000  0.4848930000000  0.4548200000000 1.0
C      1  0.4489700000000  0.5687660000000  0.4575470000000 1.0
C      1  0.4984660000000  0.4804060000000  0.4815650000000 1.0
C      1  0.4955520000000  0.5140780000000  0.5421050000000 1.0
C      1  0.4292770000000  0.4288290000000  0.5199210000000 1.0
C      1  0.4850010000000  0.5158090000000  0.4688200000000 1.0
C      1  0.5141900000000  0.5579930000000  0.5614840000000 1.0
C      1  0.5090090000000  0.5135680000000  0.4460960000000 1.0
C      1  0.5065490000000  0.5173580000000  0.4139060000000 1.0
C      1  0.5204080000000  0.4528800000000  0.5422280000000 1.0
C      1  0.4712160000000  0.5608700000000  0.4993740000000 1.0
C      1  0.5138230000000  0.4241980000000  0.5237070000000 1.0
C      1  0.4531330000000  0.4435230000000  0.4622470000000 1.0
C      1  0.5806710000000  0.5174400000000  0.4926070000000 1.0
C      1  0.4987850000000  0.5677960000000  0.4453800000000 1.0
C      1  0.5581340000000  0.4651980000000  0.5455470000000 1.0
C      1  0.4873280000000  0.4544780000000  0.4277050000000 1.0
C      1  0.4900200000000  0.4524350000000  0.5087860000000 1.0
C      1  0.5610910000000  0.5146940000000  0.4522740000000 1.0
C      1  0.5882670000000  0.5036600000000  0.4655360000000 1.0
C      1  0.5000190000000  0.4768080000000  0.5287810000000 1.0
C      1  0.4809810000000  0.4385550000000  0.4508600000000 1.0
C      1  0.4680100000000  0.5189340000000  0.4226440000000 1.0
C      1  0.5031560000000  0.4343140000000  0.4700090000000 1.0
C      1  0.4527400000000  0.4176170000000  0.5050480000000 1.0
C      1  0.5855440000000  0.5021330000000  0.5158120000000 1.0
C      1  0.5138340000000  0.4636760000000  0.4306420000000 1.0
C      1  0.5090050000000  0.4868320000000  0.5838300000000 1.0
C      1  0.5091060000000  0.5417750000000  0.4909290000000 1.0
C      1  0.4335040000000  0.4628580000000  0.4830590000000 1.0
C      1  0.4870340000000  0.5426280000000  0.4269880000000 1.0
C      1  0.5001420000000  0.4170680000000  0.4933790000000 1.0
C      1  0.5564440000000  0.5440020000000  0.4458640000000 1.0
C      1  0.5222780000000  0.4566030000000  0.5025310000000 1.0
C      1  0.4587400000000  0.4478410000000  0.5007060000000 1.0
C      1  0.4301070000000  0.4888920000000  0.5050900000000 1.0
C      1  0.5530510000000  0.5549260000000  0.4958580000000 1.0
C      1  0.4730930000000  0.5326970000000  0.5595770000000 1.0
C      1  0.4629070000000  0.5681770000000  0.5443300000000 1.0
C      1  0.5671740000000  0.5462290000000  0.5255390000000 1.0
C      1  0.5450360000000  0.5675910000000  0.5384400000000 1.0
C      1  0.4250040000000  0.5223130000000  0.4680200000000 1.0
C      1  0.5614250000000  0.4285530000000  0.4762740000000 1.0
C      1  0.4345200000000  0.5561320000000  0.5354260000000 1.0
C      1  0.5191280000000  0.5364120000000  0.5790610000000 1.0
C      1  0.5141160000000  0.5103360000000  0.4855590000000 1.0
C      1  0.4681060000000  0.4737700000000  0.4168150000000 1.0
C      1  0.4608220000000  0.5068160000000  0.4488170000000 1.0
C      1  0.5436410000000  0.5630970000000  0.4696860000000 1.0
C      1  0.5378190000000  0.4280350000000  0.4999270000000 1.0
C      1  0.5480380000000  0.5116660000000  0.4835320000000 1.0
C      1  0.5149310000000  0.5814520000000  0.4690130000000 1.0
C      1  0.5439840000000  0.4764260000000  0.5175150000000 1.0
C      1  0.5486880000000  0.5359180000000  0.5521470000000 1.0
C      1  0.4307060000000  0.5058290000000  0.5594180000000 1.0
C      1  0.4496290000000  0.4922740000000  0.4774440000000 1.0
C      1  0.4218960000000  0.4533590000000  0.5299970000000 1.0
C      1  0.4632160000000  0.5193140000000  0.4933020000000 1.0
C      1  0.4805440000000  0.4931950000000  0.5062040000000 1.0
C      1  0.4996050000000  0.4422020000000  0.5669200000000 1.0
C      1  0.4752740000000  0.4893840000000  0.5803470000000 1.0
C      1  0.4455220000000  0.5305150000000  0.5690410000000 1.0
C      1  0.4844620000000  0.4702620000000  0.5569980000000 1.0
C      1  0.4847290000000  0.4356800000000  0.5370480000000 1.0
C      1  0.5284260000000  0.4572200000000  0.4690960000000 1.0
C      1  0.4234570000000  0.5524380000000  0.5060070000000 1.0
C      1  0.4286790000000  0.5033570000000  0.4453220000000 1.0
C      1  0.5163640000000  0.5050030000000  0.5190690000000 1.0
C      1  0.4803550000000  0.4975630000000  0.4050340000000 1.0
C      1  0.5439900000000  0.4676380000000  0.4338070000000 1.0
C      1  0.5253850000000  0.5116820000000  0.5573900000000 1.0
C      1  0.4897050000000  0.5769250000000  0.5633410000000 1.0
C      1  0.4698400000000  0.5400480000000  0.5265280000000 1.0
C      1  0.4621590000000  0.5072290000000  0.5311310000000 1.0
C      1  0.5552000000000  0.4446240000000  0.4525280000000 1.0
C      1  0.5781820000000  0.4542970000000  0.5225120000000 1.0
C      1  0.4463030000000  0.5451100000000  0.4823820000000 1.0
C      1  0.5507200000000  0.4779650000000  0.4848470000000 1.0
C      1  0.4320690000000  0.5230700000000  0.5312760000000 1.0
C      1  0.4938140000000  0.5715110000000  0.5304350000000 1.0
C      1  0.5506470000000  0.4954660000000  0.4302190000000 1.0
C      1  0.5315150000000  0.4791050000000  0.5615200000000 1.0
C      1  0.4752330000000  0.4028060000000  0.4967450000000 1.0
C      1  0.5645370000000  0.5102430000000  0.5632870000000 1.0
C      1  0.4674460000000  0.5686130000000  0.4368550000000 1.0
C      1  0.5413680000000  0.5274350000000  0.5138030000000 1.0
C      1  0.4175120000000  0.5193250000000  0.5010500000000 1.0
C      1  0.4407680000000  0.4805450000000  0.4264410000000 1.0
C      1  0.4721940000000  0.4677330000000  0.4766320000000 1.0
C      1  0.5819290000000  0.4791120000000  0.4813940000000 1.0
C      1  0.5366420000000  0.5084120000000  0.4102840000000 1.0
C      1  0.5449120000000  0.4380980000000  0.5606050000000 1.0
C      1  0.4587500000000  0.4534020000000  0.5486580000000 1.0
C      1  0.5328470000000  0.5489970000000  0.4277600000000 1.0
END
