TITL C-2848497-6229-88 0.00315482572302312 125000 -873.858049676364 0 0 162 (C1) n - 1
REM
REM in /home/bkarasulu/work/CARBON/AIRSS/Generating-Clusters/AIREBO/with-SteepDescent/Only-C1/SD-CG-opt/Try1-1.4A-POS3A/HFTN-CG
REM
REM
REM
REM
REM
REM ./C.cell (11c1c37f851c82e70ff6c80c92926a4b)
REM
REM compiler GCC version 9.2.1 20190827 (Red Hat 9.2.1-1)
REM options -cpp -mtune=generic -march=x86-64 -g -O0 -fpre-include=/usr/include/finclude/math-vector-fortran.h
REM seed -1717123228 1416550985 -1297338271 -1599558836 -1793501141 2025871447 1329714157 1196457341 2137722679 157368432 -1074057336 -541117398 1721070217 308139976 974309805 527018125 -430083161 1830588256 -1389860421 1760446267 -405325097 -1042024551 1366002754 585814377 -1347629017 1641984897 -476309100 1798636338 -906715320 -6258104 104823130 844744477 982479030
REM
CELL 1.54180   50.00000   50.00000   50.00000   90.00000   90.00000   90.00000
LATT -1
SFAC C  
C      1  0.5184190000000  0.4515610000000  0.4879380000000 1.0
C      1  0.4957580000000  0.5081940000000  0.4754800000000 1.0
C      1  0.4187300000000  0.4399540000000  0.4950840000000 1.0
C      1  0.4140960000000  0.4913910000000  0.5056820000000 1.0
C      1  0.5582430000000  0.4687540000000  0.4266830000000 1.0
C      1  0.4634680000000  0.4419310000000  0.4297840000000 1.0
C      1  0.4289940000000  0.5310330000000  0.5729270000000 1.0
C      1  0.4385550000000  0.4379030000000  0.4477400000000 1.0
C      1  0.4563740000000  0.4835160000000  0.4188470000000 1.0
C      1  0.5015060000000  0.5503120000000  0.4659820000000 1.0
C      1  0.4400870000000  0.4228330000000  0.5153320000000 1.0
C      1  0.6028100000000  0.5043760000000  0.4555040000000 1.0
C      1  0.5689180000000  0.4410380000000  0.5081210000000 1.0
C      1  0.5708210000000  0.5040880000000  0.5796720000000 1.0
C      1  0.5383270000000  0.5715260000000  0.5668790000000 1.0
C      1  0.4974620000000  0.5404870000000  0.4105460000000 1.0
C      1  0.4764790000000  0.4508230000000  0.5446570000000 1.0
C      1  0.4061140000000  0.5007340000000  0.4794640000000 1.0
C      1  0.5528130000000  0.5843670000000  0.4356250000000 1.0
C      1  0.5956570000000  0.5111000000000  0.5082140000000 1.0
C      1  0.5753030000000  0.5791420000000  0.5541180000000 1.0
C      1  0.4182870000000  0.4802000000000  0.5557300000000 1.0
C      1  0.5595220000000  0.4739820000000  0.4609280000000 1.0
C      1  0.5516830000000  0.4518790000000  0.4808620000000 1.0
C      1  0.4793530000000  0.4166160000000  0.4380990000000 1.0
C      1  0.4797020000000  0.4275020000000  0.5691890000000 1.0
C      1  0.4340410000000  0.4645420000000  0.4770890000000 1.0
C      1  0.4703270000000  0.4074180000000  0.5128430000000 1.0
C      1  0.4780930000000  0.4582890000000  0.5115100000000 1.0
C      1  0.5277660000000  0.4834240000000  0.4898810000000 1.0
C      1  0.5127440000000  0.4233970000000  0.5061220000000 1.0
C      1  0.4665070000000  0.5290180000000  0.4059240000000 1.0
C      1  0.4835030000000  0.4788330000000  0.3986980000000 1.0
C      1  0.5281340000000  0.4547360000000  0.6211420000000 1.0
C      1  0.5539730000000  0.5351230000000  0.4326460000000 1.0
C      1  0.5482070000000  0.5515910000000  0.4880800000000 1.0
C      1  0.4605250000000  0.5635870000000  0.5954500000000 1.0
C      1  0.4920240000000  0.4240090000000  0.5306040000000 1.0
C      1  0.5240070000000  0.5689320000000  0.4825560000000 1.0
C      1  0.5745110000000  0.5705030000000  0.4553920000000 1.0
C      1  0.5308710000000  0.5059770000000  0.3991880000000 1.0
C      1  0.4426610000000  0.5086450000000  0.4466040000000 1.0
C      1  0.4236530000000  0.4067740000000  0.4894800000000 1.0
C      1  0.4496620000000  0.5189590000000  0.4998760000000 1.0
C      1  0.5539220000000  0.5011640000000  0.4309440000000 1.0
C      1  0.4873440000000  0.3992580000000  0.4848050000000 1.0
C      1  0.4722300000000  0.4074580000000  0.4629070000000 1.0
C      1  0.4388560000000  0.5084300000000  0.5898420000000 1.0
C      1  0.4872050000000  0.5755350000000  0.5559540000000 1.0
C      1  0.4754690000000  0.4469060000000  0.4006750000000 1.0
C      1  0.5080640000000  0.4955440000000  0.5118870000000 1.0
C      1  0.4124540000000  0.4536530000000  0.4531730000000 1.0
C      1  0.5230510000000  0.4948380000000  0.4602220000000 1.0
C      1  0.5740840000000  0.4721700000000  0.5113460000000 1.0
C      1  0.5710560000000  0.4818270000000  0.5632220000000 1.0
C      1  0.5332280000000  0.4635790000000  0.5427330000000 1.0
C      1  0.5158860000000  0.5484890000000  0.5223470000000 1.0
C      1  0.4899800000000  0.5016450000000  0.4306520000000 1.0
C      1  0.5073130000000  0.5769700000000  0.4461230000000 1.0
C      1  0.4471280000000  0.4226890000000  0.4728290000000 1.0
C      1  0.4958380000000  0.4646830000000  0.4661530000000 1.0
C      1  0.4907830000000  0.5096790000000  0.3976150000000 1.0
C      1  0.5069390000000  0.6128540000000  0.5000300000000 1.0
C      1  0.4575630000000  0.5358540000000  0.4749700000000 1.0
C      1  0.5008940000000  0.4381890000000  0.5926980000000 1.0
C      1  0.4126430000000  0.4493120000000  0.5271080000000 1.0
C      1  0.5777590000000  0.4902070000000  0.5371600000000 1.0
C      1  0.5857130000000  0.5590530000000  0.5657480000000 1.0
C      1  0.5961380000000  0.4382740000000  0.4693320000000 1.0
C      1  0.5331490000000  0.4441010000000  0.5830290000000 1.0
C      1  0.4316820000000  0.4811430000000  0.5811960000000 1.0
C      1  0.5870120000000  0.4790850000000  0.4415790000000 1.0
C      1  0.5642190000000  0.5094080000000  0.4952780000000 1.0
C      1  0.4865690000000  0.5053840000000  0.5305780000000 1.0
C      1  0.5561640000000  0.4540160000000  0.5641650000000 1.0
C      1  0.5303030000000  0.5964190000000  0.5197350000000 1.0
C      1  0.5207980000000  0.5121890000000  0.4310680000000 1.0
C      1  0.5385220000000  0.4154590000000  0.4580610000000 1.0
C      1  0.5471350000000  0.5247030000000  0.5828540000000 1.0
C      1  0.4771150000000  0.5963420000000  0.4990920000000 1.0
C      1  0.4203300000000  0.5126270000000  0.5456340000000 1.0
C      1  0.5490590000000  0.5760470000000  0.5349310000000 1.0
C      1  0.4812710000000  0.4698430000000  0.4375450000000 1.0
C      1  0.4407430000000  0.5589220000000  0.5747800000000 1.0
C      1  0.4399770000000  0.5135160000000  0.4154770000000 1.0
C      1  0.5752130000000  0.4315950000000  0.5557870000000 1.0
C      1  0.4899970000000  0.5283620000000  0.5759820000000 1.0
C      1  0.5834690000000  0.4284040000000  0.5323750000000 1.0
C      1  0.5280870000000  0.5738100000000  0.4269750000000 1.0
C      1  0.5450900000000  0.4812950000000  0.5162490000000 1.0
C      1  0.5267510000000  0.4324180000000  0.4373770000000 1.0
C      1  0.4052200000000  0.4779370000000  0.5285910000000 1.0
C      1  0.4440010000000  0.4774150000000  0.4499300000000 1.0
C      1  0.5034700000000  0.4147910000000  0.4266990000000 1.0
C      1  0.4251630000000  0.5271150000000  0.4694400000000 1.0
C      1  0.5171270000000  0.4855160000000  0.5633600000000 1.0
C      1  0.4479030000000  0.5730970000000  0.5495460000000 1.0
C      1  0.4451600000000  0.4949010000000  0.5306160000000 1.0
C      1  0.5079170000000  0.4059240000000  0.5510610000000 1.0
C      1  0.4365680000000  0.4387300000000  0.5451830000000 1.0
C      1  0.5978640000000  0.4657210000000  0.4686460000000 1.0
C      1  0.4123740000000  0.5373160000000  0.5283940000000 1.0
C      1  0.5164800000000  0.5142050000000  0.5782000000000 1.0
C      1  0.4788960000000  0.4615290000000  0.5898210000000 1.0
C      1  0.4790620000000  0.4814700000000  0.4882550000000 1.0
C      1  0.5289440000000  0.5028670000000  0.5366140000000 1.0
C      1  0.5192110000000  0.5528660000000  0.5879220000000 1.0
C      1  0.5076790000000  0.4550870000000  0.3936830000000 1.0
C      1  0.4467620000000  0.4862110000000  0.4977780000000 1.0
C      1  0.4237460000000  0.5610190000000  0.4671140000000 1.0
C      1  0.5225260000000  0.4779310000000  0.4112780000000 1.0
C      1  0.5746840000000  0.5235940000000  0.5314320000000 1.0
C      1  0.5297410000000  0.5311800000000  0.6109380000000 1.0
C      1  0.5454320000000  0.4201050000000  0.5041070000000 1.0
C      1  0.5205600000000  0.4656400000000  0.4429430000000 1.0
C      1  0.4880690000000  0.5970960000000  0.4491880000000 1.0
C      1  0.5174780000000  0.5497650000000  0.5538420000000 1.0
C      1  0.5526200000000  0.3962430000000  0.4823110000000 1.0
C      1  0.5650950000000  0.5397450000000  0.4633310000000 1.0
C      1  0.4860180000000  0.4860870000000  0.5968910000000 1.0
C      1  0.5234170000000  0.5534350000000  0.4077500000000 1.0
C      1  0.5392870000000  0.5204800000000  0.5110460000000 1.0
C      1  0.4858030000000  0.4821250000000  0.5541700000000 1.0
C      1  0.5138810000000  0.5010120000000  0.6094320000000 1.0
C      1  0.3904720000000  0.4496390000000  0.4788380000000 1.0
C      1  0.4860780000000  0.5561090000000  0.5918960000000 1.0
C      1  0.4763630000000  0.5478280000000  0.4971170000000 1.0
C      1  0.4670580000000  0.5949410000000  0.5317870000000 1.0
C      1  0.4528970000000  0.4577180000000  0.5682110000000 1.0
C      1  0.5004170000000  0.5884640000000  0.5305120000000 1.0
C      1  0.4318040000000  0.5735070000000  0.5041410000000 1.0
C      1  0.4561160000000  0.5613300000000  0.4334560000000 1.0
C      1  0.3946220000000  0.4799870000000  0.4651960000000 1.0
C      1  0.5774880000000  0.5308920000000  0.5627440000000 1.0
C      1  0.4663410000000  0.5929110000000  0.4670170000000 1.0
C      1  0.5543820000000  0.5074540000000  0.4641560000000 1.0
C      1  0.5186520000000  0.4011230000000  0.4817500000000 1.0
C      1  0.4410720000000  0.5533210000000  0.5277490000000 1.0
C      1  0.4569370000000  0.5000410000000  0.5556200000000 1.0
C      1  0.4699890000000  0.5070170000000  0.5846830000000 1.0
C      1  0.4431340000000  0.5973640000000  0.4998370000000 1.0
C      1  0.4968000000000  0.5688750000000  0.5029510000000 1.0
C      1  0.4744180000000  0.5190160000000  0.4529220000000 1.0
C      1  0.4825430000000  0.5468160000000  0.4379470000000 1.0
C      1  0.4848680000000  0.5452610000000  0.5497570000000 1.0
C      1  0.5433880000000  0.5325990000000  0.4052210000000 1.0
C      1  0.4170390000000  0.5452510000000  0.4970350000000 1.0
C      1  0.5556740000000  0.5490830000000  0.5193780000000 1.0
C      1  0.5183460000000  0.4168670000000  0.5732800000000 1.0
C      1  0.5098270000000  0.4629350000000  0.5190080000000 1.0
C      1  0.5130120000000  0.5319630000000  0.4927500000000 1.0
C      1  0.5902240000000  0.5202260000000  0.4762180000000 1.0
C      1  0.5942940000000  0.4819130000000  0.4908210000000 1.0
C      1  0.5233440000000  0.4724250000000  0.5944290000000 1.0
C      1  0.4675420000000  0.5320780000000  0.5257070000000 1.0
C      1  0.5368030000000  0.4483450000000  0.4110360000000 1.0
C      1  0.4465520000000  0.5743550000000  0.4565780000000 1.0
C      1  0.5563820000000  0.5965530000000  0.4652990000000 1.0
C      1  0.4407510000000  0.5476610000000  0.4116710000000 1.0
C      1  0.5679900000000  0.4249370000000  0.4715620000000 1.0
C      1  0.5342600000000  0.5982570000000  0.4860120000000 1.0
C      1  0.4710820000000  0.4344310000000  0.4938060000000 1.0
END
