TITL C-2848501-3133-702 -4.99458658902091e-05 125000 -873.926292770945 0 0 159 (C1) n - 1
REM
REM in /home/bkarasulu/work/CARBON/AIRSS/Generating-Clusters/AIREBO/with-SteepDescent/Only-C1/SD-CG-opt/Try1-1.4A-POS3A/HFTN-CG
REM
REM
REM
REM
REM
REM ./C.cell (11c1c37f851c82e70ff6c80c92926a4b)
REM
REM compiler GCC version 9.2.1 20190827 (Red Hat 9.2.1-1)
REM options -cpp -mtune=generic -march=x86-64 -g -O0 -fpre-include=/usr/include/finclude/math-vector-fortran.h
REM seed -640557748 -1744400043 1733840047 -1792741588 1527934711 472249694 -69465959 419198990 -1809171485 -1055523055 -1608867386 -1735986164 1899613219 1531567672 -532944300 -1960422928 996061486 -1096137093 954668030 -1511287271 -2086935290 412512947 -250126188 -1311325596 135856685 124749547 -1884824186 1082230272 305265663 -837871029 1385538805 -1306798576 -1351856622
REM
CELL 1.54180   50.00000   50.00000   50.00000   90.00000   90.00000   90.00000
LATT -1
SFAC C  
C      1  0.4782880000000  0.5054910000000  0.5406290000000 1.0
C      1  0.5513440000000  0.4316920000000  0.4338980000000 1.0
C      1  0.5532690000000  0.5373090000000  0.4876000000000 1.0
C      1  0.4258190000000  0.4463240000000  0.5093900000000 1.0
C      1  0.5898160000000  0.5192300000000  0.5138590000000 1.0
C      1  0.4375800000000  0.4940480000000  0.5954820000000 1.0
C      1  0.4985830000000  0.5262320000000  0.4127290000000 1.0
C      1  0.4775060000000  0.5001790000000  0.3908470000000 1.0
C      1  0.5635770000000  0.5086310000000  0.4569820000000 1.0
C      1  0.4421580000000  0.4167970000000  0.5052040000000 1.0
C      1  0.4485290000000  0.4243360000000  0.5337460000000 1.0
C      1  0.5544280000000  0.4687020000000  0.5493430000000 1.0
C      1  0.4356260000000  0.5258200000000  0.4201690000000 1.0
C      1  0.4594060000000  0.4665320000000  0.4408910000000 1.0
C      1  0.5809690000000  0.5658180000000  0.4844580000000 1.0
C      1  0.5273390000000  0.5484090000000  0.4484480000000 1.0
C      1  0.5087530000000  0.4551540000000  0.5717260000000 1.0
C      1  0.4956610000000  0.4037330000000  0.5202520000000 1.0
C      1  0.4174800000000  0.4959110000000  0.4635090000000 1.0
C      1  0.4148510000000  0.5434670000000  0.4963740000000 1.0
C      1  0.4439470000000  0.5121800000000  0.5214530000000 1.0
C      1  0.5269630000000  0.4523310000000  0.5446240000000 1.0
C      1  0.5342170000000  0.5171350000000  0.4441110000000 1.0
C      1  0.4349710000000  0.5596290000000  0.5389980000000 1.0
C      1  0.4667050000000  0.4673970000000  0.5546650000000 1.0
C      1  0.5096350000000  0.6004150000000  0.4635370000000 1.0
C      1  0.4862880000000  0.6057000000000  0.5356420000000 1.0
C      1  0.4877130000000  0.4464850000000  0.5100240000000 1.0
C      1  0.5106630000000  0.5359100000000  0.6007280000000 1.0
C      1  0.4603890000000  0.4052400000000  0.4854240000000 1.0
C      1  0.4595970000000  0.5520260000000  0.5557260000000 1.0
C      1  0.4275250000000  0.4628210000000  0.4370350000000 1.0
C      1  0.5642100000000  0.4986200000000  0.4252910000000 1.0
C      1  0.4796580000000  0.5640590000000  0.5308380000000 1.0
C      1  0.4048650000000  0.4860180000000  0.5308610000000 1.0
C      1  0.5024020000000  0.4285290000000  0.5425850000000 1.0
C      1  0.4513430000000  0.5007020000000  0.4917090000000 1.0
C      1  0.4734740000000  0.4421450000000  0.5372370000000 1.0
C      1  0.4595410000000  0.5774140000000  0.4424300000000 1.0
C      1  0.5643450000000  0.5837600000000  0.4666800000000 1.0
C      1  0.4406110000000  0.5807860000000  0.5207270000000 1.0
C      1  0.5717790000000  0.4518760000000  0.5084880000000 1.0
C      1  0.4581740000000  0.4159200000000  0.4581000000000 1.0
C      1  0.4349360000000  0.4432670000000  0.5526750000000 1.0
C      1  0.6039040000000  0.4745250000000  0.5503620000000 1.0
C      1  0.6006230000000  0.5231400000000  0.4911180000000 1.0
C      1  0.5390930000000  0.4599250000000  0.5137660000000 1.0
C      1  0.4909570000000  0.5320610000000  0.5286630000000 1.0
C      1  0.4721150000000  0.5707620000000  0.4983460000000 1.0
C      1  0.5794130000000  0.5029860000000  0.5888150000000 1.0
C      1  0.4590300000000  0.5215000000000  0.5602470000000 1.0
C      1  0.5226740000000  0.5239250000000  0.5194550000000 1.0
C      1  0.5247720000000  0.4754230000000  0.4402100000000 1.0
C      1  0.5599990000000  0.4300310000000  0.5412760000000 1.0
C      1  0.5262000000000  0.4119120000000  0.4454170000000 1.0
C      1  0.4054350000000  0.4605770000000  0.4873510000000 1.0
C      1  0.5376800000000  0.4917990000000  0.4133850000000 1.0
C      1  0.5404080000000  0.4187700000000  0.5277740000000 1.0
C      1  0.4830500000000  0.4793340000000  0.4236140000000 1.0
C      1  0.5847350000000  0.4712090000000  0.4855840000000 1.0
C      1  0.5532030000000  0.5602280000000  0.4315940000000 1.0
C      1  0.4827470000000  0.5127760000000  0.4573740000000 1.0
C      1  0.4895560000000  0.5589130000000  0.5998780000000 1.0
C      1  0.4832270000000  0.5945340000000  0.4821380000000 1.0
C      1  0.4734970000000  0.5535680000000  0.4269750000000 1.0
C      1  0.4787970000000  0.5447930000000  0.4809140000000 1.0
C      1  0.5350770000000  0.5971740000000  0.4784790000000 1.0
C      1  0.5046980000000  0.5566960000000  0.4265870000000 1.0
C      1  0.4777760000000  0.4846580000000  0.5166350000000 1.0
C      1  0.5091100000000  0.5369750000000  0.4751830000000 1.0
C      1  0.4966710000000  0.4829700000000  0.5579150000000 1.0
C      1  0.5091650000000  0.4695120000000  0.6382140000000 1.0
C      1  0.4627530000000  0.5639370000000  0.5854450000000 1.0
C      1  0.5153600000000  0.5086470000000  0.4899730000000 1.0
C      1  0.4596690000000  0.6002330000000  0.5286870000000 1.0
C      1  0.4978190000000  0.4242710000000  0.5753000000000 1.0
C      1  0.5759290000000  0.4328740000000  0.4827600000000 1.0
C      1  0.5000770000000  0.5612540000000  0.5717220000000 1.0
C      1  0.5866880000000  0.4800620000000  0.5752260000000 1.0
C      1  0.5069840000000  0.4858750000000  0.3999590000000 1.0
C      1  0.4547890000000  0.4484650000000  0.5794690000000 1.0
C      1  0.5806270000000  0.5355420000000  0.4689450000000 1.0
C      1  0.4169640000000  0.5066210000000  0.4164660000000 1.0
C      1  0.4649990000000  0.4890310000000  0.5965630000000 1.0
C      1  0.4648060000000  0.5267570000000  0.4078650000000 1.0
C      1  0.5072140000000  0.4133500000000  0.4735920000000 1.0
C      1  0.5550930000000  0.4116090000000  0.4681660000000 1.0
C      1  0.5225260000000  0.3962420000000  0.5303110000000 1.0
C      1  0.5599250000000  0.4856320000000  0.4765450000000 1.0
C      1  0.5015700000000  0.5364460000000  0.5587360000000 1.0
C      1  0.4750470000000  0.5975350000000  0.4524740000000 1.0
C      1  0.4222730000000  0.5349690000000  0.5259900000000 1.0
C      1  0.5400640000000  0.4650340000000  0.4657560000000 1.0
C      1  0.4688780000000  0.5271980000000  0.5038120000000 1.0
C      1  0.4390960000000  0.5671100000000  0.4910130000000 1.0
C      1  0.4804330000000  0.5119940000000  0.5816580000000 1.0
C      1  0.5379410000000  0.4574800000000  0.4160250000000 1.0
C      1  0.5189510000000  0.4336550000000  0.5059830000000 1.0
C      1  0.4310480000000  0.5068240000000  0.5679150000000 1.0
C      1  0.4180010000000  0.4468280000000  0.4611750000000 1.0
C      1  0.5648060000000  0.5550390000000  0.5311850000000 1.0
C      1  0.5546830000000  0.4956700000000  0.5339410000000 1.0
C      1  0.4650920000000  0.5381950000000  0.4537190000000 1.0
C      1  0.5216500000000  0.5574030000000  0.5253300000000 1.0
C      1  0.5134690000000  0.5169170000000  0.3876850000000 1.0
C      1  0.5184180000000  0.6044410000000  0.5245740000000 1.0
C      1  0.5785640000000  0.4268290000000  0.4492860000000 1.0
C      1  0.4490700000000  0.4688520000000  0.5189200000000 1.0
C      1  0.3967230000000  0.5140640000000  0.4923920000000 1.0
C      1  0.5391610000000  0.6065470000000  0.5072030000000 1.0
C      1  0.5771840000000  0.5504140000000  0.4395930000000 1.0
C      1  0.4179420000000  0.5257140000000  0.4692370000000 1.0
C      1  0.4878310000000  0.4008600000000  0.4932000000000 1.0
C      1  0.5045670000000  0.5024820000000  0.4361810000000 1.0
C      1  0.3980780000000  0.4881440000000  0.5032920000000 1.0
C      1  0.5351710000000  0.5410060000000  0.5798280000000 1.0
C      1  0.4143770000000  0.4874980000000  0.4368240000000 1.0
C      1  0.5361300000000  0.5645300000000  0.5552630000000 1.0
C      1  0.4829390000000  0.4623640000000  0.5926630000000 1.0
C      1  0.4726610000000  0.4666600000000  0.3939030000000 1.0
C      1  0.4842950000000  0.4955220000000  0.4850710000000 1.0
C      1  0.5079170000000  0.4720450000000  0.5072000000000 1.0
C      1  0.4995100000000  0.4410700000000  0.4578500000000 1.0
C      1  0.5660310000000  0.6002540000000  0.5153290000000 1.0
C      1  0.4990380000000  0.4813970000000  0.6158190000000 1.0
C      1  0.5759190000000  0.5731040000000  0.5121540000000 1.0
C      1  0.5661150000000  0.5380980000000  0.5549160000000 1.0
C      1  0.4959920000000  0.4320220000000  0.4287100000000 1.0
C      1  0.5566050000000  0.5254710000000  0.5176600000000 1.0
C      1  0.5059850000000  0.5798060000000  0.5455510000000 1.0
C      1  0.5092310000000  0.5854460000000  0.4353280000000 1.0
C      1  0.4431690000000  0.4874600000000  0.5444050000000 1.0
C      1  0.5389560000000  0.5634380000000  0.4766500000000 1.0
C      1  0.4501620000000  0.4440450000000  0.4638170000000 1.0
C      1  0.4994980000000  0.5081630000000  0.6082810000000 1.0
C      1  0.5761860000000  0.4496140000000  0.5638740000000 1.0
C      1  0.4604000000000  0.4547810000000  0.4915020000000 1.0
C      1  0.4730250000000  0.4231200000000  0.5873210000000 1.0
C      1  0.4151560000000  0.4597890000000  0.5380720000000 1.0
C      1  0.4336080000000  0.5386980000000  0.4484480000000 1.0
C      1  0.4704220000000  0.4424760000000  0.4109740000000 1.0
C      1  0.5403350000000  0.5169040000000  0.5562950000000 1.0
C      1  0.4677080000000  0.4154410000000  0.4313010000000 1.0
C      1  0.5422700000000  0.4917400000000  0.5021420000000 1.0
C      1  0.4352440000000  0.4760950000000  0.4821940000000 1.0
C      1  0.5125700000000  0.5094110000000  0.5708480000000 1.0
C      1  0.4106990000000  0.5104850000000  0.5438930000000 1.0
C      1  0.5149830000000  0.4934030000000  0.5312300000000 1.0
C      1  0.5107100000000  0.4668410000000  0.4765820000000 1.0
C      1  0.5337420000000  0.4343100000000  0.4772700000000 1.0
C      1  0.5658240000000  0.5271390000000  0.5848110000000 1.0
C      1  0.4826100000000  0.4702200000000  0.4624060000000 1.0
C      1  0.4385590000000  0.5676900000000  0.4587270000000 1.0
C      1  0.6023740000000  0.4253240000000  0.4361630000000 1.0
C      1  0.5129070000000  0.5616360000000  0.4968030000000 1.0
C      1  0.5232650000000  0.4276550000000  0.4151580000000 1.0
C      1  0.5889340000000  0.4557220000000  0.5329410000000 1.0
C      1  0.5482160000000  0.5773610000000  0.4107570000000 1.0
C      1  0.6092430000000  0.4728380000000  0.4774110000000 1.0
END
