TITL C-2848503-6230-616 -0.0025252998295092 125000 -974.730117350682 0 0 187 (C1) n - 1
REM
REM in /home/bkarasulu/work/CARBON/AIRSS/Generating-Clusters/AIREBO/with-SteepDescent/Only-C1/SD-CG-opt/Try1-1.4A-POS3A/HFTN-CG
REM
REM
REM
REM
REM
REM ./C.cell (11c1c37f851c82e70ff6c80c92926a4b)
REM
REM compiler GCC version 9.2.1 20190827 (Red Hat 9.2.1-1)
REM options -cpp -mtune=generic -march=x86-64 -g -O0 -fpre-include=/usr/include/finclude/math-vector-fortran.h
REM seed -782913059 1464488271 636670451 -1486434723 -938194109 -1099497895 -932113817 1484001779 1483936386 -334892688 214939057 588512751 -27889576 348124079 -1485212547 -1585412978 -2111626183 -72341724 -1480106493 406444844 825934897 -1449143284 2112005793 -1514947969 922258254 1465406263 618437680 1981083916 1024476523 -281173574 776412443 1178426328 -865424140
REM
CELL 1.54180   50.00000   50.00000   50.00000   90.00000   90.00000   90.00000
LATT -1
SFAC C  
C      1  0.5725280000000  0.4683720000000  0.4391120000000 1.0
C      1  0.4739840000000  0.5225720000000  0.4783610000000 1.0
C      1  0.5220980000000  0.5711130000000  0.4506620000000 1.0
C      1  0.4649200000000  0.5514650000000  0.5106790000000 1.0
C      1  0.5411600000000  0.4883170000000  0.5063370000000 1.0
C      1  0.5071410000000  0.5592410000000  0.4225270000000 1.0
C      1  0.4640590000000  0.5177850000000  0.5442200000000 1.0
C      1  0.4986370000000  0.6036450000000  0.5459340000000 1.0
C      1  0.4974290000000  0.5097740000000  0.6027640000000 1.0
C      1  0.4010670000000  0.5260000000000  0.5076240000000 1.0
C      1  0.5266600000000  0.5165020000000  0.5421030000000 1.0
C      1  0.4474040000000  0.4914730000000  0.4024840000000 1.0
C      1  0.5728800000000  0.5032880000000  0.5866220000000 1.0
C      1  0.5864690000000  0.5996950000000  0.5433320000000 1.0
C      1  0.5189650000000  0.4921230000000  0.4368970000000 1.0
C      1  0.4800790000000  0.5317980000000  0.6050590000000 1.0
C      1  0.5065150000000  0.4778610000000  0.5799050000000 1.0
C      1  0.5840100000000  0.5288480000000  0.4740060000000 1.0
C      1  0.4179800000000  0.5557910000000  0.5612530000000 1.0
C      1  0.4119800000000  0.5252450000000  0.4627510000000 1.0
C      1  0.5992510000000  0.5046390000000  0.4569160000000 1.0
C      1  0.4614640000000  0.4879790000000  0.5028230000000 1.0
C      1  0.4343790000000  0.5284960000000  0.4104140000000 1.0
C      1  0.4961950000000  0.4810810000000  0.5356430000000 1.0
C      1  0.4472770000000  0.5964890000000  0.5324200000000 1.0
C      1  0.4994130000000  0.5061710000000  0.3973830000000 1.0
C      1  0.5342070000000  0.5359870000000  0.5833150000000 1.0
C      1  0.4342290000000  0.5222180000000  0.5141450000000 1.0
C      1  0.5519310000000  0.4974180000000  0.5335020000000 1.0
C      1  0.5425040000000  0.4338820000000  0.5323010000000 1.0
C      1  0.5572160000000  0.5104220000000  0.3839420000000 1.0
C      1  0.5442080000000  0.4712450000000  0.4020870000000 1.0
C      1  0.4697260000000  0.6108810000000  0.5622190000000 1.0
C      1  0.5580740000000  0.5398010000000  0.5044940000000 1.0
C      1  0.4259190000000  0.5012140000000  0.4254640000000 1.0
C      1  0.4384560000000  0.5147870000000  0.5531690000000 1.0
C      1  0.4479110000000  0.4969770000000  0.4471170000000 1.0
C      1  0.5124440000000  0.4131480000000  0.4286850000000 1.0
C      1  0.5332600000000  0.4295400000000  0.4135390000000 1.0
C      1  0.5168840000000  0.4840860000000  0.3864500000000 1.0
C      1  0.4732080000000  0.5202640000000  0.4124660000000 1.0
C      1  0.4886760000000  0.4302530000000  0.5882780000000 1.0
C      1  0.5153920000000  0.5779500000000  0.5599970000000 1.0
C      1  0.5467630000000  0.4500850000000  0.4763900000000 1.0
C      1  0.4933790000000  0.5552440000000  0.4945070000000 1.0
C      1  0.4302120000000  0.5318890000000  0.5734770000000 1.0
C      1  0.5689470000000  0.4170480000000  0.5077450000000 1.0
C      1  0.4950940000000  0.4039200000000  0.5818650000000 1.0
C      1  0.4888030000000  0.4536500000000  0.5635990000000 1.0
C      1  0.4554210000000  0.5883190000000  0.5705280000000 1.0
C      1  0.4899290000000  0.5540870000000  0.5927070000000 1.0
C      1  0.4640870000000  0.4275730000000  0.4311530000000 1.0
C      1  0.5331600000000  0.5706750000000  0.5001670000000 1.0
C      1  0.5063830000000  0.6121850000000  0.4955150000000 1.0
C      1  0.4860590000000  0.4592690000000  0.4899390000000 1.0
C      1  0.5552820000000  0.5487280000000  0.4309180000000 1.0
C      1  0.4378150000000  0.5569240000000  0.4952800000000 1.0
C      1  0.4045880000000  0.5320470000000  0.5409030000000 1.0
C      1  0.4982670000000  0.5500710000000  0.5507070000000 1.0
C      1  0.4149060000000  0.4486170000000  0.4791390000000 1.0
C      1  0.5485830000000  0.4212060000000  0.4427340000000 1.0
C      1  0.5523340000000  0.4955560000000  0.4425790000000 1.0
C      1  0.4776550000000  0.4578910000000  0.5225950000000 1.0
C      1  0.4968120000000  0.6243550000000  0.5189890000000 1.0
C      1  0.5629640000000  0.5561890000000  0.5475800000000 1.0
C      1  0.4032450000000  0.4792750000000  0.5535640000000 1.0
C      1  0.5190450000000  0.4239380000000  0.4599330000000 1.0
C      1  0.5318390000000  0.4377190000000  0.5040190000000 1.0
C      1  0.5222400000000  0.4673180000000  0.5450550000000 1.0
C      1  0.4806370000000  0.4853150000000  0.6070510000000 1.0
C      1  0.5912630000000  0.5199600000000  0.5556960000000 1.0
C      1  0.5206390000000  0.4635680000000  0.4645180000000 1.0
C      1  0.5152040000000  0.5101740000000  0.5737660000000 1.0
C      1  0.5471230000000  0.3953560000000  0.5231110000000 1.0
C      1  0.5308530000000  0.5366650000000  0.4145950000000 1.0
C      1  0.5155570000000  0.4476130000000  0.5925510000000 1.0
C      1  0.5514340000000  0.4734250000000  0.5515210000000 1.0
C      1  0.5711220000000  0.4415830000000  0.4576480000000 1.0
C      1  0.5148330000000  0.4541240000000  0.4025170000000 1.0
C      1  0.4337450000000  0.4428800000000  0.4300500000000 1.0
C      1  0.5083880000000  0.5820090000000  0.4798210000000 1.0
C      1  0.5169000000000  0.5588910000000  0.5852970000000 1.0
C      1  0.5310480000000  0.5996900000000  0.4345490000000 1.0
C      1  0.5550730000000  0.5777420000000  0.4456530000000 1.0
C      1  0.6163880000000  0.5311660000000  0.4841380000000 1.0
C      1  0.5706610000000  0.5839390000000  0.4701820000000 1.0
C      1  0.4664370000000  0.4996640000000  0.5796800000000 1.0
C      1  0.5132310000000  0.4357180000000  0.5481140000000 1.0
C      1  0.4695740000000  0.4157230000000  0.5160800000000 1.0
C      1  0.5129180000000  0.4955730000000  0.4700290000000 1.0
C      1  0.5384960000000  0.5466100000000  0.5314870000000 1.0
C      1  0.4624480000000  0.4398860000000  0.5471070000000 1.0
C      1  0.5624960000000  0.5795280000000  0.5032550000000 1.0
C      1  0.4873170000000  0.4072780000000  0.4216190000000 1.0
C      1  0.4233680000000  0.4662540000000  0.4525090000000 1.0
C      1  0.5669490000000  0.5351120000000  0.5740270000000 1.0
C      1  0.5010330000000  0.5083470000000  0.5212760000000 1.0
C      1  0.5982890000000  0.4436550000000  0.5113950000000 1.0
C      1  0.3900330000000  0.5359970000000  0.4807000000000 1.0
C      1  0.4716860000000  0.5929500000000  0.4911750000000 1.0
C      1  0.4690870000000  0.5453940000000  0.3927340000000 1.0
C      1  0.5026410000000  0.5401800000000  0.3952720000000 1.0
C      1  0.4453400000000  0.4805190000000  0.5287400000000 1.0
C      1  0.5212920000000  0.3872220000000  0.4753460000000 1.0
C      1  0.5984810000000  0.4363760000000  0.4771800000000 1.0
C      1  0.4252450000000  0.4710540000000  0.5025200000000 1.0
C      1  0.4486690000000  0.5221420000000  0.5980120000000 1.0
C      1  0.5838820000000  0.5055000000000  0.5308880000000 1.0
C      1  0.4540940000000  0.4530160000000  0.4817140000000 1.0
C      1  0.4823860000000  0.4255380000000  0.4876550000000 1.0
C      1  0.4123630000000  0.5563910000000  0.5178840000000 1.0
C      1  0.4535900000000  0.5445460000000  0.4363330000000 1.0
C      1  0.4402920000000  0.5258980000000  0.4815700000000 1.0
C      1  0.5727660000000  0.5785450000000  0.5326960000000 1.0
C      1  0.5010570000000  0.4131050000000  0.5244770000000 1.0
C      1  0.4208520000000  0.5868670000000  0.5152620000000 1.0
C      1  0.5717590000000  0.4477580000000  0.5428210000000 1.0
C      1  0.4657940000000  0.5689360000000  0.5371460000000 1.0
C      1  0.4490180000000  0.5196640000000  0.3830600000000 1.0
C      1  0.4538380000000  0.4586890000000  0.4088250000000 1.0
C      1  0.5191090000000  0.5747730000000  0.5274630000000 1.0
C      1  0.5294630000000  0.5395310000000  0.4599990000000 1.0
C      1  0.4391850000000  0.4919630000000  0.4795970000000 1.0
C      1  0.4856650000000  0.4494430000000  0.4164190000000 1.0
C      1  0.5723700000000  0.4126260000000  0.4754380000000 1.0
C      1  0.5627060000000  0.4102940000000  0.5461600000000 1.0
C      1  0.4959980000000  0.5412900000000  0.4657690000000 1.0
C      1  0.6250690000000  0.5116170000000  0.5013160000000 1.0
C      1  0.6026370000000  0.5047590000000  0.5793940000000 1.0
C      1  0.5202960000000  0.4011590000000  0.5668670000000 1.0
C      1  0.5804100000000  0.5526350000000  0.5944690000000 1.0
C      1  0.4227080000000  0.4718500000000  0.5735560000000 1.0
C      1  0.4600790000000  0.5714560000000  0.4077070000000 1.0
C      1  0.4439990000000  0.5884610000000  0.4934390000000 1.0
C      1  0.5010390000000  0.5399830000000  0.5224660000000 1.0
C      1  0.4881120000000  0.4786000000000  0.4436690000000 1.0
C      1  0.5006580000000  0.4471150000000  0.4461910000000 1.0
C      1  0.5469830000000  0.3937390000000  0.4628120000000 1.0
C      1  0.4357940000000  0.4473980000000  0.5668770000000 1.0
C      1  0.4908860000000  0.3896890000000  0.4699560000000 1.0
C      1  0.5579490000000  0.5249690000000  0.4524870000000 1.0
C      1  0.5338020000000  0.4737760000000  0.5997720000000 1.0
C      1  0.5671840000000  0.4817100000000  0.4895660000000 1.0
C      1  0.3970190000000  0.4932210000000  0.4358790000000 1.0
C      1  0.4678370000000  0.4787990000000  0.5542840000000 1.0
C      1  0.5734180000000  0.5113170000000  0.5013990000000 1.0
C      1  0.5587440000000  0.4772340000000  0.5825340000000 1.0
C      1  0.4071110000000  0.4916380000000  0.4683090000000 1.0
C      1  0.4443160000000  0.4358310000000  0.5068630000000 1.0
C      1  0.5877370000000  0.4793380000000  0.4642420000000 1.0
C      1  0.4853250000000  0.5245180000000  0.5661720000000 1.0
C      1  0.4681970000000  0.4139100000000  0.4620710000000 1.0
C      1  0.4169540000000  0.5396410000000  0.4372190000000 1.0
C      1  0.4670280000000  0.6237640000000  0.5330100000000 1.0
C      1  0.6043820000000  0.4673510000000  0.4899160000000 1.0
C      1  0.4800350000000  0.5866560000000  0.4616350000000 1.0
C      1  0.4297110000000  0.5804890000000  0.5567720000000 1.0
C      1  0.4321450000000  0.5661940000000  0.4223540000000 1.0
C      1  0.5208790000000  0.5092500000000  0.4951240000000 1.0
C      1  0.3925750000000  0.4576850000000  0.5399860000000 1.0
C      1  0.5615830000000  0.4437340000000  0.5750180000000 1.0
C      1  0.4143070000000  0.4442980000000  0.5204380000000 1.0
C      1  0.4171810000000  0.4992330000000  0.5325100000000 1.0
C      1  0.4811280000000  0.4894890000000  0.4751250000000 1.0
C      1  0.5339230000000  0.4295260000000  0.5743950000000 1.0
C      1  0.4386080000000  0.4308120000000  0.4614680000000 1.0
C      1  0.5293680000000  0.5381720000000  0.4908670000000 1.0
C      1  0.4697460000000  0.5178150000000  0.5117920000000 1.0
C      1  0.5688380000000  0.4623400000000  0.4114640000000 1.0
C      1  0.5120960000000  0.4152960000000  0.4920880000000 1.0
C      1  0.5369510000000  0.5034360000000  0.4103340000000 1.0
C      1  0.5692370000000  0.4504590000000  0.4999840000000 1.0
C      1  0.3994870000000  0.4932460000000  0.5021750000000 1.0
C      1  0.5914220000000  0.4218770000000  0.5328160000000 1.0
C      1  0.6075500000000  0.4924970000000  0.5101950000000 1.0
C      1  0.4476130000000  0.4103980000000  0.5387250000000 1.0
C      1  0.4245260000000  0.4285540000000  0.5459410000000 1.0
C      1  0.5795050000000  0.5579170000000  0.4864320000000 1.0
C      1  0.4343890000000  0.4924900000000  0.5885030000000 1.0
C      1  0.4846490000000  0.5835940000000  0.4279490000000 1.0
C      1  0.4735500000000  0.5639880000000  0.5693120000000 1.0
C      1  0.5221300000000  0.3962940000000  0.5391210000000 1.0
C      1  0.4573680000000  0.4664040000000  0.4516170000000 1.0
C      1  0.5177850000000  0.4667730000000  0.4972280000000 1.0
C      1  0.4875900000000  0.5859580000000  0.5190750000000 1.0
C      1  0.4765370000000  0.5573300000000  0.4479600000000 1.0
C      1  0.4778330000000  0.4890420000000  0.4160680000000 1.0
END
