TITL C-2847952-8118-475 0.00011824467346651 125000 -560.917690416934 0 0 101 (C1) n - 1
REM
REM in /home/bkarasulu/work/CARBON/AIRSS/Generating-Clusters/AIREBO/with-SteepDescent/Only-C1/SD-CG-opt/Try1-1.4A-POS3A/HFTN-CG
REM
REM
REM
REM
REM
REM ./C.cell (11c1c37f851c82e70ff6c80c92926a4b)
REM
REM compiler GCC version 9.2.1 20190827 (Red Hat 9.2.1-1)
REM options -cpp -mtune=generic -march=x86-64 -g -O0 -fpre-include=/usr/include/finclude/math-vector-fortran.h
REM seed 1902349132 1521284753 2033842403 -408892377 242027511 2081125325 -420762488 -1917438110 1398470248 -416416001 629303568 434141870 1611349031 -17542720 -1024755835 1495447203 1429271525 1220579875 -1052023919 1149434535 -1187640112 484008384 550559430 916653114 -261933841 -941653580 1094309408 709712389 -1555502688 876943508 -647991097 1412109381 -1683643994
REM
CELL 1.54180   50.00000   50.00000   50.00000   90.00000   90.00000   90.00000
LATT -1
SFAC C  
C      1  0.5089120000000  0.5500530000000  0.4694280000000 1.0
C      1  0.4753360000000  0.4673000000000  0.5059810000000 1.0
C      1  0.4745970000000  0.4356290000000  0.5681630000000 1.0
C      1  0.4933970000000  0.4646540000000  0.5346710000000 1.0
C      1  0.5682100000000  0.4343350000000  0.5133580000000 1.0
C      1  0.4763310000000  0.5420300000000  0.4084850000000 1.0
C      1  0.4679580000000  0.4887160000000  0.4730370000000 1.0
C      1  0.5810040000000  0.4842810000000  0.5327690000000 1.0
C      1  0.4955010000000  0.5430750000000  0.5537600000000 1.0
C      1  0.5134680000000  0.5216460000000  0.3825550000000 1.0
C      1  0.4413460000000  0.5175320000000  0.5585910000000 1.0
C      1  0.4394750000000  0.4737640000000  0.4620030000000 1.0
C      1  0.5117810000000  0.5321250000000  0.5784350000000 1.0
C      1  0.4769770000000  0.5896100000000  0.5428630000000 1.0
C      1  0.4892860000000  0.5275920000000  0.5061210000000 1.0
C      1  0.4512240000000  0.4761540000000  0.5283020000000 1.0
C      1  0.5520770000000  0.4583550000000  0.4526400000000 1.0
C      1  0.5312210000000  0.5297160000000  0.5007270000000 1.0
C      1  0.4651030000000  0.5784320000000  0.5198190000000 1.0
C      1  0.4493230000000  0.5017100000000  0.4977310000000 1.0
C      1  0.5663430000000  0.5040390000000  0.4402120000000 1.0
C      1  0.4516500000000  0.5543030000000  0.5237980000000 1.0
C      1  0.5573400000000  0.5740560000000  0.5329780000000 1.0
C      1  0.4601790000000  0.5405560000000  0.4297280000000 1.0
C      1  0.5538920000000  0.5662970000000  0.5590320000000 1.0
C      1  0.4996330000000  0.5967280000000  0.4917480000000 1.0
C      1  0.5190480000000  0.4842470000000  0.5112940000000 1.0
C      1  0.4748760000000  0.4240670000000  0.4992590000000 1.0
C      1  0.5218320000000  0.6199530000000  0.4860070000000 1.0
C      1  0.5349330000000  0.5070950000000  0.5927360000000 1.0
C      1  0.4545750000000  0.4532210000000  0.5628460000000 1.0
C      1  0.5556490000000  0.5072070000000  0.5685960000000 1.0
C      1  0.4811570000000  0.4608460000000  0.4633660000000 1.0
C      1  0.4108170000000  0.4387710000000  0.5417900000000 1.0
C      1  0.5690620000000  0.5291240000000  0.5190260000000 1.0
C      1  0.4905180000000  0.4964660000000  0.4972830000000 1.0
C      1  0.5196540000000  0.4900590000000  0.5675870000000 1.0
C      1  0.5354740000000  0.4666860000000  0.5326850000000 1.0
C      1  0.4176230000000  0.4951390000000  0.4642300000000 1.0
C      1  0.5227310000000  0.4327390000000  0.4836560000000 1.0
C      1  0.5557400000000  0.5534430000000  0.4573530000000 1.0
C      1  0.4575680000000  0.4463250000000  0.4160320000000 1.0
C      1  0.5424630000000  0.5385010000000  0.5703220000000 1.0
C      1  0.5470880000000  0.5642930000000  0.4327710000000 1.0
C      1  0.5020680000000  0.4568540000000  0.4877130000000 1.0
C      1  0.4440870000000  0.4970960000000  0.4300120000000 1.0
C      1  0.4550520000000  0.5368730000000  0.4749290000000 1.0
C      1  0.4641620000000  0.5157540000000  0.5201540000000 1.0
C      1  0.5206840000000  0.4360260000000  0.5315850000000 1.0
C      1  0.4312340000000  0.5019630000000  0.5379870000000 1.0
C      1  0.4320970000000  0.4288300000000  0.4818970000000 1.0
C      1  0.5564610000000  0.4866860000000  0.5508530000000 1.0
C      1  0.4344900000000  0.5401490000000  0.4480490000000 1.0
C      1  0.5149880000000  0.4808900000000  0.4698840000000 1.0
C      1  0.4372700000000  0.5401330000000  0.5037900000000 1.0
C      1  0.4732330000000  0.4303010000000  0.4713510000000 1.0
C      1  0.5822540000000  0.5043880000000  0.5128360000000 1.0
C      1  0.4522190000000  0.4359060000000  0.5141180000000 1.0
C      1  0.5024280000000  0.4443570000000  0.5577800000000 1.0
C      1  0.5239710000000  0.5526400000000  0.4221800000000 1.0
C      1  0.4955580000000  0.5152930000000  0.4366460000000 1.0
C      1  0.5012420000000  0.4224650000000  0.5079220000000 1.0
C      1  0.4451790000000  0.4671470000000  0.4302130000000 1.0
C      1  0.4649460000000  0.5362700000000  0.5472590000000 1.0
C      1  0.5460880000000  0.5319390000000  0.5387860000000 1.0
C      1  0.4578150000000  0.4798680000000  0.5675200000000 1.0
C      1  0.4839140000000  0.5502570000000  0.4860240000000 1.0
C      1  0.5378850000000  0.5590210000000  0.4848040000000 1.0
C      1  0.5046020000000  0.5339100000000  0.4052280000000 1.0
C      1  0.5569800000000  0.5148160000000  0.4837910000000 1.0
C      1  0.4188500000000  0.5182470000000  0.5172290000000 1.0
C      1  0.4969160000000  0.4637480000000  0.4384870000000 1.0
C      1  0.5791100000000  0.4922440000000  0.4856730000000 1.0
C      1  0.5141220000000  0.4361310000000  0.4348120000000 1.0
C      1  0.4807500000000  0.5781070000000  0.4971140000000 1.0
C      1  0.5080230000000  0.5406750000000  0.4440740000000 1.0
C      1  0.5412850000000  0.3900950000000  0.5099400000000 1.0
C      1  0.5374080000000  0.4422280000000  0.5944240000000 1.0
C      1  0.4854540000000  0.4428140000000  0.4177870000000 1.0
C      1  0.5761680000000  0.4794460000000  0.4594610000000 1.0
C      1  0.5061460000000  0.4956120000000  0.5406310000000 1.0
C      1  0.5302420000000  0.5890940000000  0.4863810000000 1.0
C      1  0.4725420000000  0.4971310000000  0.5444870000000 1.0
C      1  0.4958240000000  0.5745170000000  0.5559350000000 1.0
C      1  0.5431670000000  0.4841960000000  0.4378670000000 1.0
C      1  0.5286620000000  0.5010080000000  0.4865780000000 1.0
C      1  0.5168000000000  0.4590470000000  0.5800990000000 1.0
C      1  0.4369370000000  0.4468420000000  0.5385250000000 1.0
C      1  0.5408440000000  0.4204320000000  0.5089120000000 1.0
C      1  0.5136930000000  0.5269480000000  0.5297430000000 1.0
C      1  0.4646690000000  0.5143260000000  0.4509020000000 1.0
C      1  0.4216280000000  0.5145790000000  0.4425000000000 1.0
C      1  0.5122690000000  0.4900320000000  0.4395000000000 1.0
C      1  0.5599920000000  0.5570260000000  0.5105740000000 1.0
C      1  0.4206350000000  0.5047070000000  0.4900260000000 1.0
C      1  0.4485420000000  0.4570130000000  0.4877160000000 1.0
C      1  0.5668210000000  0.4582820000000  0.5252980000000 1.0
C      1  0.5627160000000  0.5270630000000  0.4569610000000 1.0
C      1  0.4965340000000  0.5154170000000  0.5978750000000 1.0
C      1  0.5056790000000  0.4857690000000  0.5981940000000 1.0
C      1  0.5342920000000  0.4365200000000  0.4552070000000 1.0
END
