TITL C-2847953-8112-742 0.00221414926667883 125000 -801.118063138662 0 0 146 (C1) n - 1
REM
REM in /home/bkarasulu/work/CARBON/AIRSS/Generating-Clusters/AIREBO/with-SteepDescent/Only-C1/SD-CG-opt/Try1-1.4A-POS3A/HFTN-CG
REM
REM
REM
REM
REM
REM ./C.cell (11c1c37f851c82e70ff6c80c92926a4b)
REM
REM compiler GCC version 9.2.1 20190827 (Red Hat 9.2.1-1)
REM options -cpp -mtune=generic -march=x86-64 -g -O0 -fpre-include=/usr/include/finclude/math-vector-fortran.h
REM seed -1657084589 -2022145352 -1275519519 -1392336388 -1240303670 -1590815049 1415286999 -1773601563 1005807110 -822431350 1645463109 -1589758279 -1383512436 -1188068037 211734123 -1455057584 1299606839 -1843418349 -1394152953 790071194 688989999 -1202587185 1603530430 2020716906 559928587 -898922361 936883874 -1963270751 1134354126 -523861856 -149014788 597968722 -1940953565
REM
CELL 1.54180   50.00000   50.00000   50.00000   90.00000   90.00000   90.00000
LATT -1
SFAC C  
C      1  0.5637060000000  0.4907080000000  0.5087640000000 1.0
C      1  0.5574500000000  0.4761820000000  0.5717910000000 1.0
C      1  0.4892210000000  0.4914420000000  0.5616170000000 1.0
C      1  0.4602200000000  0.5259350000000  0.4302320000000 1.0
C      1  0.5617810000000  0.4594900000000  0.4316970000000 1.0
C      1  0.4085750000000  0.4560310000000  0.5451650000000 1.0
C      1  0.4360950000000  0.4389810000000  0.5119390000000 1.0
C      1  0.5786170000000  0.5022300000000  0.4064430000000 1.0
C      1  0.4553840000000  0.5192910000000  0.5978320000000 1.0
C      1  0.4409050000000  0.5455560000000  0.4724600000000 1.0
C      1  0.5333420000000  0.4789370000000  0.4989460000000 1.0
C      1  0.5545240000000  0.4469900000000  0.4837270000000 1.0
C      1  0.4489760000000  0.4087410000000  0.5032380000000 1.0
C      1  0.5667420000000  0.4780760000000  0.4773320000000 1.0
C      1  0.4938870000000  0.4424250000000  0.4830610000000 1.0
C      1  0.3991240000000  0.5312760000000  0.5316420000000 1.0
C      1  0.4733190000000  0.5563220000000  0.4380920000000 1.0
C      1  0.5614000000000  0.4388720000000  0.4514190000000 1.0
C      1  0.5035330000000  0.5963060000000  0.5170650000000 1.0
C      1  0.4492920000000  0.4237660000000  0.5394890000000 1.0
C      1  0.4547540000000  0.4955850000000  0.4846840000000 1.0
C      1  0.5412360000000  0.4191350000000  0.4482210000000 1.0
C      1  0.4041640000000  0.4892080000000  0.4907620000000 1.0
C      1  0.4480770000000  0.4759640000000  0.4232210000000 1.0
C      1  0.4080390000000  0.5528190000000  0.5148750000000 1.0
C      1  0.5283940000000  0.4585760000000  0.4650770000000 1.0
C      1  0.4168540000000  0.5331550000000  0.5534180000000 1.0
C      1  0.5551640000000  0.5851990000000  0.4888350000000 1.0
C      1  0.4810810000000  0.5842020000000  0.4863110000000 1.0
C      1  0.4198280000000  0.4339950000000  0.5480630000000 1.0
C      1  0.6010270000000  0.4628030000000  0.5020060000000 1.0
C      1  0.5537090000000  0.5032580000000  0.5906640000000 1.0
C      1  0.4307420000000  0.5838220000000  0.4667700000000 1.0
C      1  0.5221740000000  0.6187150000000  0.5347030000000 1.0
C      1  0.5419890000000  0.5106670000000  0.5445350000000 1.0
C      1  0.5789370000000  0.5137660000000  0.6022370000000 1.0
C      1  0.6152890000000  0.4663350000000  0.4754670000000 1.0
C      1  0.4379310000000  0.4781510000000  0.3999660000000 1.0
C      1  0.4474580000000  0.4824470000000  0.4566050000000 1.0
C      1  0.4542410000000  0.5638580000000  0.5771860000000 1.0
C      1  0.4154630000000  0.4603060000000  0.5048350000000 1.0
C      1  0.5203720000000  0.5190330000000  0.4531420000000 1.0
C      1  0.5975350000000  0.4918600000000  0.5120700000000 1.0
C      1  0.5300030000000  0.6011290000000  0.4746940000000 1.0
C      1  0.5338660000000  0.4549400000000  0.5798660000000 1.0
C      1  0.5439800000000  0.4869070000000  0.4545560000000 1.0
C      1  0.5035550000000  0.4097080000000  0.5561550000000 1.0
C      1  0.4451700000000  0.5614490000000  0.4197100000000 1.0
C      1  0.4177680000000  0.4682500000000  0.4480390000000 1.0
C      1  0.5262460000000  0.5478020000000  0.4974740000000 1.0
C      1  0.4840200000000  0.5280670000000  0.5959360000000 1.0
C      1  0.4910030000000  0.5023320000000  0.5209660000000 1.0
C      1  0.5405410000000  0.4402550000000  0.5519480000000 1.0
C      1  0.6113910000000  0.4995530000000  0.5384230000000 1.0
C      1  0.4857990000000  0.5376740000000  0.4850760000000 1.0
C      1  0.4411510000000  0.4205180000000  0.4598020000000 1.0
C      1  0.4132670000000  0.5344350000000  0.4579980000000 1.0
C      1  0.4143890000000  0.4829740000000  0.5286900000000 1.0
C      1  0.5671610000000  0.5266470000000  0.5456060000000 1.0
C      1  0.4394180000000  0.5358850000000  0.5786480000000 1.0
C      1  0.4759680000000  0.4139170000000  0.5208330000000 1.0
C      1  0.5252960000000  0.4859730000000  0.5927050000000 1.0
C      1  0.4525780000000  0.4369860000000  0.4162690000000 1.0
C      1  0.4609120000000  0.4770040000000  0.5486830000000 1.0
C      1  0.5367310000000  0.4039110000000  0.5197940000000 1.0
C      1  0.5787290000000  0.4472300000000  0.5076190000000 1.0
C      1  0.4903600000000  0.5652100000000  0.5131030000000 1.0
C      1  0.5512450000000  0.5699940000000  0.5189310000000 1.0
C      1  0.5055890000000  0.5976330000000  0.4729300000000 1.0
C      1  0.5363060000000  0.5987070000000  0.5139550000000 1.0
C      1  0.4992200000000  0.4712150000000  0.4529650000000 1.0
C      1  0.5800020000000  0.4774140000000  0.4191110000000 1.0
C      1  0.4389690000000  0.5105020000000  0.4411520000000 1.0
C      1  0.5279200000000  0.5612530000000  0.4265400000000 1.0
C      1  0.5927180000000  0.5495670000000  0.5467550000000 1.0
C      1  0.5108660000000  0.4309980000000  0.4569130000000 1.0
C      1  0.4964780000000  0.5415590000000  0.6145300000000 1.0
C      1  0.5128330000000  0.5190370000000  0.4865810000000 1.0
C      1  0.4655420000000  0.4469770000000  0.5012960000000 1.0
C      1  0.5244080000000  0.5059880000000  0.5157790000000 1.0
C      1  0.4636150000000  0.4395660000000  0.4678330000000 1.0
C      1  0.5269070000000  0.5124190000000  0.5713970000000 1.0
C      1  0.5032900000000  0.4932570000000  0.3983060000000 1.0
C      1  0.5695510000000  0.5236970000000  0.5029190000000 1.0
C      1  0.5021810000000  0.4670630000000  0.5804820000000 1.0
C      1  0.4332410000000  0.4397760000000  0.4388390000000 1.0
C      1  0.4982200000000  0.4743240000000  0.5350840000000 1.0
C      1  0.5193140000000  0.3976280000000  0.4942650000000 1.0
C      1  0.4845970000000  0.5105320000000  0.4210370000000 1.0
C      1  0.4407850000000  0.5021580000000  0.6233770000000 1.0
C      1  0.5550440000000  0.5469990000000  0.4156280000000 1.0
C      1  0.4842960000000  0.5017550000000  0.4538880000000 1.0
C      1  0.4213550000000  0.5531760000000  0.4304170000000 1.0
C      1  0.5294100000000  0.4460330000000  0.5066590000000 1.0
C      1  0.4121140000000  0.5004550000000  0.4595120000000 1.0
C      1  0.5234090000000  0.4011650000000  0.4673500000000 1.0
C      1  0.5678500000000  0.4487120000000  0.5336290000000 1.0
C      1  0.5197690000000  0.5609860000000  0.5281450000000 1.0
C      1  0.4460120000000  0.5205690000000  0.5500570000000 1.0
C      1  0.5051020000000  0.4620590000000  0.4084600000000 1.0
C      1  0.4966570000000  0.5242260000000  0.5667980000000 1.0
C      1  0.4820950000000  0.4474540000000  0.4158700000000 1.0
C      1  0.5322940000000  0.4700710000000  0.4274000000000 1.0
C      1  0.4967600000000  0.5551270000000  0.5525180000000 1.0
C      1  0.5993680000000  0.5176810000000  0.5882140000000 1.0
C      1  0.5024980000000  0.4710810000000  0.4924900000000 1.0
C      1  0.4414840000000  0.4944970000000  0.5341890000000 1.0
C      1  0.5041690000000  0.4228040000000  0.5064700000000 1.0
C      1  0.5498260000000  0.5332540000000  0.4833150000000 1.0
C      1  0.5525480000000  0.5528970000000  0.4486320000000 1.0
C      1  0.4696550000000  0.4598000000000  0.4443110000000 1.0
C      1  0.4112620000000  0.5682990000000  0.4557040000000 1.0
C      1  0.5518440000000  0.5199820000000  0.4540310000000 1.0
C      1  0.4395930000000  0.4002200000000  0.4785960000000 1.0
C      1  0.4969860000000  0.5395880000000  0.4558750000000 1.0
C      1  0.5284300000000  0.4135850000000  0.5449170000000 1.0
C      1  0.4872450000000  0.4966670000000  0.4875040000000 1.0
C      1  0.5954370000000  0.4878050000000  0.4714190000000 1.0
C      1  0.4783080000000  0.4294200000000  0.5556470000000 1.0
C      1  0.5696100000000  0.5652430000000  0.4698670000000 1.0
C      1  0.4498420000000  0.5149100000000  0.5106770000000 1.0
C      1  0.5331630000000  0.5092350000000  0.4016460000000 1.0
C      1  0.4613040000000  0.5719740000000  0.4659160000000 1.0
C      1  0.3958550000000  0.5065630000000  0.5174800000000 1.0
C      1  0.4564590000000  0.5832000000000  0.5331210000000 1.0
C      1  0.4753250000000  0.4526400000000  0.5309860000000 1.0
C      1  0.4779120000000  0.4491070000000  0.5795290000000 1.0
C      1  0.4488900000000  0.4862200000000  0.5976490000000 1.0
C      1  0.4368300000000  0.5434710000000  0.5023490000000 1.0
C      1  0.4716290000000  0.5706850000000  0.5553220000000 1.0
C      1  0.5707140000000  0.5488240000000  0.5221820000000 1.0
C      1  0.4341180000000  0.5692500000000  0.5242130000000 1.0
C      1  0.5545310000000  0.4161290000000  0.4980320000000 1.0
C      1  0.4748130000000  0.5379170000000  0.5132030000000 1.0
C      1  0.5978460000000  0.5158940000000  0.4874900000000 1.0
C      1  0.4634400000000  0.5233660000000  0.4698540000000 1.0
C      1  0.5573390000000  0.5213410000000  0.4047870000000 1.0
C      1  0.5979900000000  0.5190830000000  0.5578590000000 1.0
C      1  0.5900470000000  0.5477200000000  0.4783900000000 1.0
C      1  0.4705250000000  0.5993310000000  0.5148860000000 1.0
C      1  0.5157670000000  0.4997260000000  0.4292820000000 1.0
C      1  0.5249510000000  0.4630690000000  0.5342930000000 1.0
C      1  0.4553600000000  0.4681210000000  0.5792620000000 1.0
C      1  0.4748090000000  0.5224270000000  0.5408380000000 1.0
C      1  0.5021720000000  0.5682850000000  0.4246260000000 1.0
C      1  0.5542890000000  0.4794640000000  0.5394480000000 1.0
END
