TITL C-2847947-6848-711 -966.431137644964 125000 -895.173513467233 0 0 167 (C1) n - 1
REM
REM in /home/bkarasulu/work/CARBON/AIRSS/Generating-Clusters/AIREBO/with-SteepDescent/Only-C1/SD-CG-opt/Try1-1.4A-POS3A/HFTN-CG
REM
REM
REM
REM
REM
REM ./C.cell (11c1c37f851c82e70ff6c80c92926a4b)
REM
REM compiler GCC version 9.2.1 20190827 (Red Hat 9.2.1-1)
REM options -cpp -mtune=generic -march=x86-64 -g -O0 -fpre-include=/usr/include/finclude/math-vector-fortran.h
REM seed 291520941 -1621807459 -1426186754 -343414976 1899014732 -624583944 -219537919 332029467 -1309824374 -1627000321 740480046 -997390403 -38246635 -1641412225 2115424485 416957673 830155265 -1757797841 1252222276 -368334553 1483668489 -1147793470 -14892530 1924904513 1503047450 -1039133130 -280262836 84329939 551249935 780999790 -1932865730 516958413 -1192548319
REM
CELL 1.54180   50.00000   50.00000   50.00000   90.00000   90.00000   90.00000
LATT -1
SFAC C  
C      1  0.4576430000000  0.4777410000000  0.5432870000000 1.0
C      1  0.4761120000000  0.4547840000000  0.5163400000000 1.0
C      1  0.4603940000000  0.5619460000000  0.5052660000000 1.0
C      1  0.5910520000000  0.4856770000000  0.4972590000000 1.0
C      1  0.4978330000000  0.4372790000000  0.4105260000000 1.0
C      1  0.5415600000000  0.4630180000000  0.4672450000000 1.0
C      1  0.4983830000000  0.5719440000000  0.4579570000000 1.0
C      1  0.4738780000000  0.4960540000000  0.4753990000000 1.0
C      1  0.4738490000000  0.4486260000000  0.5751020000000 1.0
C      1  0.4931630000000  0.5717070000000  0.4269350000000 1.0
C      1  0.5418940000000  0.4738900000000  0.4974500000000 1.0
C      1  0.4148450000000  0.5651950000000  0.5003420000000 1.0
C      1  0.5721210000000  0.4562560000000  0.4545150000000 1.0
C      1  0.4703210000000  0.4030960000000  0.4707610000000 1.0
C      1  0.5243900000000  0.5541960000000  0.5418780000000 1.0
C      1  0.4792420000000  0.5659720000000  0.5703230000000 1.0
C      1  0.5456210000000  0.5319430000000  0.5545390000000 1.0
C      1  0.5759560000000  0.5351250000000  0.5402600000000 1.0
C      1  0.5102970000000  0.4369810000000  0.5050550000000 1.0
C      1  0.4200600000000  0.5500630000000  0.5400330000000 1.0
C      1  0.4955660000000  0.5554800000000  0.5426970000000 1.0
C      1  0.5337510000000  0.4616070000000  0.4170180000000 1.0
C      1  0.4787070000000  0.5840090000000  0.5410240000000 1.0
C      1  0.4119980000000  0.4736340000000  0.5619300000000 1.0
C      1  0.5283660000000  0.5681830000000  0.4735740000000 1.0
C      1  0.5365610000000  0.4270450000000  0.4884570000000 1.0
C      1  0.4894400000000  0.4808880000000  0.5451510000000 1.0
C      1  0.4557810000000  0.4413610000000  0.4182360000000 1.0
C      1  0.5620710000000  0.5336120000000  0.5908680000000 1.0
C      1  0.5580490000000  0.5219540000000  0.4681530000000 1.0
C      1  0.5566350000000  0.4488360000000  0.5150240000000 1.0
C      1  0.4577570000000  0.5416510000000  0.5805200000000 1.0
C      1  0.4314560000000  0.5888130000000  0.5011040000000 1.0
C      1  0.5574570000000  0.4943480000000  0.4483130000000 1.0
C      1  0.4724750000000  0.5103070000000  0.5124290000000 1.0
C      1  0.5557620000000  0.5546070000000  0.4772760000000 1.0
C      1  0.4177970000000  0.5068800000000  0.4369240000000 1.0
C      1  0.4221160000000  0.4381580000000  0.4539100000000 1.0
C      1  0.4403370000000  0.5631420000000  0.5618220000000 1.0
C      1  0.5873280000000  0.4341780000000  0.4948390000000 1.0
C      1  0.5546160000000  0.5683630000000  0.5346120000000 1.0
C      1  0.5340980000000  0.5180220000000  0.5999470000000 1.0
C      1  0.5447460000000  0.5036390000000  0.5713590000000 1.0
C      1  0.5096860000000  0.5316860000000  0.5713860000000 1.0
C      1  0.4656970000000  0.4601390000000  0.4604780000000 1.0
C      1  0.4176380000000  0.4712950000000  0.4534930000000 1.0
C      1  0.6117210000000  0.5175820000000  0.5092530000000 1.0
C      1  0.4165650000000  0.4472810000000  0.4850480000000 1.0
C      1  0.5208770000000  0.3994380000000  0.5124760000000 1.0
C      1  0.4923360000000  0.4607190000000  0.4766130000000 1.0
C      1  0.6022730000000  0.4656670000000  0.4541760000000 1.0
C      1  0.5281080000000  0.5111280000000  0.5230100000000 1.0
C      1  0.4292500000000  0.5259410000000  0.5705180000000 1.0
C      1  0.4364890000000  0.5522780000000  0.4471370000000 1.0
C      1  0.5785510000000  0.5361260000000  0.4276400000000 1.0
C      1  0.5068870000000  0.5126890000000  0.6062480000000 1.0
C      1  0.5804680000000  0.5215520000000  0.5711180000000 1.0
C      1  0.6075900000000  0.4929660000000  0.4545930000000 1.0
C      1  0.4729110000000  0.3983820000000  0.5252130000000 1.0
C      1  0.5735170000000  0.4693860000000  0.5456730000000 1.0
C      1  0.3980920000000  0.4976890000000  0.4623970000000 1.0
C      1  0.5346030000000  0.5399740000000  0.5153120000000 1.0
C      1  0.5117000000000  0.5757160000000  0.5730870000000 1.0
C      1  0.6043880000000  0.4996150000000  0.5322030000000 1.0
C      1  0.5727030000000  0.4900550000000  0.4118930000000 1.0
C      1  0.4773210000000  0.5275560000000  0.5399190000000 1.0
C      1  0.5769910000000  0.5579760000000  0.4539950000000 1.0
C      1  0.5662460000000  0.4323490000000  0.4743100000000 1.0
C      1  0.5625790000000  0.4422070000000  0.5570640000000 1.0
C      1  0.5105790000000  0.5527860000000  0.4974120000000 1.0
C      1  0.4882370000000  0.5003090000000  0.4009710000000 1.0
C      1  0.4529850000000  0.5490910000000  0.5335310000000 1.0
C      1  0.5036140000000  0.4326520000000  0.5790700000000 1.0
C      1  0.4485780000000  0.4183220000000  0.4495100000000 1.0
C      1  0.4475370000000  0.5646610000000  0.4735950000000 1.0
C      1  0.4198560000000  0.5331350000000  0.5105460000000 1.0
C      1  0.4082290000000  0.5045130000000  0.5531110000000 1.0
C      1  0.4559480000000  0.5371110000000  0.4290960000000 1.0
C      1  0.3966990000000  0.5107270000000  0.5211170000000 1.0
C      1  0.4621210000000  0.4922100000000  0.4198920000000 1.0
C      1  0.5390780000000  0.5954150000000  0.5357290000000 1.0
C      1  0.4614010000000  0.5053910000000  0.5592450000000 1.0
C      1  0.4280100000000  0.5304710000000  0.4794910000000 1.0
C      1  0.4284940000000  0.4373510000000  0.5325950000000 1.0
C      1  0.4453470000000  0.4833670000000  0.4654060000000 1.0
C      1  0.3913370000000  0.5050530000000  0.4879420000000 1.0
C      1  0.4571110000000  0.5934830000000  0.4809760000000 1.0
C      1  0.5277220000000  0.6012980000000  0.4787580000000 1.0
C      1  0.4895390000000  0.4468750000000  0.5449660000000 1.0
C      1  0.5395820000000  0.4228440000000  0.4548490000000 1.0
C      1  0.5216800000000  0.4213880000000  0.4290160000000 1.0
C      1  0.5468600000000  0.4902270000000  0.5422010000000 1.0
C      1  0.6096100000000  0.5037410000000  0.4808300000000 1.0
C      1  0.4564760000000  0.4041880000000  0.5002540000000 1.0
C      1  0.5261520000000  0.4658640000000  0.5444350000000 1.0
C      1  0.5713430000000  0.5046260000000  0.5259430000000 1.0
C      1  0.4554080000000  0.4943860000000  0.5870840000000 1.0
C      1  0.5892860000000  0.5358940000000  0.5089670000000 1.0
C      1  0.5139440000000  0.3943760000000  0.4849870000000 1.0
C      1  0.5830940000000  0.5665250000000  0.5511910000000 1.0
C      1  0.4991800000000  0.4141220000000  0.4615090000000 1.0
C      1  0.4663730000000  0.5109880000000  0.4456330000000 1.0
C      1  0.5059220000000  0.5106190000000  0.5463310000000 1.0
C      1  0.6010960000000  0.5750740000000  0.4598990000000 1.0
C      1  0.5074870000000  0.4583860000000  0.4340550000000 1.0
C      1  0.5492640000000  0.4816850000000  0.5954510000000 1.0
C      1  0.5172770000000  0.5751780000000  0.4122730000000 1.0
C      1  0.4461300000000  0.4614400000000  0.5194790000000 1.0
C      1  0.4983460000000  0.5308090000000  0.4054370000000 1.0
C      1  0.4035700000000  0.4552150000000  0.5382340000000 1.0
C      1  0.5303400000000  0.4617660000000  0.5933610000000 1.0
C      1  0.5239930000000  0.5795580000000  0.5114850000000 1.0
C      1  0.5331570000000  0.4427870000000  0.5673170000000 1.0
C      1  0.4977150000000  0.4173560000000  0.5298150000000 1.0
C      1  0.4782490000000  0.4295050000000  0.4971790000000 1.0
C      1  0.4890970000000  0.5237740000000  0.4653000000000 1.0
C      1  0.5533660000000  0.5314570000000  0.4057630000000 1.0
C      1  0.5679550000000  0.4200450000000  0.5415320000000 1.0
C      1  0.4790630000000  0.5496920000000  0.4163480000000 1.0
C      1  0.4405360000000  0.4288790000000  0.5591020000000 1.0
C      1  0.4599890000000  0.5333390000000  0.4780620000000 1.0
C      1  0.5185090000000  0.4988660000000  0.4961050000000 1.0
C      1  0.4333150000000  0.4272550000000  0.5033120000000 1.0
C      1  0.5487850000000  0.4157950000000  0.5169610000000 1.0
C      1  0.5640800000000  0.5545660000000  0.5074140000000 1.0
C      1  0.4373390000000  0.4688980000000  0.4258400000000 1.0
C      1  0.3858820000000  0.4440690000000  0.4907740000000 1.0
C      1  0.5866300000000  0.5076430000000  0.4369900000000 1.0
C      1  0.4148460000000  0.5327580000000  0.4536300000000 1.0
C      1  0.5149220000000  0.4643100000000  0.5158120000000 1.0
C      1  0.4896400000000  0.4827050000000  0.5024140000000 1.0
C      1  0.5628090000000  0.5005050000000  0.4942030000000 1.0
C      1  0.5034900000000  0.6076320000000  0.4921950000000 1.0
C      1  0.5063040000000  0.4716960000000  0.5714590000000 1.0
C      1  0.3803320000000  0.4567220000000  0.5150260000000 1.0
C      1  0.4994570000000  0.4857490000000  0.6010700000000 1.0
C      1  0.5497440000000  0.5039450000000  0.4008400000000 1.0
C      1  0.5096880000000  0.5409180000000  0.4496980000000 1.0
C      1  0.4792360000000  0.4241360000000  0.4358390000000 1.0
C      1  0.4353060000000  0.5104010000000  0.5992000000000 1.0
C      1  0.5419790000000  0.5390680000000  0.4433190000000 1.0
C      1  0.4434830000000  0.4617900000000  0.5671190000000 1.0
C      1  0.5167440000000  0.5982290000000  0.5557710000000 1.0
C      1  0.5291620000000  0.4945500000000  0.4657220000000 1.0
C      1  0.4524480000000  0.5881590000000  0.5252320000000 1.0
C      1  0.4542330000000  0.4368780000000  0.4773240000000 1.0
C      1  0.4357930000000  0.5136260000000  0.4151190000000 1.0
C      1  0.5141490000000  0.4446550000000  0.4606620000000 1.0
C      1  0.4362800000000  0.5121470000000  0.5402390000000 1.0
C      1  0.5003050000000  0.4682050000000  0.3963730000000 1.0
C      1  0.4403010000000  0.5059620000000  0.5095580000000 1.0
C      1  0.5013700000000  0.6008640000000  0.5252860000000 1.0
C      1  0.5354070000000  0.5522710000000  0.5798140000000 1.0
C      1  0.5901720000000  0.4955040000000  0.5598770000000 1.0
C      1  0.5164440000000  0.5087930000000  0.4406770000000 1.0
C      1  0.5870880000000  0.4611570000000  0.5155680000000 1.0
C      1  0.4839660000000  0.5402620000000  0.5011650000000 1.0
C      1  0.4294200000000  0.4772430000000  0.4948490000000 1.0
C      1  0.4880110000000  0.5339810000000  0.5927000000000 1.0
C      1  0.5266040000000  0.5443390000000  0.4134430000000 1.0
C      1  0.4765350000000  0.4637290000000  0.4316000000000 1.0
C      1  0.4034740000000  0.4803860000000  0.5166030000000 1.0
C      1  0.4840460000000  0.5948820000000  0.4764470000000 1.0
C      1  0.4732990000000  0.4745960000000  0.5940760000000 1.0
C      1  0.5600830000000  0.4669040000000  0.4283080000000 1.0
C      1  0.5586970000000  0.5637230000000  0.4269130000000 1.0
C      1  0.5195650000000  0.4919710000000  0.4112640000000 1.0
END
