TITL C-2847952-8118-17 -0.00238999298457514 125000 -794.509637568506 0 0 146 (C1) n - 1
REM
REM in /home/bkarasulu/work/CARBON/AIRSS/Generating-Clusters/AIREBO/with-SteepDescent/Only-C1/SD-CG-opt/Try1-1.4A-POS3A/HFTN-CG
REM
REM
REM
REM
REM
REM ./C.cell (11c1c37f851c82e70ff6c80c92926a4b)
REM
REM compiler GCC version 9.2.1 20190827 (Red Hat 9.2.1-1)
REM options -cpp -mtune=generic -march=x86-64 -g -O0 -fpre-include=/usr/include/finclude/math-vector-fortran.h
REM seed 1382883924 1588592140 -1786710984 2092429049 1817950034 -311851454 -879891167 -1586932700 -1551647642 483172678 1559682664 726867514 -1115307469 1587918231 1207680995 -329768956 1025893885 134557557 1256559511 -1578838131 -2028913067 1402559207 -1949344674 -1329595594 915567090 19370150 -1751184657 -1193595282 427539535 -677319002 -1311026383 1757763871 198170667
REM
CELL 1.54180   50.00000   50.00000   50.00000   90.00000   90.00000   90.00000
LATT -1
SFAC C  
C      1  0.4761590000000  0.5685990000000  0.5786550000000 1.0
C      1  0.5104880000000  0.5723830000000  0.5302510000000 1.0
C      1  0.4386650000000  0.4975830000000  0.4701440000000 1.0
C      1  0.4488650000000  0.5873180000000  0.4842210000000 1.0
C      1  0.5354620000000  0.4547770000000  0.5960810000000 1.0
C      1  0.4533930000000  0.4353850000000  0.4577620000000 1.0
C      1  0.4539410000000  0.4627680000000  0.5164500000000 1.0
C      1  0.4745380000000  0.4314960000000  0.4310620000000 1.0
C      1  0.5153920000000  0.4079310000000  0.4933530000000 1.0
C      1  0.5393680000000  0.4320790000000  0.5269030000000 1.0
C      1  0.4197000000000  0.5161520000000  0.5693000000000 1.0
C      1  0.5048880000000  0.4852230000000  0.5591810000000 1.0
C      1  0.4381440000000  0.5422570000000  0.4180330000000 1.0
C      1  0.4618140000000  0.5382100000000  0.4616870000000 1.0
C      1  0.4783760000000  0.5049140000000  0.5616800000000 1.0
C      1  0.5518630000000  0.5798110000000  0.5117840000000 1.0
C      1  0.4640500000000  0.5495210000000  0.5983400000000 1.0
C      1  0.5439730000000  0.5770900000000  0.4850800000000 1.0
C      1  0.4438890000000  0.5695800000000  0.5331210000000 1.0
C      1  0.4489220000000  0.4294460000000  0.5860560000000 1.0
C      1  0.5613770000000  0.3845030000000  0.4705750000000 1.0
C      1  0.6164990000000  0.4614690000000  0.5281870000000 1.0
C      1  0.5858680000000  0.4987220000000  0.4382850000000 1.0
C      1  0.4849510000000  0.5850740000000  0.5144400000000 1.0
C      1  0.4881350000000  0.4073990000000  0.5034670000000 1.0
C      1  0.5662370000000  0.5633630000000  0.4695520000000 1.0
C      1  0.4531740000000  0.4668310000000  0.4707310000000 1.0
C      1  0.4707760000000  0.5576220000000  0.5489510000000 1.0
C      1  0.4836630000000  0.4708500000000  0.5418740000000 1.0
C      1  0.6008290000000  0.5184320000000  0.5185260000000 1.0
C      1  0.5178860000000  0.5109520000000  0.5169230000000 1.0
C      1  0.5511190000000  0.4102890000000  0.6060560000000 1.0
C      1  0.3971430000000  0.4872690000000  0.4759370000000 1.0
C      1  0.4552490000000  0.5850080000000  0.5117420000000 1.0
C      1  0.5690250000000  0.5151710000000  0.4882730000000 1.0
C      1  0.5091870000000  0.5535320000000  0.4074040000000 1.0
C      1  0.5634180000000  0.4568530000000  0.4910280000000 1.0
C      1  0.5622320000000  0.4084850000000  0.4849250000000 1.0
C      1  0.5850150000000  0.4563460000000  0.4548370000000 1.0
C      1  0.5907550000000  0.5263730000000  0.4467650000000 1.0
C      1  0.4237170000000  0.4501440000000  0.4495100000000 1.0
C      1  0.4283540000000  0.5697250000000  0.4763870000000 1.0
C      1  0.5662970000000  0.4745760000000  0.5199280000000 1.0
C      1  0.5115520000000  0.5263570000000  0.3972530000000 1.0
C      1  0.4685210000000  0.4922320000000  0.5098000000000 1.0
C      1  0.5128380000000  0.5413390000000  0.5323910000000 1.0
C      1  0.4050020000000  0.4901400000000  0.5582050000000 1.0
C      1  0.5528900000000  0.4599140000000  0.4526470000000 1.0
C      1  0.4944630000000  0.5226190000000  0.4950650000000 1.0
C      1  0.4378490000000  0.5140330000000  0.4169020000000 1.0
C      1  0.5324990000000  0.5899150000000  0.5287660000000 1.0
C      1  0.6010500000000  0.4640230000000  0.5513560000000 1.0
C      1  0.4853770000000  0.5039740000000  0.4562460000000 1.0
C      1  0.4801680000000  0.4699440000000  0.4872570000000 1.0
C      1  0.5255090000000  0.5267910000000  0.4426430000000 1.0
C      1  0.5167340000000  0.4803910000000  0.5009980000000 1.0
C      1  0.5457410000000  0.5260390000000  0.5045690000000 1.0
C      1  0.6003350000000  0.5406740000000  0.4675480000000 1.0
C      1  0.5559500000000  0.4936520000000  0.4496140000000 1.0
C      1  0.5450430000000  0.5362030000000  0.5370110000000 1.0
C      1  0.3942770000000  0.5345440000000  0.4993520000000 1.0
C      1  0.4164230000000  0.5095570000000  0.4929110000000 1.0
C      1  0.5472600000000  0.4379210000000  0.6188680000000 1.0
C      1  0.5024250000000  0.4652410000000  0.3922190000000 1.0
C      1  0.5395460000000  0.4127230000000  0.5066530000000 1.0
C      1  0.4103490000000  0.5005840000000  0.5257700000000 1.0
C      1  0.4964310000000  0.6154110000000  0.5164170000000 1.0
C      1  0.5350500000000  0.5684600000000  0.4181080000000 1.0
C      1  0.4693440000000  0.5426910000000  0.5184350000000 1.0
C      1  0.5223870000000  0.6163900000000  0.5264470000000 1.0
C      1  0.5574440000000  0.5618370000000  0.4016720000000 1.0
C      1  0.4071930000000  0.4696510000000  0.5164860000000 1.0
C      1  0.4777270000000  0.5290690000000  0.5837930000000 1.0
C      1  0.4308290000000  0.4581890000000  0.4948880000000 1.0
C      1  0.5230310000000  0.5338120000000  0.4846830000000 1.0
C      1  0.4485870000000  0.4101040000000  0.5075750000000 1.0
C      1  0.4183620000000  0.5569900000000  0.5386970000000 1.0
C      1  0.4539610000000  0.4778080000000  0.5453520000000 1.0
C      1  0.4369940000000  0.5119170000000  0.5912980000000 1.0
C      1  0.4661800000000  0.5132350000000  0.5316080000000 1.0
C      1  0.5412780000000  0.4274720000000  0.5809460000000 1.0
C      1  0.4301830000000  0.4977500000000  0.4385850000000 1.0
C      1  0.5908640000000  0.4182760000000  0.4912780000000 1.0
C      1  0.4571110000000  0.4950440000000  0.5843160000000 1.0
C      1  0.4381270000000  0.5067370000000  0.5435230000000 1.0
C      1  0.4827020000000  0.4319330000000  0.5235050000000 1.0
C      1  0.4624350000000  0.5024620000000  0.4047470000000 1.0
C      1  0.4296330000000  0.4700310000000  0.5651840000000 1.0
C      1  0.4595400000000  0.5531550000000  0.4328710000000 1.0
C      1  0.4779080000000  0.5185370000000  0.4258200000000 1.0
C      1  0.4503940000000  0.4341300000000  0.5315840000000 1.0
C      1  0.4746500000000  0.6175530000000  0.4561220000000 1.0
C      1  0.5672860000000  0.5553330000000  0.5215080000000 1.0
C      1  0.4828500000000  0.4482330000000  0.4104360000000 1.0
C      1  0.5398130000000  0.5569490000000  0.4491330000000 1.0
C      1  0.4039780000000  0.5338900000000  0.5284000000000 1.0
C      1  0.3998210000000  0.4412920000000  0.5134930000000 1.0
C      1  0.5796580000000  0.5222720000000  0.5601250000000 1.0
C      1  0.4932730000000  0.5564310000000  0.4984510000000 1.0
C      1  0.5030850000000  0.4803970000000  0.4455570000000 1.0
C      1  0.5308260000000  0.5966710000000  0.4186770000000 1.0
C      1  0.5367860000000  0.4613020000000  0.5203740000000 1.0
C      1  0.4674880000000  0.5101850000000  0.4809250000000 1.0
C      1  0.4095590000000  0.4629130000000  0.4708910000000 1.0
C      1  0.4667090000000  0.4133750000000  0.4800070000000 1.0
C      1  0.4937870000000  0.4596840000000  0.5154240000000 1.0
C      1  0.5271960000000  0.4878860000000  0.5388660000000 1.0
C      1  0.5942060000000  0.4482590000000  0.4837930000000 1.0
C      1  0.5755110000000  0.4763140000000  0.5491420000000 1.0
C      1  0.4875410000000  0.4719600000000  0.5925720000000 1.0
C      1  0.5026920000000  0.5760060000000  0.5847450000000 1.0
C      1  0.5806590000000  0.5448070000000  0.4936170000000 1.0
C      1  0.4973950000000  0.5398850000000  0.5606690000000 1.0
C      1  0.5096920000000  0.5064960000000  0.4247920000000 1.0
C      1  0.5983950000000  0.4735910000000  0.4384880000000 1.0
C      1  0.5585060000000  0.5271060000000  0.4433090000000 1.0
C      1  0.4709530000000  0.4004790000000  0.5317660000000 1.0
C      1  0.5032370000000  0.4528990000000  0.4753290000000 1.0
C      1  0.4937760000000  0.5363710000000  0.4502140000000 1.0
C      1  0.4676460000000  0.4757730000000  0.4085680000000 1.0
C      1  0.5864540000000  0.5338750000000  0.5354400000000 1.0
C      1  0.5233720000000  0.5580200000000  0.5850540000000 1.0
C      1  0.5383000000000  0.5027160000000  0.5742840000000 1.0
C      1  0.4398240000000  0.4388280000000  0.5588020000000 1.0
C      1  0.4378430000000  0.4698840000000  0.4340660000000 1.0
C      1  0.4862040000000  0.4135880000000  0.4525590000000 1.0
C      1  0.6068830000000  0.4680800000000  0.5034650000000 1.0
C      1  0.5438560000000  0.4348680000000  0.4737510000000 1.0
C      1  0.4553820000000  0.4628260000000  0.5863520000000 1.0
C      1  0.5445720000000  0.4273730000000  0.5536690000000 1.0
C      1  0.5298060000000  0.5317400000000  0.5670930000000 1.0
C      1  0.4229910000000  0.4261740000000  0.5035690000000 1.0
C      1  0.4897580000000  0.5700640000000  0.4527050000000 1.0
C      1  0.4859200000000  0.5617910000000  0.4205190000000 1.0
C      1  0.5154530000000  0.5635210000000  0.4724780000000 1.0
C      1  0.5886710000000  0.4929730000000  0.5040580000000 1.0
C      1  0.4709560000000  0.4697690000000  0.4418740000000 1.0
C      1  0.5561100000000  0.4866900000000  0.4821030000000 1.0
C      1  0.4369020000000  0.5432620000000  0.4776820000000 1.0
C      1  0.5194860000000  0.4773940000000  0.5869700000000 1.0
C      1  0.4414580000000  0.5298430000000  0.5038010000000 1.0
C      1  0.4702280000000  0.5915430000000  0.4644380000000 1.0
C      1  0.5644230000000  0.4981960000000  0.5637380000000 1.0
C      1  0.5119990000000  0.4248150000000  0.4674150000000 1.0
C      1  0.5109950000000  0.4920310000000  0.3943200000000 1.0
C      1  0.5268870000000  0.4744150000000  0.4690890000000 1.0
END
