TITL C-2847946-5639-251 -0.000947916208155532 125000 -745.085713800611 0 0 142 (C1) n - 1
REM
REM in /home/bkarasulu/work/CARBON/AIRSS/Generating-Clusters/AIREBO/with-SteepDescent/Only-C1/SD-CG-opt/Try1-1.4A-POS3A/HFTN-CG
REM
REM
REM
REM
REM
REM ./C.cell (11c1c37f851c82e70ff6c80c92926a4b)
REM
REM compiler GCC version 9.2.1 20190827 (Red Hat 9.2.1-1)
REM options -cpp -mtune=generic -march=x86-64 -g -O0 -fpre-include=/usr/include/finclude/math-vector-fortran.h
REM seed 2061912858 640292344 476918200 -1254720638 -404607598 -1914684571 373461181 -1300012009 -604444041 578445057 597365847 -1579515908 -1730049669 -1960964488 1551272826 1783723962 132367232 1304885978 -1998921080 -410123944 -1752676234 182863512 960868304 1661685645 -112801848 1574442164 260909438 655934313 -85321216 -268244950 -1825869275 -1872159178 -1654728364
REM
CELL 1.54180   50.00000   50.00000   50.00000   90.00000   90.00000   90.00000
LATT -1
SFAC C  
C      1  0.4448460000000  0.5875410000000  0.5214040000000 1.0
C      1  0.4464020000000  0.4248220000000  0.4730260000000 1.0
C      1  0.4261540000000  0.5033990000000  0.5023390000000 1.0
C      1  0.5032520000000  0.5834210000000  0.5033250000000 1.0
C      1  0.4521820000000  0.4852040000000  0.5265970000000 1.0
C      1  0.5388720000000  0.5619880000000  0.5470370000000 1.0
C      1  0.4985790000000  0.5469220000000  0.4096410000000 1.0
C      1  0.5150630000000  0.5821190000000  0.5334590000000 1.0
C      1  0.4216350000000  0.5236900000000  0.4474780000000 1.0
C      1  0.4340100000000  0.4517700000000  0.4875810000000 1.0
C      1  0.4315140000000  0.5598260000000  0.4651560000000 1.0
C      1  0.4320290000000  0.5237470000000  0.5647230000000 1.0
C      1  0.4410230000000  0.4927570000000  0.5754780000000 1.0
C      1  0.4993170000000  0.4206540000000  0.4568560000000 1.0
C      1  0.5110590000000  0.5468910000000  0.4631870000000 1.0
C      1  0.5563990000000  0.5741010000000  0.4888700000000 1.0
C      1  0.4077340000000  0.4925870000000  0.5679320000000 1.0
C      1  0.4829460000000  0.4007850000000  0.5100500000000 1.0
C      1  0.5408110000000  0.4960200000000  0.4310100000000 1.0
C      1  0.5691270000000  0.5374440000000  0.4500370000000 1.0
C      1  0.4951490000000  0.4449770000000  0.5608170000000 1.0
C      1  0.3999010000000  0.5142360000000  0.5210330000000 1.0
C      1  0.4905410000000  0.5207910000000  0.5052890000000 1.0
C      1  0.5224690000000  0.4348290000000  0.4363810000000 1.0
C      1  0.4436600000000  0.5320470000000  0.4308630000000 1.0
C      1  0.4725640000000  0.4936780000000  0.5007360000000 1.0
C      1  0.4275470000000  0.4692630000000  0.5543290000000 1.0
C      1  0.5170050000000  0.5097680000000  0.4869300000000 1.0
C      1  0.5625380000000  0.4162280000000  0.4698840000000 1.0
C      1  0.4732070000000  0.5226850000000  0.4448540000000 1.0
C      1  0.4131600000000  0.4874410000000  0.4752680000000 1.0
C      1  0.4735480000000  0.5745300000000  0.4944230000000 1.0
C      1  0.5470900000000  0.4640260000000  0.5704890000000 1.0
C      1  0.5217660000000  0.4720050000000  0.5910950000000 1.0
C      1  0.4533690000000  0.5134630000000  0.5417510000000 1.0
C      1  0.5325140000000  0.4144820000000  0.4611430000000 1.0
C      1  0.4484860000000  0.4473750000000  0.5472910000000 1.0
C      1  0.5691600000000  0.4894420000000  0.5644140000000 1.0
C      1  0.4992730000000  0.4524000000000  0.4690350000000 1.0
C      1  0.5144930000000  0.4002970000000  0.5217420000000 1.0
C      1  0.4867910000000  0.5841010000000  0.4446770000000 1.0
C      1  0.5463630000000  0.4104480000000  0.5278890000000 1.0
C      1  0.5633860000000  0.5259200000000  0.5020680000000 1.0
C      1  0.6020840000000  0.4676830000000  0.4696410000000 1.0
C      1  0.4026410000000  0.4630990000000  0.5319190000000 1.0
C      1  0.5142860000000  0.4257660000000  0.5442780000000 1.0
C      1  0.5523240000000  0.4882520000000  0.5284270000000 1.0
C      1  0.4623010000000  0.5771370000000  0.4621870000000 1.0
C      1  0.4871090000000  0.5386200000000  0.4785770000000 1.0
C      1  0.5836210000000  0.5360230000000  0.5274570000000 1.0
C      1  0.4745320000000  0.4664420000000  0.4229230000000 1.0
C      1  0.5627190000000  0.4578610000000  0.5348390000000 1.0
C      1  0.4772010000000  0.5501270000000  0.5161930000000 1.0
C      1  0.4900140000000  0.4668690000000  0.5122840000000 1.0
C      1  0.5240070000000  0.4901550000000  0.4599990000000 1.0
C      1  0.4890400000000  0.5853550000000  0.5757330000000 1.0
C      1  0.5121530000000  0.5862030000000  0.4569560000000 1.0
C      1  0.4122130000000  0.5340070000000  0.4767270000000 1.0
C      1  0.5667660000000  0.4914670000000  0.4811390000000 1.0
C      1  0.5438300000000  0.5362380000000  0.5279150000000 1.0
C      1  0.4749500000000  0.4642540000000  0.6020420000000 1.0
C      1  0.4818880000000  0.5175520000000  0.4057880000000 1.0
C      1  0.4407080000000  0.5417990000000  0.5301120000000 1.0
C      1  0.4502350000000  0.4850440000000  0.4236640000000 1.0
C      1  0.3901990000000  0.5104190000000  0.4886630000000 1.0
C      1  0.4504020000000  0.5145690000000  0.4875910000000 1.0
C      1  0.5837960000000  0.5590660000000  0.5023480000000 1.0
C      1  0.5813460000000  0.4527950000000  0.5001920000000 1.0
C      1  0.5197110000000  0.4644040000000  0.5520450000000 1.0
C      1  0.5806670000000  0.4848730000000  0.5114720000000 1.0
C      1  0.5188620000000  0.5260940000000  0.3933710000000 1.0
C      1  0.5754410000000  0.4464900000000  0.4685530000000 1.0
C      1  0.5331310000000  0.5659480000000  0.4456920000000 1.0
C      1  0.5857390000000  0.5150920000000  0.4421630000000 1.0
C      1  0.4750040000000  0.4655330000000  0.5427630000000 1.0
C      1  0.4762410000000  0.5231000000000  0.5650150000000 1.0
C      1  0.5700240000000  0.5595880000000  0.5467120000000 1.0
C      1  0.4602570000000  0.4223350000000  0.5040660000000 1.0
C      1  0.5067380000000  0.5508450000000  0.5260610000000 1.0
C      1  0.5593060000000  0.5080280000000  0.5837100000000 1.0
C      1  0.5281070000000  0.4480720000000  0.4823540000000 1.0
C      1  0.4032840000000  0.5157550000000  0.5484090000000 1.0
C      1  0.4983820000000  0.5125260000000  0.5337000000000 1.0
C      1  0.5322510000000  0.4753550000000  0.4067730000000 1.0
C      1  0.4735320000000  0.4479170000000  0.4907950000000 1.0
C      1  0.4601600000000  0.4960010000000  0.4608140000000 1.0
C      1  0.5008140000000  0.4689060000000  0.4014440000000 1.0
C      1  0.4873940000000  0.5739670000000  0.4191350000000 1.0
C      1  0.5324140000000  0.5054660000000  0.3931530000000 1.0
C      1  0.5028420000000  0.4714270000000  0.4410820000000 1.0
C      1  0.4129320000000  0.4321430000000  0.5239800000000 1.0
C      1  0.5252660000000  0.5691770000000  0.4845830000000 1.0
C      1  0.4982490000000  0.4532600000000  0.5902480000000 1.0
C      1  0.4403270000000  0.4298550000000  0.5265640000000 1.0
C      1  0.5924490000000  0.4513610000000  0.5297420000000 1.0
C      1  0.5726390000000  0.4980180000000  0.4248140000000 1.0
C      1  0.5532260000000  0.4389860000000  0.5009350000000 1.0
C      1  0.5491860000000  0.4676740000000  0.4642480000000 1.0
C      1  0.4634680000000  0.4361000000000  0.4488380000000 1.0
C      1  0.4890170000000  0.4361440000000  0.4283930000000 1.0
C      1  0.5055380000000  0.4376050000000  0.5136290000000 1.0
C      1  0.5428750000000  0.4562700000000  0.4328300000000 1.0
C      1  0.5939430000000  0.5178890000000  0.4936560000000 1.0
C      1  0.5481950000000  0.5168860000000  0.4771370000000 1.0
C      1  0.6110860000000  0.4805050000000  0.4969140000000 1.0
C      1  0.5741000000000  0.5566410000000  0.4696460000000 1.0
C      1  0.4890620000000  0.4844080000000  0.4742940000000 1.0
C      1  0.5041150000000  0.5363040000000  0.5535710000000 1.0
C      1  0.5194690000000  0.4814380000000  0.5035490000000 1.0
C      1  0.4994250000000  0.5988700000000  0.5542750000000 1.0
C      1  0.3943450000000  0.4796780000000  0.5027070000000 1.0
C      1  0.4400480000000  0.5739720000000  0.4948730000000 1.0
C      1  0.4549520000000  0.5114450000000  0.4113170000000 1.0
C      1  0.5950490000000  0.5001190000000  0.4661780000000 1.0
C      1  0.4685900000000  0.4897480000000  0.5910860000000 1.0
C      1  0.4612050000000  0.5451660000000  0.4642910000000 1.0
C      1  0.4190510000000  0.5644850000000  0.5432630000000 1.0
C      1  0.5255470000000  0.5394760000000  0.5011580000000 1.0
C      1  0.5281620000000  0.5176660000000  0.5793820000000 1.0
C      1  0.5697840000000  0.4698360000000  0.4190720000000 1.0
C      1  0.4856920000000  0.4923260000000  0.5553790000000 1.0
C      1  0.5464030000000  0.4346630000000  0.5523940000000 1.0
C      1  0.5020210000000  0.4972460000000  0.4201920000000 1.0
C      1  0.5058730000000  0.5270400000000  0.4362440000000 1.0
C      1  0.5201430000000  0.4909170000000  0.5351410000000 1.0
C      1  0.5618210000000  0.4071540000000  0.5009400000000 1.0
C      1  0.5315250000000  0.4551240000000  0.5215430000000 1.0
C      1  0.4665470000000  0.5415650000000  0.5844250000000 1.0
C      1  0.5081080000000  0.5715550000000  0.5901750000000 1.0
C      1  0.5866280000000  0.5039610000000  0.5390010000000 1.0
C      1  0.4334520000000  0.5546380000000  0.5672390000000 1.0
C      1  0.5385260000000  0.5244450000000  0.4454270000000 1.0
C      1  0.5235490000000  0.5498760000000  0.5742550000000 1.0
C      1  0.4566610000000  0.4626260000000  0.4662880000000 1.0
C      1  0.4635180000000  0.5702220000000  0.5704760000000 1.0
C      1  0.5184220000000  0.4169450000000  0.4920800000000 1.0
C      1  0.5415810000000  0.5135780000000  0.5484670000000 1.0
C      1  0.4285440000000  0.4924010000000  0.4488290000000 1.0
C      1  0.4266180000000  0.4710720000000  0.5091630000000 1.0
C      1  0.4586800000000  0.5673460000000  0.5389400000000 1.0
C      1  0.5008860000000  0.4978500000000  0.5838370000000 1.0
C      1  0.4359000000000  0.5416810000000  0.4999340000000 1.0
END
