TITL C-2848505-4874-48 -0.00333085671028578 125000 -709.783581088258 0 0 132 (C1) n - 1
REM
REM in /home/bkarasulu/work/CARBON/AIRSS/Generating-Clusters/AIREBO/with-SteepDescent/Only-C1/SD-CG-opt/Try1-1.4A-POS3A/HFTN-CG
REM
REM
REM
REM
REM
REM ./C.cell (11c1c37f851c82e70ff6c80c92926a4b)
REM
REM compiler GCC version 9.2.1 20190827 (Red Hat 9.2.1-1)
REM options -cpp -mtune=generic -march=x86-64 -g -O0 -fpre-include=/usr/include/finclude/math-vector-fortran.h
REM seed 2001663320 481656461 -1226794731 -1437784873 58867893 -2112319563 -1973541842 -964113098 733906117 132214590 -1202153565 -1811228900 2106968469 -1593449925 -472214479 -323742804 -1605127288 -1504195138 747533241 -1219989005 1420854855 572765840 -1227998594 338541238 1923056996 -1747044583 1297093321 -72164100 1705530666 -1783831729 1409893923 1031516858 -719853707
REM
CELL 1.54180   50.00000   50.00000   50.00000   90.00000   90.00000   90.00000
LATT -1
SFAC C  
C      1  0.4800890000000  0.5575800000000  0.5872240000000 1.0
C      1  0.4783810000000  0.5890490000000  0.4883230000000 1.0
C      1  0.4772390000000  0.4378430000000  0.5223990000000 1.0
C      1  0.4877640000000  0.4530800000000  0.5833200000000 1.0
C      1  0.5028270000000  0.5069040000000  0.5356270000000 1.0
C      1  0.4970270000000  0.4104360000000  0.5261060000000 1.0
C      1  0.4650420000000  0.4119240000000  0.4803110000000 1.0
C      1  0.4790160000000  0.5194150000000  0.4138510000000 1.0
C      1  0.4780340000000  0.5464850000000  0.4072010000000 1.0
C      1  0.4689370000000  0.4278630000000  0.4505170000000 1.0
C      1  0.5307240000000  0.5701860000000  0.5843680000000 1.0
C      1  0.5438160000000  0.5455770000000  0.5173650000000 1.0
C      1  0.4881240000000  0.5361370000000  0.4597530000000 1.0
C      1  0.5835440000000  0.5146750000000  0.5002190000000 1.0
C      1  0.5663830000000  0.4408880000000  0.5426840000000 1.0
C      1  0.5702630000000  0.4687500000000  0.4786350000000 1.0
C      1  0.5392490000000  0.5153150000000  0.6338440000000 1.0
C      1  0.5393110000000  0.4582280000000  0.4880140000000 1.0
C      1  0.5070650000000  0.4772380000000  0.4736530000000 1.0
C      1  0.4521470000000  0.4533790000000  0.4354730000000 1.0
C      1  0.5132160000000  0.4273590000000  0.5507580000000 1.0
C      1  0.4901100000000  0.4642510000000  0.4318940000000 1.0
C      1  0.5110620000000  0.4308390000000  0.4948380000000 1.0
C      1  0.5612790000000  0.4328190000000  0.4933640000000 1.0
C      1  0.4666820000000  0.4869360000000  0.4720350000000 1.0
C      1  0.5811030000000  0.5193590000000  0.4394820000000 1.0
C      1  0.4899160000000  0.4863050000000  0.4507150000000 1.0
C      1  0.4639980000000  0.4659970000000  0.5875940000000 1.0
C      1  0.5570600000000  0.4321200000000  0.4284340000000 1.0
C      1  0.5824350000000  0.4886180000000  0.4350590000000 1.0
C      1  0.5513080000000  0.5174180000000  0.5787890000000 1.0
C      1  0.5430180000000  0.4922960000000  0.5244400000000 1.0
C      1  0.4447310000000  0.5172310000000  0.5323120000000 1.0
C      1  0.4546550000000  0.4776170000000  0.5246610000000 1.0
C      1  0.5391370000000  0.4499490000000  0.4171660000000 1.0
C      1  0.4578280000000  0.5730870000000  0.4782210000000 1.0
C      1  0.4278650000000  0.5371720000000  0.4525560000000 1.0
C      1  0.4638400000000  0.5079010000000  0.5835320000000 1.0
C      1  0.5146540000000  0.5547470000000  0.4708350000000 1.0
C      1  0.4581420000000  0.4012160000000  0.4425120000000 1.0
C      1  0.5210700000000  0.5705030000000  0.5216450000000 1.0
C      1  0.4607380000000  0.5201040000000  0.4721240000000 1.0
C      1  0.4076730000000  0.5232810000000  0.4912790000000 1.0
C      1  0.5355460000000  0.4817540000000  0.4637450000000 1.0
C      1  0.4358760000000  0.5633250000000  0.4926720000000 1.0
C      1  0.4439230000000  0.4759780000000  0.5642090000000 1.0
C      1  0.4571340000000  0.5314640000000  0.5040030000000 1.0
C      1  0.4553590000000  0.5459240000000  0.5915940000000 1.0
C      1  0.6064910000000  0.4941760000000  0.5006190000000 1.0
C      1  0.5546940000000  0.5589290000000  0.5644090000000 1.0
C      1  0.4428370000000  0.5560150000000  0.5227210000000 1.0
C      1  0.5257000000000  0.4673590000000  0.5183360000000 1.0
C      1  0.5077110000000  0.4858560000000  0.3914250000000 1.0
C      1  0.4579040000000  0.5006530000000  0.4115680000000 1.0
C      1  0.5605530000000  0.4722020000000  0.5566280000000 1.0
C      1  0.5390970000000  0.4679490000000  0.5757870000000 1.0
C      1  0.5268000000000  0.5172010000000  0.5156240000000 1.0
C      1  0.4987680000000  0.4622560000000  0.4991660000000 1.0
C      1  0.4080200000000  0.5235110000000  0.5491620000000 1.0
C      1  0.5235840000000  0.4358540000000  0.4660710000000 1.0
C      1  0.4677730000000  0.4588710000000  0.4068010000000 1.0
C      1  0.4915650000000  0.4998530000000  0.5669250000000 1.0
C      1  0.6052160000000  0.5323350000000  0.4440130000000 1.0
C      1  0.4019340000000  0.4766490000000  0.4992870000000 1.0
C      1  0.4872870000000  0.5199400000000  0.5014820000000 1.0
C      1  0.4496930000000  0.4600730000000  0.4653620000000 1.0
C      1  0.5405330000000  0.4263530000000  0.5369140000000 1.0
C      1  0.5671060000000  0.4888460000000  0.5048590000000 1.0
C      1  0.4746860000000  0.4754800000000  0.5502780000000 1.0
C      1  0.5286180000000  0.5119420000000  0.4579040000000 1.0
C      1  0.4445170000000  0.5284490000000  0.5645160000000 1.0
C      1  0.4868470000000  0.4279050000000  0.5703840000000 1.0
C      1  0.5679060000000  0.4656330000000  0.4473250000000 1.0
C      1  0.5024340000000  0.5321050000000  0.5664830000000 1.0
C      1  0.5600800000000  0.5761830000000  0.4547660000000 1.0
C      1  0.5515790000000  0.5299820000000  0.4528870000000 1.0
C      1  0.4409110000000  0.4269060000000  0.5348210000000 1.0
C      1  0.4190520000000  0.5459330000000  0.4785300000000 1.0
C      1  0.5377010000000  0.5883770000000  0.6039150000000 1.0
C      1  0.4901130000000  0.4080450000000  0.4953810000000 1.0
C      1  0.5846290000000  0.4422710000000  0.5110730000000 1.0
C      1  0.4632560000000  0.5741920000000  0.5340050000000 1.0
C      1  0.5169050000000  0.5140310000000  0.4858530000000 1.0
C      1  0.5011690000000  0.5135470000000  0.4378970000000 1.0
C      1  0.4360830000000  0.5051600000000  0.4540280000000 1.0
C      1  0.5583240000000  0.5338410000000  0.4210200000000 1.0
C      1  0.5552800000000  0.5733650000000  0.5012350000000 1.0
C      1  0.4953480000000  0.5713160000000  0.4198800000000 1.0
C      1  0.4428600000000  0.4856740000000  0.4951440000000 1.0
C      1  0.5486380000000  0.5548390000000  0.4735030000000 1.0
C      1  0.5062490000000  0.5876580000000  0.4724840000000 1.0
C      1  0.5571150000000  0.4357120000000  0.4603550000000 1.0
C      1  0.4998320000000  0.5711660000000  0.5746750000000 1.0
C      1  0.4534940000000  0.4188610000000  0.5071450000000 1.0
C      1  0.5011400000000  0.4319770000000  0.4455910000000 1.0
C      1  0.4957500000000  0.4614470000000  0.3927200000000 1.0
C      1  0.5995220000000  0.4679300000000  0.4952160000000 1.0
C      1  0.4984640000000  0.5400320000000  0.5340370000000 1.0
C      1  0.4863960000000  0.5934300000000  0.5197930000000 1.0
C      1  0.5368840000000  0.4248380000000  0.5097960000000 1.0
C      1  0.4649760000000  0.5666020000000  0.4284910000000 1.0
C      1  0.4555880000000  0.5206830000000  0.6099880000000 1.0
C      1  0.5672810000000  0.5359070000000  0.4947310000000 1.0
C      1  0.5061130000000  0.5482720000000  0.5019460000000 1.0
C      1  0.5100840000000  0.4423320000000  0.4152550000000 1.0
C      1  0.4112940000000  0.4959510000000  0.4728850000000 1.0
C      1  0.5701340000000  0.5932880000000  0.5077960000000 1.0
C      1  0.4180270000000  0.4633350000000  0.4731760000000 1.0
C      1  0.5116090000000  0.5743970000000  0.4416350000000 1.0
C      1  0.5761150000000  0.4697600000000  0.5275930000000 1.0
C      1  0.5097120000000  0.4708190000000  0.5688610000000 1.0
C      1  0.5572560000000  0.5390360000000  0.5457540000000 1.0
C      1  0.4646820000000  0.4269260000000  0.5536240000000 1.0
C      1  0.4671820000000  0.4540000000000  0.4942080000000 1.0
C      1  0.5144080000000  0.5967920000000  0.5019090000000 1.0
C      1  0.5393590000000  0.5211060000000  0.6079280000000 1.0
C      1  0.5572670000000  0.5054070000000  0.5508550000000 1.0
C      1  0.4439690000000  0.4861100000000  0.4306040000000 1.0
C      1  0.4327170000000  0.4567060000000  0.5401390000000 1.0
C      1  0.4233540000000  0.4949090000000  0.5464900000000 1.0
C      1  0.4646690000000  0.5578930000000  0.4552290000000 1.0
C      1  0.4241520000000  0.5482260000000  0.5458030000000 1.0
C      1  0.5406070000000  0.5228450000000  0.4036960000000 1.0
C      1  0.4849760000000  0.4892730000000  0.5144820000000 1.0
C      1  0.5412980000000  0.4783320000000  0.4303580000000 1.0
C      1  0.4961310000000  0.5723620000000  0.5446830000000 1.0
C      1  0.4258270000000  0.5073560000000  0.5083200000000 1.0
C      1  0.4343040000000  0.4532110000000  0.5005630000000 1.0
C      1  0.5008530000000  0.4568320000000  0.5391460000000 1.0
C      1  0.5260320000000  0.5379890000000  0.5824820000000 1.0
C      1  0.4077920000000  0.4735900000000  0.5268330000000 1.0
C      1  0.5228370000000  0.5001230000000  0.4153790000000 1.0
END
