TITL C-2847950-6905-385 -0.000688314735018096 125000 -669.932327662746 0 0 125 (C1) n - 1
REM
REM in /home/bkarasulu/work/CARBON/AIRSS/Generating-Clusters/AIREBO/with-SteepDescent/Only-C1/SD-CG-opt/Try1-1.4A-POS3A/HFTN-CG
REM
REM
REM
REM
REM
REM ./C.cell (11c1c37f851c82e70ff6c80c92926a4b)
REM
REM compiler GCC version 9.2.1 20190827 (Red Hat 9.2.1-1)
REM options -cpp -mtune=generic -march=x86-64 -g -O0 -fpre-include=/usr/include/finclude/math-vector-fortran.h
REM seed 1433078244 412742515 -1206507389 993531547 1979638848 -102151437 1384084240 1420543319 -963180615 1963315043 -1618292820 78705226 666652862 1105238665 1803983676 1677581131 -1284686920 -149363755 2055880260 1963421574 174489836 -888842917 -1361334904 499189473 1418020068 23028195 -1112808966 764764297 -118029593 -320429134 -555886089 -972431337 231183343
REM
CELL 1.54180   50.00000   50.00000   50.00000   90.00000   90.00000   90.00000
LATT -1
SFAC C  
C      1  0.4464150000000  0.4296530000000  0.5276580000000 1.0
C      1  0.5871280000000  0.5299820000000  0.4996490000000 1.0
C      1  0.4935560000000  0.5706400000000  0.5747410000000 1.0
C      1  0.4675510000000  0.5018450000000  0.5711340000000 1.0
C      1  0.4417500000000  0.5778190000000  0.5291240000000 1.0
C      1  0.4399870000000  0.5140960000000  0.5383410000000 1.0
C      1  0.5407810000000  0.4640770000000  0.4625920000000 1.0
C      1  0.4666080000000  0.5659580000000  0.5678860000000 1.0
C      1  0.5852430000000  0.4637330000000  0.4981430000000 1.0
C      1  0.5297050000000  0.5141310000000  0.4455950000000 1.0
C      1  0.4279010000000  0.4363580000000  0.5043090000000 1.0
C      1  0.4674790000000  0.4490480000000  0.5694370000000 1.0
C      1  0.5692840000000  0.4764660000000  0.4709450000000 1.0
C      1  0.5084450000000  0.5333790000000  0.4545720000000 1.0
C      1  0.5342350000000  0.4631070000000  0.5044680000000 1.0
C      1  0.4329830000000  0.4505080000000  0.4639960000000 1.0
C      1  0.4349060000000  0.5526910000000  0.5477430000000 1.0
C      1  0.5416810000000  0.4373380000000  0.4835730000000 1.0
C      1  0.5406600000000  0.5792980000000  0.5318180000000 1.0
C      1  0.4761450000000  0.4809990000000  0.4056160000000 1.0
C      1  0.6019300000000  0.4771180000000  0.4718400000000 1.0
C      1  0.5872410000000  0.5320150000000  0.5340730000000 1.0
C      1  0.5599590000000  0.4764490000000  0.4188190000000 1.0
C      1  0.5648750000000  0.4999130000000  0.4305140000000 1.0
C      1  0.4148320000000  0.5038460000000  0.4721970000000 1.0
C      1  0.4679760000000  0.5116360000000  0.4079770000000 1.0
C      1  0.4432550000000  0.4233900000000  0.4619090000000 1.0
C      1  0.5407180000000  0.4448860000000  0.5494630000000 1.0
C      1  0.5711570000000  0.5459940000000  0.4502070000000 1.0
C      1  0.4980470000000  0.4952040000000  0.5847560000000 1.0
C      1  0.4416300000000  0.4424520000000  0.5534340000000 1.0
C      1  0.5601810000000  0.5238470000000  0.5171880000000 1.0
C      1  0.5572270000000  0.5695420000000  0.4584650000000 1.0
C      1  0.4292210000000  0.4936740000000  0.4497600000000 1.0
C      1  0.5027180000000  0.5138710000000  0.5567220000000 1.0
C      1  0.5082270000000  0.5621770000000  0.4425500000000 1.0
C      1  0.4942910000000  0.4191640000000  0.5354460000000 1.0
C      1  0.4092370000000  0.4859930000000  0.5474100000000 1.0
C      1  0.4736270000000  0.4230360000000  0.4615050000000 1.0
C      1  0.5327300000000  0.5048380000000  0.4879860000000 1.0
C      1  0.5000720000000  0.5475620000000  0.5910020000000 1.0
C      1  0.4762120000000  0.5990340000000  0.5018200000000 1.0
C      1  0.4599680000000  0.4931380000000  0.5200680000000 1.0
C      1  0.5157050000000  0.4181010000000  0.4937800000000 1.0
C      1  0.5066150000000  0.5208180000000  0.4113360000000 1.0
C      1  0.4625810000000  0.5241110000000  0.4748610000000 1.0
C      1  0.4733530000000  0.5686820000000  0.5270440000000 1.0
C      1  0.5424410000000  0.4198460000000  0.5311630000000 1.0
C      1  0.4910940000000  0.5971560000000  0.4560730000000 1.0
C      1  0.5018230000000  0.5877730000000  0.4864240000000 1.0
C      1  0.4120470000000  0.5038060000000  0.5217750000000 1.0
C      1  0.5125610000000  0.4873840000000  0.4468070000000 1.0
C      1  0.5390340000000  0.4643530000000  0.5773700000000 1.0
C      1  0.5409730000000  0.5571300000000  0.4839270000000 1.0
C      1  0.4484760000000  0.5550180000000  0.4718450000000 1.0
C      1  0.4575340000000  0.5348730000000  0.4273030000000 1.0
C      1  0.4130810000000  0.5359990000000  0.5167380000000 1.0
C      1  0.5590200000000  0.4241850000000  0.5097030000000 1.0
C      1  0.5794550000000  0.5031990000000  0.5467130000000 1.0
C      1  0.5117060000000  0.4967900000000  0.3972810000000 1.0
C      1  0.4586130000000  0.5593470000000  0.4416860000000 1.0
C      1  0.5241590000000  0.4810800000000  0.5512290000000 1.0
C      1  0.5325690000000  0.5483420000000  0.5549960000000 1.0
C      1  0.4940650000000  0.4352150000000  0.5586030000000 1.0
C      1  0.4467880000000  0.5401170000000  0.5184700000000 1.0
C      1  0.4143260000000  0.4882590000000  0.4953990000000 1.0
C      1  0.5148060000000  0.5392180000000  0.5275900000000 1.0
C      1  0.4864330000000  0.4396350000000  0.4370980000000 1.0
C      1  0.4288940000000  0.4693300000000  0.5527350000000 1.0
C      1  0.4882830000000  0.5053340000000  0.4345100000000 1.0
C      1  0.5096400000000  0.4714440000000  0.4741090000000 1.0
C      1  0.4746600000000  0.5349430000000  0.5916860000000 1.0
C      1  0.5777210000000  0.4729670000000  0.5727450000000 1.0
C      1  0.4876170000000  0.5534470000000  0.5001990000000 1.0
C      1  0.5064350000000  0.4719930000000  0.4182070000000 1.0
C      1  0.5689960000000  0.4607140000000  0.5498530000000 1.0
C      1  0.4627550000000  0.4761130000000  0.5493920000000 1.0
C      1  0.5656100000000  0.5004410000000  0.5753580000000 1.0
C      1  0.5569250000000  0.5294830000000  0.4321880000000 1.0
C      1  0.5195730000000  0.4356450000000  0.4442320000000 1.0
C      1  0.4559010000000  0.4018670000000  0.5104760000000 1.0
C      1  0.5569040000000  0.5054190000000  0.4640550000000 1.0
C      1  0.5150290000000  0.5693510000000  0.5117740000000 1.0
C      1  0.5357830000000  0.4601530000000  0.4291900000000 1.0
C      1  0.4593770000000  0.5333630000000  0.5613240000000 1.0
C      1  0.4723190000000  0.4732320000000  0.5881180000000 1.0
C      1  0.5228150000000  0.5303630000000  0.5786480000000 1.0
C      1  0.4763270000000  0.4130810000000  0.4907620000000 1.0
C      1  0.5752400000000  0.4781010000000  0.5239610000000 1.0
C      1  0.4238200000000  0.5325500000000  0.4784670000000 1.0
C      1  0.4920130000000  0.5948090000000  0.5317790000000 1.0
C      1  0.4807290000000  0.5756870000000  0.4399450000000 1.0
C      1  0.4821240000000  0.5401750000000  0.5369760000000 1.0
C      1  0.5797800000000  0.5290460000000  0.4726900000000 1.0
C      1  0.4769370000000  0.4351800000000  0.5152480000000 1.0
C      1  0.4648940000000  0.4772130000000  0.4904090000000 1.0
C      1  0.5803930000000  0.4337020000000  0.4928460000000 1.0
C      1  0.4203430000000  0.5626680000000  0.4990860000000 1.0
C      1  0.5479710000000  0.4924010000000  0.5137730000000 1.0
C      1  0.5172170000000  0.4117420000000  0.5213230000000 1.0
C      1  0.4888560000000  0.5089250000000  0.5253500000000 1.0
C      1  0.5164370000000  0.5448800000000  0.4171260000000 1.0
C      1  0.4924860000000  0.5255490000000  0.4826100000000 1.0
C      1  0.5273260000000  0.5082510000000  0.5340260000000 1.0
C      1  0.4518500000000  0.5129380000000  0.4477600000000 1.0
C      1  0.5019400000000  0.4382060000000  0.4727050000000 1.0
C      1  0.5489590000000  0.4216630000000  0.4542840000000 1.0
C      1  0.4958450000000  0.4676550000000  0.5485760000000 1.0
C      1  0.5248120000000  0.5772550000000  0.4636850000000 1.0
C      1  0.5631540000000  0.5543290000000  0.5429000000000 1.0
C      1  0.4387670000000  0.4682420000000  0.4440890000000 1.0
C      1  0.5318580000000  0.4975830000000  0.5784530000000 1.0
C      1  0.4443130000000  0.5144970000000  0.4987290000000 1.0
C      1  0.5230140000000  0.5339200000000  0.4950200000000 1.0
C      1  0.4720890000000  0.4880040000000  0.4589520000000 1.0
C      1  0.5127410000000  0.5757850000000  0.5509440000000 1.0
C      1  0.4502030000000  0.5786830000000  0.4961990000000 1.0
C      1  0.4334790000000  0.4651120000000  0.4929820000000 1.0
C      1  0.5007080000000  0.4955530000000  0.4963870000000 1.0
C      1  0.4699740000000  0.4657300000000  0.4333020000000 1.0
C      1  0.4907230000000  0.4657080000000  0.5093150000000 1.0
C      1  0.5759270000000  0.4251630000000  0.4657820000000 1.0
C      1  0.5162000000000  0.4513490000000  0.5267580000000 1.0
C      1  0.5522240000000  0.5555870000000  0.5114440000000 1.0
C      1  0.4260590000000  0.4171280000000  0.4848940000000 1.0
END
