TITL C-2847947-6848-448 -0.000562177039224124 125000 -400.212213706327 0 0 77 (C1) n - 1
REM
REM in /home/bkarasulu/work/CARBON/AIRSS/Generating-Clusters/AIREBO/with-SteepDescent/Only-C1/SD-CG-opt/Try1-1.4A-POS3A/HFTN-CG
REM
REM
REM
REM
REM
REM ./C.cell (11c1c37f851c82e70ff6c80c92926a4b)
REM
REM compiler GCC version 9.2.1 20190827 (Red Hat 9.2.1-1)
REM options -cpp -mtune=generic -march=x86-64 -g -O0 -fpre-include=/usr/include/finclude/math-vector-fortran.h
REM seed 61426116 -544990478 -355339494 -219292181 -1191722606 -211073514 -1092003631 1604056753 59214173 1042036813 -658148746 -631859721 317446219 1271631387 -162841506 263875324 1340238333 1142295230 -1940200862 -606243310 -634251069 -951043314 1422882472 -1550654119 -1346478846 341173825 1778396623 -464755329 -1328800442 1446115504 -1464061270 1103204730 -1653209679
REM
CELL 1.54180   50.00000   50.00000   50.00000   90.00000   90.00000   90.00000
LATT -1
SFAC C  
C      1  0.5361610000000  0.4769580000000  0.5453000000000 1.0
C      1  0.4507200000000  0.4775280000000  0.4345230000000 1.0
C      1  0.4324910000000  0.4760710000000  0.5187690000000 1.0
C      1  0.5659170000000  0.5152550000000  0.5451220000000 1.0
C      1  0.4454840000000  0.4823420000000  0.5560150000000 1.0
C      1  0.4253050000000  0.5009140000000  0.5413330000000 1.0
C      1  0.5511150000000  0.5534540000000  0.4797670000000 1.0
C      1  0.4937190000000  0.4645670000000  0.4589060000000 1.0
C      1  0.5068330000000  0.4972300000000  0.4983810000000 1.0
C      1  0.4911010000000  0.4958000000000  0.5277060000000 1.0
C      1  0.4836780000000  0.4867690000000  0.4808400000000 1.0
C      1  0.5073490000000  0.5904140000000  0.5157110000000 1.0
C      1  0.4948390000000  0.4620530000000  0.5644640000000 1.0
C      1  0.5191770000000  0.4935990000000  0.5679130000000 1.0
C      1  0.4925540000000  0.4642460000000  0.5340450000000 1.0
C      1  0.5022650000000  0.5161370000000  0.4566090000000 1.0
C      1  0.4897510000000  0.4874790000000  0.5773520000000 1.0
C      1  0.4776640000000  0.4187600000000  0.4792710000000 1.0
C      1  0.4777130000000  0.5533660000000  0.4300340000000 1.0
C      1  0.5639450000000  0.4734680000000  0.5473720000000 1.0
C      1  0.5295000000000  0.4367830000000  0.4629460000000 1.0
C      1  0.4141210000000  0.4907620000000  0.4945650000000 1.0
C      1  0.4743130000000  0.4866640000000  0.4136470000000 1.0
C      1  0.5115080000000  0.5398380000000  0.5520370000000 1.0
C      1  0.4358550000000  0.5307550000000  0.4985590000000 1.0
C      1  0.5189320000000  0.5261670000000  0.4923940000000 1.0
C      1  0.5523410000000  0.4618410000000  0.5007390000000 1.0
C      1  0.5166760000000  0.4812680000000  0.4438580000000 1.0
C      1  0.5297890000000  0.5740580000000  0.4966530000000 1.0
C      1  0.5768330000000  0.4637290000000  0.5201710000000 1.0
C      1  0.4745770000000  0.4559470000000  0.4392580000000 1.0
C      1  0.5578720000000  0.5372900000000  0.5272590000000 1.0
C      1  0.5318990000000  0.5321380000000  0.4615190000000 1.0
C      1  0.4652490000000  0.4990790000000  0.5718870000000 1.0
C      1  0.5397260000000  0.4354480000000  0.4906280000000 1.0
C      1  0.4794800000000  0.5342590000000  0.5009550000000 1.0
C      1  0.4749190000000  0.5244900000000  0.5302500000000 1.0
C      1  0.5318960000000  0.4529190000000  0.4411930000000 1.0
C      1  0.4457590000000  0.4639990000000  0.4653250000000 1.0
C      1  0.5496120000000  0.5085830000000  0.5656120000000 1.0
C      1  0.5073750000000  0.4515600000000  0.5075600000000 1.0
C      1  0.5796630000000  0.5122000000000  0.5018390000000 1.0
C      1  0.5179100000000  0.5120880000000  0.5408270000000 1.0
C      1  0.4771280000000  0.5753200000000  0.5189930000000 1.0
C      1  0.4606590000000  0.4914410000000  0.5131900000000 1.0
C      1  0.4507610000000  0.5216340000000  0.5508810000000 1.0
C      1  0.5793370000000  0.5370670000000  0.4893220000000 1.0
C      1  0.4457730000000  0.5547910000000  0.5072540000000 1.0
C      1  0.5382440000000  0.5141300000000  0.5162750000000 1.0
C      1  0.5014520000000  0.4404900000000  0.4781640000000 1.0
C      1  0.4688570000000  0.4600730000000  0.4902310000000 1.0
C      1  0.4982540000000  0.5031310000000  0.4254490000000 1.0
C      1  0.5306080000000  0.4984810000000  0.4663140000000 1.0
C      1  0.4927900000000  0.4173470000000  0.5217440000000 1.0
C      1  0.4551220000000  0.4231970000000  0.4967560000000 1.0
C      1  0.4601920000000  0.5109270000000  0.4854690000000 1.0
C      1  0.5607860000000  0.5187120000000  0.4496000000000 1.0
C      1  0.5204890000000  0.4213620000000  0.5107380000000 1.0
C      1  0.5562750000000  0.5601190000000  0.5123460000000 1.0
C      1  0.4447070000000  0.5039010000000  0.4494500000000 1.0
C      1  0.4716260000000  0.5639210000000  0.4871450000000 1.0
C      1  0.4299490000000  0.4993770000000  0.4746420000000 1.0
C      1  0.4596390000000  0.5527980000000  0.5375930000000 1.0
C      1  0.4703830000000  0.4428710000000  0.5199140000000 1.0
C      1  0.4996660000000  0.5367320000000  0.4225680000000 1.0
C      1  0.5189040000000  0.5466310000000  0.5774800000000 1.0
C      1  0.5522390000000  0.4945310000000  0.4922500000000 1.0
C      1  0.5849380000000  0.4953510000000  0.5290580000000 1.0
C      1  0.5261450000000  0.4760480000000  0.5161300000000 1.0
C      1  0.4701900000000  0.5236430000000  0.4555620000000 1.0
C      1  0.4468920000000  0.4550770000000  0.5413100000000 1.0
C      1  0.5707630000000  0.5004120000000  0.4643450000000 1.0
C      1  0.5242710000000  0.5455970000000  0.4315330000000 1.0
C      1  0.4363750000000  0.4515360000000  0.4955360000000 1.0
C      1  0.4668970000000  0.5563360000000  0.4572940000000 1.0
C      1  0.4993140000000  0.5558420000000  0.5339470000000 1.0
C      1  0.5067850000000  0.5529020000000  0.5024020000000 1.0
END
