TITL C-2848494-1720-184 -0.000990026101774056 125000 -377.970948571846 0 0 70 (C1) n - 1
REM
REM in /home/bkarasulu/work/CARBON/AIRSS/Generating-Clusters/AIREBO/with-SteepDescent/Only-C1/SD-CG-opt/Try1-1.4A-POS3A/HFTN-CG
REM
REM
REM
REM
REM
REM ./C.cell (11c1c37f851c82e70ff6c80c92926a4b)
REM
REM compiler GCC version 9.2.1 20190827 (Red Hat 9.2.1-1)
REM options -cpp -mtune=generic -march=x86-64 -g -O0 -fpre-include=/usr/include/finclude/math-vector-fortran.h
REM seed 1272604819 288866931 1531472305 -1035878609 1855780966 1473341368 -1363751995 -499496769 1272243797 1408565573 -675193601 -1874088721 131389675 976764355 999112483 -1783224392 -602047326 -878684596 174664270 -2048402643 -1822441250 444466932 -270333872 1389292856 1314854668 -1073360721 -1277642449 1134045876 2104644655 -736852546 187960234 61826804 -1700597733
REM
CELL 1.54180   50.00000   50.00000   50.00000   90.00000   90.00000   90.00000
LATT -1
SFAC C  
C      1  0.4530930000000  0.4362970000000  0.5192200000000 1.0
C      1  0.4832300000000  0.4240950000000  0.5092770000000 1.0
C      1  0.4992300000000  0.4903390000000  0.5736240000000 1.0
C      1  0.4720870000000  0.4933600000000  0.5594080000000 1.0
C      1  0.5148340000000  0.4474930000000  0.5405970000000 1.0
C      1  0.4577450000000  0.5252000000000  0.4339930000000 1.0
C      1  0.4502270000000  0.4260400000000  0.4870890000000 1.0
C      1  0.5020940000000  0.5882500000000  0.5235480000000 1.0
C      1  0.5269010000000  0.5433940000000  0.5365250000000 1.0
C      1  0.4426650000000  0.4799370000000  0.5547480000000 1.0
C      1  0.5554510000000  0.5277410000000  0.5103660000000 1.0
C      1  0.5006960000000  0.5317340000000  0.5509070000000 1.0
C      1  0.4814230000000  0.4338400000000  0.4759940000000 1.0
C      1  0.4777940000000  0.4576280000000  0.5078740000000 1.0
C      1  0.4498460000000  0.5224860000000  0.5185130000000 1.0
C      1  0.5035360000000  0.4727880000000  0.4148630000000 1.0
C      1  0.4432700000000  0.4724900000000  0.4452730000000 1.0
C      1  0.5257120000000  0.5132810000000  0.4452490000000 1.0
C      1  0.5274900000000  0.5096010000000  0.5030370000000 1.0
C      1  0.4783360000000  0.5220630000000  0.4820750000000 1.0
C      1  0.5394340000000  0.5166970000000  0.5809330000000 1.0
C      1  0.4988030000000  0.5022620000000  0.4548150000000 1.0
C      1  0.5003880000000  0.5575690000000  0.4412260000000 1.0
C      1  0.5496410000000  0.4746300000000  0.4695480000000 1.0
C      1  0.5504950000000  0.4875210000000  0.5613270000000 1.0
C      1  0.4704170000000  0.4620130000000  0.5468040000000 1.0
C      1  0.5581610000000  0.5682410000000  0.4836650000000 1.0
C      1  0.5555940000000  0.4715010000000  0.5220070000000 1.0
C      1  0.4881850000000  0.4371580000000  0.5403190000000 1.0
C      1  0.5368840000000  0.5152190000000  0.5470580000000 1.0
C      1  0.5496350000000  0.4418160000000  0.5068250000000 1.0
C      1  0.4485670000000  0.5111030000000  0.4860720000000 1.0
C      1  0.4288830000000  0.4913520000000  0.5328570000000 1.0
C      1  0.4724150000000  0.5474380000000  0.4398000000000 1.0
C      1  0.5817030000000  0.5182880000000  0.4977240000000 1.0
C      1  0.5245310000000  0.4821150000000  0.4316240000000 1.0
C      1  0.4451330000000  0.5033930000000  0.4559700000000 1.0
C      1  0.4837860000000  0.5663490000000  0.5191130000000 1.0
C      1  0.4936420000000  0.4791880000000  0.5288510000000 1.0
C      1  0.4699630000000  0.5220780000000  0.5459870000000 1.0
C      1  0.4393610000000  0.4578170000000  0.4973300000000 1.0
C      1  0.5225990000000  0.4505240000000  0.5139060000000 1.0
C      1  0.5575300000000  0.5473960000000  0.4627070000000 1.0
C      1  0.4767280000000  0.5553810000000  0.4705040000000 1.0
C      1  0.4624680000000  0.5794230000000  0.4767570000000 1.0
C      1  0.5098370000000  0.5169250000000  0.5763840000000 1.0
C      1  0.4435770000000  0.4849260000000  0.5071880000000 1.0
C      1  0.5661640000000  0.5223950000000  0.4722090000000 1.0
C      1  0.5269520000000  0.5450040000000  0.4520030000000 1.0
C      1  0.4193030000000  0.5190610000000  0.5324720000000 1.0
C      1  0.5424940000000  0.5034230000000  0.4731360000000 1.0
C      1  0.5732680000000  0.4741790000000  0.5481860000000 1.0
C      1  0.4721110000000  0.4497500000000  0.4472830000000 1.0
C      1  0.5084320000000  0.4513020000000  0.4649410000000 1.0
C      1  0.5308430000000  0.4630260000000  0.4520430000000 1.0
C      1  0.5250400000000  0.5546810000000  0.4845420000000 1.0
C      1  0.5012850000000  0.4971080000000  0.4853230000000 1.0
C      1  0.4738990000000  0.4974090000000  0.4396690000000 1.0
C      1  0.4994480000000  0.5207430000000  0.5187430000000 1.0
C      1  0.4958270000000  0.5469100000000  0.4973340000000 1.0
C      1  0.4669440000000  0.5539060000000  0.5363220000000 1.0
C      1  0.5266470000000  0.4879070000000  0.5292290000000 1.0
C      1  0.5636740000000  0.4634140000000  0.4899190000000 1.0
C      1  0.5039280000000  0.4665340000000  0.4923720000000 1.0
C      1  0.5545760000000  0.5558840000000  0.5109880000000 1.0
C      1  0.4790940000000  0.4712380000000  0.4275030000000 1.0
C      1  0.4465850000000  0.4508520000000  0.4668100000000 1.0
C      1  0.4738650000000  0.4988320000000  0.5140310000000 1.0
C      1  0.5208570000000  0.4729860000000  0.5592370000000 1.0
C      1  0.5247440000000  0.5670820000000  0.5162220000000 1.0
END
