TITL C-2848506-1665-525 -0.000603146392903491 125000 -344.328477697566 0 0 65 (C1) n - 1
REM
REM in /home/bkarasulu/work/CARBON/AIRSS/Generating-Clusters/AIREBO/with-SteepDescent/Only-C1/SD-CG-opt/Try1-1.4A-POS3A/HFTN-CG
REM
REM
REM
REM
REM
REM ./C.cell (11c1c37f851c82e70ff6c80c92926a4b)
REM
REM compiler GCC version 9.2.1 20190827 (Red Hat 9.2.1-1)
REM options -cpp -mtune=generic -march=x86-64 -g -O0 -fpre-include=/usr/include/finclude/math-vector-fortran.h
REM seed -1388086053 -1258309794 -1160215505 2055905047 -2086713396 -84628725 -641286258 -247041689 -1346401747 -380256403 1135367895 -224201445 -1648706392 -1605266429 -1700840568 -1715752346 -182357826 250192880 -280909787 600150903 -1429319146 -1797457997 1944801059 -1182076521 -1459108307 28318752 -1921481976 1991112936 476373940 -798217083 1009896912 1315382212 -791189427
REM
CELL 1.54180   50.00000   50.00000   50.00000   90.00000   90.00000   90.00000
LATT -1
SFAC C  
C      1  0.5127290000000  0.4847080000000  0.5650620000000 1.0
C      1  0.5514570000000  0.4763330000000  0.4481860000000 1.0
C      1  0.5367410000000  0.4570330000000  0.4642350000000 1.0
C      1  0.4454360000000  0.5224350000000  0.5419100000000 1.0
C      1  0.4659220000000  0.5042250000000  0.5028380000000 1.0
C      1  0.5505510000000  0.4495690000000  0.5265520000000 1.0
C      1  0.4917370000000  0.4713310000000  0.4412220000000 1.0
C      1  0.5503340000000  0.4863120000000  0.4912890000000 1.0
C      1  0.4259660000000  0.4781210000000  0.4808720000000 1.0
C      1  0.4729950000000  0.4236690000000  0.4683820000000 1.0
C      1  0.5600300000000  0.4865380000000  0.5427390000000 1.0
C      1  0.5427000000000  0.4553370000000  0.4977840000000 1.0
C      1  0.5108660000000  0.5419220000000  0.5504870000000 1.0
C      1  0.4833780000000  0.5668270000000  0.5141250000000 1.0
C      1  0.5212350000000  0.5129650000000  0.4382170000000 1.0
C      1  0.4255850000000  0.5390910000000  0.5197930000000 1.0
C      1  0.5749960000000  0.5506790000000  0.5213940000000 1.0
C      1  0.4819180000000  0.5082960000000  0.4757760000000 1.0
C      1  0.5291520000000  0.4338340000000  0.5443790000000 1.0
C      1  0.5002400000000  0.4250930000000  0.4646220000000 1.0
C      1  0.5350590000000  0.5034470000000  0.5504580000000 1.0
C      1  0.5066580000000  0.5185430000000  0.5078320000000 1.0
C      1  0.5312520000000  0.5273980000000  0.5274740000000 1.0
C      1  0.4938140000000  0.4637300000000  0.4927790000000 1.0
C      1  0.5809540000000  0.5261830000000  0.4783410000000 1.0
C      1  0.5238650000000  0.5228590000000  0.4822840000000 1.0
C      1  0.4983430000000  0.4958510000000  0.4233530000000 1.0
C      1  0.5657110000000  0.5527160000000  0.4652940000000 1.0
C      1  0.5021490000000  0.5637530000000  0.4883550000000 1.0
C      1  0.4560610000000  0.4598860000000  0.5433640000000 1.0
C      1  0.4654040000000  0.5056050000000  0.5620630000000 1.0
C      1  0.5479430000000  0.5378170000000  0.4885930000000 1.0
C      1  0.4642530000000  0.4469710000000  0.4915530000000 1.0
C      1  0.4235710000000  0.5060140000000  0.5244300000000 1.0
C      1  0.4630280000000  0.4805830000000  0.4518740000000 1.0
C      1  0.4973510000000  0.5144800000000  0.5576240000000 1.0
C      1  0.4480030000000  0.4602690000000  0.5168720000000 1.0
C      1  0.5482700000000  0.5757200000000  0.4705420000000 1.0
C      1  0.5379510000000  0.4641200000000  0.5549310000000 1.0
C      1  0.4979190000000  0.5382090000000  0.4698820000000 1.0
C      1  0.5290080000000  0.5726660000000  0.4917560000000 1.0
C      1  0.5119650000000  0.4497560000000  0.4539890000000 1.0
C      1  0.4595720000000  0.5135230000000  0.4521970000000 1.0
C      1  0.4785420000000  0.5356580000000  0.5046500000000 1.0
C      1  0.4308930000000  0.5445250000000  0.4864060000000 1.0
C      1  0.4975380000000  0.5648110000000  0.5421090000000 1.0
C      1  0.5437080000000  0.5569540000000  0.5161580000000 1.0
C      1  0.4831720000000  0.4781530000000  0.5495680000000 1.0
C      1  0.4372160000000  0.5330490000000  0.4624610000000 1.0
C      1  0.4476120000000  0.4646160000000  0.4686960000000 1.0
C      1  0.5794770000000  0.5254660000000  0.5097130000000 1.0
C      1  0.5747050000000  0.4956530000000  0.4743420000000 1.0
C      1  0.5303710000000  0.4964600000000  0.4657030000000 1.0
C      1  0.4874320000000  0.4259570000000  0.5072030000000 1.0
C      1  0.4993640000000  0.4836010000000  0.4711230000000 1.0
C      1  0.4964960000000  0.4609330000000  0.5243050000000 1.0
C      1  0.5154380000000  0.4377770000000  0.4919590000000 1.0
C      1  0.4858110000000  0.5040330000000  0.5276750000000 1.0
C      1  0.4395260000000  0.4884480000000  0.5063320000000 1.0
C      1  0.4478710000000  0.5286040000000  0.5754900000000 1.0
C      1  0.5043060000000  0.4335480000000  0.5321750000000 1.0
C      1  0.4003270000000  0.4822100000000  0.4731170000000 1.0
C      1  0.4528640000000  0.5545710000000  0.5084760000000 1.0
C      1  0.4892550000000  0.5243690000000  0.4400410000000 1.0
C      1  0.5559990000000  0.5061850000000  0.5165940000000 1.0
END
