TITL C-2848499-1157-447 -0.000832283815218472 125000 -768.774339036633 0 0 145 (C1) n - 1
REM
REM in /home/bkarasulu/work/CARBON/AIRSS/Generating-Clusters/AIREBO/with-SteepDescent/Only-C1/SD-CG-opt/Try1-1.4A-POS3A/HFTN-CG
REM
REM
REM
REM
REM
REM ./C.cell (11c1c37f851c82e70ff6c80c92926a4b)
REM
REM compiler GCC version 9.2.1 20190827 (Red Hat 9.2.1-1)
REM options -cpp -mtune=generic -march=x86-64 -g -O0 -fpre-include=/usr/include/finclude/math-vector-fortran.h
REM seed -270229455 -145620520 1260760434 -908786609 606326215 -476369727 -805191384 1777790781 -666232653 -1769061341 -1656736479 151873998 -1257562597 156426019 -330834555 1071106872 1961941093 -840962602 2106013177 -879497029 1784562515 -693431812 -464972872 1893291122 -2044238593 186967113 624615973 42050629 1376494880 656880380 -1162615375 247204975 1360222449
REM
CELL 1.54180   50.00000   50.00000   50.00000   90.00000   90.00000   90.00000
LATT -1
SFAC C  
C      1  0.5459760000000  0.5338110000000  0.5122110000000 1.0
C      1  0.4967780000000  0.4508320000000  0.4811210000000 1.0
C      1  0.4580560000000  0.4599710000000  0.5259230000000 1.0
C      1  0.4970320000000  0.5079030000000  0.4709900000000 1.0
C      1  0.5343260000000  0.5787730000000  0.5268460000000 1.0
C      1  0.5777210000000  0.5370690000000  0.5360530000000 1.0
C      1  0.5773690000000  0.5245550000000  0.5669880000000 1.0
C      1  0.5149120000000  0.5684000000000  0.5845740000000 1.0
C      1  0.4975750000000  0.5861740000000  0.4439490000000 1.0
C      1  0.5421770000000  0.5356480000000  0.4811220000000 1.0
C      1  0.5183600000000  0.4820360000000  0.4651460000000 1.0
C      1  0.4176310000000  0.4345740000000  0.5032850000000 1.0
C      1  0.4481330000000  0.5417870000000  0.5509970000000 1.0
C      1  0.4882180000000  0.5156680000000  0.4310620000000 1.0
C      1  0.4215740000000  0.5270000000000  0.5664730000000 1.0
C      1  0.5534280000000  0.5191700000000  0.5805470000000 1.0
C      1  0.4812290000000  0.3993850000000  0.4622890000000 1.0
C      1  0.4492100000000  0.5644490000000  0.4437420000000 1.0
C      1  0.4441350000000  0.4346350000000  0.4601340000000 1.0
C      1  0.4678260000000  0.4435660000000  0.4977650000000 1.0
C      1  0.5255840000000  0.4502180000000  0.5603760000000 1.0
C      1  0.4726060000000  0.3896290000000  0.4855300000000 1.0
C      1  0.5231610000000  0.4948880000000  0.6027580000000 1.0
C      1  0.5405250000000  0.5962590000000  0.4986540000000 1.0
C      1  0.5392230000000  0.5046820000000  0.3619720000000 1.0
C      1  0.5182260000000  0.5113800000000  0.5434160000000 1.0
C      1  0.5970190000000  0.4730150000000  0.5269130000000 1.0
C      1  0.5638540000000  0.5655970000000  0.5342130000000 1.0
C      1  0.5525930000000  0.4562040000000  0.4157140000000 1.0
C      1  0.5725700000000  0.4890630000000  0.4564030000000 1.0
C      1  0.4890070000000  0.4478390000000  0.5331410000000 1.0
C      1  0.4474470000000  0.4459070000000  0.5550170000000 1.0
C      1  0.4465500000000  0.4674020000000  0.4512230000000 1.0
C      1  0.5295470000000  0.4712870000000  0.4129820000000 1.0
C      1  0.4162890000000  0.5028110000000  0.5494750000000 1.0
C      1  0.5836880000000  0.4959310000000  0.4314790000000 1.0
C      1  0.5158050000000  0.4309690000000  0.5251410000000 1.0
C      1  0.4554450000000  0.5832660000000  0.4628660000000 1.0
C      1  0.4892870000000  0.4526260000000  0.4273020000000 1.0
C      1  0.5964980000000  0.4601640000000  0.4814500000000 1.0
C      1  0.5044880000000  0.4239820000000  0.4617130000000 1.0
C      1  0.4933880000000  0.6200990000000  0.5377260000000 1.0
C      1  0.5048120000000  0.4603760000000  0.4056040000000 1.0
C      1  0.5551360000000  0.5104810000000  0.4676150000000 1.0
C      1  0.4176670000000  0.5610650000000  0.4428140000000 1.0
C      1  0.4759110000000  0.5435860000000  0.4232070000000 1.0
C      1  0.4456420000000  0.5756890000000  0.5502440000000 1.0
C      1  0.4113660000000  0.5436510000000  0.5122190000000 1.0
C      1  0.4917410000000  0.5101550000000  0.5031750000000 1.0
C      1  0.5461950000000  0.4719780000000  0.5141890000000 1.0
C      1  0.4508580000000  0.5380850000000  0.4767980000000 1.0
C      1  0.4555130000000  0.5236910000000  0.3952750000000 1.0
C      1  0.5044920000000  0.4816300000000  0.5658310000000 1.0
C      1  0.5303020000000  0.4795390000000  0.5437340000000 1.0
C      1  0.4664800000000  0.4023970000000  0.5322740000000 1.0
C      1  0.4221570000000  0.5379780000000  0.4661340000000 1.0
C      1  0.4888840000000  0.3863430000000  0.5358950000000 1.0
C      1  0.5421720000000  0.4191940000000  0.5420650000000 1.0
C      1  0.5166210000000  0.5474950000000  0.5094270000000 1.0
C      1  0.3844950000000  0.5132710000000  0.4851580000000 1.0
C      1  0.5776720000000  0.4991820000000  0.5495140000000 1.0
C      1  0.5635550000000  0.4420170000000  0.5564640000000 1.0
C      1  0.5816270000000  0.4225550000000  0.4372820000000 1.0
C      1  0.5506520000000  0.5165430000000  0.5383540000000 1.0
C      1  0.3936830000000  0.4877130000000  0.4869060000000 1.0
C      1  0.5237460000000  0.5046750000000  0.3822940000000 1.0
C      1  0.4857520000000  0.5118060000000  0.5327630000000 1.0
C      1  0.5103370000000  0.5356200000000  0.4787820000000 1.0
C      1  0.5086380000000  0.5197430000000  0.5923610000000 1.0
C      1  0.5040760000000  0.4726470000000  0.5061710000000 1.0
C      1  0.4968140000000  0.5494640000000  0.5934870000000 1.0
C      1  0.6002150000000  0.5272040000000  0.5125300000000 1.0
C      1  0.4689270000000  0.4927130000000  0.4470960000000 1.0
C      1  0.6161440000000  0.4690500000000  0.5496990000000 1.0
C      1  0.5484820000000  0.4915490000000  0.5897640000000 1.0
C      1  0.5814430000000  0.5017910000000  0.5176530000000 1.0
C      1  0.4260970000000  0.4576460000000  0.5145360000000 1.0
C      1  0.5361510000000  0.4362930000000  0.4596260000000 1.0
C      1  0.5550730000000  0.5905230000000  0.4763750000000 1.0
C      1  0.4023730000000  0.5344490000000  0.4876090000000 1.0
C      1  0.4303940000000  0.5246580000000  0.5275640000000 1.0
C      1  0.5224240000000  0.4351960000000  0.4970720000000 1.0
C      1  0.5273860000000  0.5313130000000  0.5672620000000 1.0
C      1  0.4783160000000  0.4833030000000  0.5878930000000 1.0
C      1  0.5231880000000  0.4943020000000  0.4337330000000 1.0
C      1  0.5512740000000  0.4668450000000  0.5752000000000 1.0
C      1  0.5118500000000  0.5791250000000  0.5010500000000 1.0
C      1  0.5674040000000  0.5140420000000  0.4179500000000 1.0
C      1  0.4843750000000  0.5792590000000  0.4810130000000 1.0
C      1  0.5721360000000  0.4235550000000  0.5289600000000 1.0
C      1  0.4321690000000  0.4762610000000  0.5537980000000 1.0
C      1  0.4218890000000  0.4817360000000  0.4957810000000 1.0
C      1  0.5389660000000  0.4611820000000  0.4826530000000 1.0
C      1  0.5261350000000  0.5620390000000  0.5553020000000 1.0
C      1  0.5708250000000  0.4662650000000  0.4716510000000 1.0
C      1  0.4629760000000  0.5093700000000  0.4761370000000 1.0
C      1  0.5417280000000  0.5544610000000  0.4375110000000 1.0
C      1  0.4459320000000  0.5563940000000  0.6022780000000 1.0
C      1  0.4751110000000  0.4823480000000  0.4928360000000 1.0
C      1  0.4777830000000  0.5711970000000  0.5596040000000 1.0
C      1  0.4567280000000  0.4946090000000  0.5283900000000 1.0
C      1  0.4268630000000  0.5214470000000  0.4391890000000 1.0
C      1  0.5325280000000  0.4106280000000  0.4376050000000 1.0
C      1  0.5424470000000  0.5204620000000  0.4376410000000 1.0
C      1  0.4498090000000  0.4737700000000  0.5833520000000 1.0
C      1  0.4454050000000  0.5804650000000  0.5226380000000 1.0
C      1  0.5124140000000  0.5363620000000  0.4390060000000 1.0
C      1  0.4736230000000  0.5065340000000  0.3951160000000 1.0
C      1  0.5330600000000  0.4083380000000  0.4853110000000 1.0
C      1  0.4602950000000  0.4111710000000  0.5037690000000 1.0
C      1  0.4656300000000  0.5471700000000  0.5800100000000 1.0
C      1  0.4768390000000  0.5158010000000  0.5809750000000 1.0
C      1  0.5572390000000  0.5840000000000  0.4440960000000 1.0
C      1  0.5214770000000  0.4998950000000  0.5011370000000 1.0
C      1  0.5598430000000  0.4392620000000  0.4367290000000 1.0
C      1  0.6083720000000  0.4789850000000  0.4990390000000 1.0
C      1  0.4423420000000  0.5046470000000  0.5027660000000 1.0
C      1  0.4993130000000  0.5575080000000  0.4595660000000 1.0
C      1  0.5060160000000  0.4719650000000  0.5983970000000 1.0
C      1  0.4359110000000  0.4233140000000  0.4852540000000 1.0
C      1  0.4981490000000  0.4301330000000  0.5606920000000 1.0
C      1  0.4896300000000  0.4693080000000  0.4531320000000 1.0
C      1  0.4884840000000  0.5673880000000  0.4223860000000 1.0
C      1  0.5712490000000  0.4571400000000  0.5270010000000 1.0
C      1  0.4915550000000  0.4785950000000  0.5372560000000 1.0
C      1  0.6159740000000  0.5067140000000  0.4981020000000 1.0
C      1  0.4646110000000  0.5567640000000  0.4971320000000 1.0
C      1  0.4943430000000  0.6074370000000  0.4637190000000 1.0
C      1  0.4429920000000  0.5403040000000  0.4205320000000 1.0
C      1  0.4171890000000  0.5709230000000  0.5149650000000 1.0
C      1  0.5048630000000  0.5017320000000  0.4060120000000 1.0
C      1  0.4870480000000  0.4265050000000  0.4343730000000 1.0
C      1  0.4291060000000  0.4496790000000  0.5833970000000 1.0
C      1  0.4990540000000  0.5619180000000  0.5347410000000 1.0
C      1  0.4660170000000  0.4220500000000  0.5526300000000 1.0
C      1  0.4466700000000  0.5852840000000  0.4925020000000 1.0
C      1  0.4484490000000  0.4672230000000  0.4829000000000 1.0
C      1  0.4724000000000  0.5426160000000  0.5271920000000 1.0
C      1  0.4602910000000  0.4164610000000  0.4448350000000 1.0
C      1  0.5532420000000  0.5025350000000  0.5009870000000 1.0
C      1  0.4297060000000  0.4940920000000  0.4400770000000 1.0
C      1  0.5131120000000  0.4034620000000  0.5458230000000 1.0
C      1  0.5544210000000  0.5591560000000  0.4674400000000 1.0
C      1  0.4912740000000  0.5947670000000  0.5389400000000 1.0
C      1  0.4553850000000  0.5002120000000  0.5603980000000 1.0
END
