TITL C-2847948-6138-223 -0.00106064031193316 125000 -564.935015326459 0 0 102 (C1) n - 1
REM
REM in /home/bkarasulu/work/CARBON/AIRSS/Generating-Clusters/AIREBO/with-SteepDescent/Only-C1/SD-CG-opt/Try1-1.4A-POS3A/HFTN-CG
REM
REM
REM
REM
REM
REM ./C.cell (11c1c37f851c82e70ff6c80c92926a4b)
REM
REM compiler GCC version 9.2.1 20190827 (Red Hat 9.2.1-1)
REM options -cpp -mtune=generic -march=x86-64 -g -O0 -fpre-include=/usr/include/finclude/math-vector-fortran.h
REM seed 1236190160 1253691049 1966624509 1386124052 -897143116 844055263 28280202 -1540856523 956692768 -1182490353 1091842368 113340010 -1251872222 -1318419748 -1202562007 800250865 385299826 774382146 996405467 2032076403 -1111061461 1849964113 -1737875227 -925898935 -1356370595 1885604108 -1662490656 -1989181303 1653241506 -250929651 -1577778777 -260302610 -2115555029
REM
CELL 1.54180   50.00000   50.00000   50.00000   90.00000   90.00000   90.00000
LATT -1
SFAC C  
C      1  0.4782100000000  0.5387360000000  0.4510440000000 1.0
C      1  0.4629810000000  0.4524230000000  0.4854820000000 1.0
C      1  0.5701510000000  0.5697840000000  0.4937690000000 1.0
C      1  0.4721550000000  0.4414970000000  0.5360710000000 1.0
C      1  0.4787790000000  0.4477620000000  0.4616510000000 1.0
C      1  0.5656940000000  0.5554050000000  0.5180580000000 1.0
C      1  0.5453790000000  0.4191680000000  0.4369960000000 1.0
C      1  0.4538450000000  0.5072390000000  0.5552950000000 1.0
C      1  0.4917470000000  0.4064960000000  0.4981370000000 1.0
C      1  0.4505060000000  0.5673450000000  0.4752960000000 1.0
C      1  0.4552830000000  0.5268510000000  0.4703410000000 1.0
C      1  0.4947220000000  0.4674260000000  0.4530740000000 1.0
C      1  0.4169120000000  0.5105000000000  0.4799020000000 1.0
C      1  0.4987910000000  0.5302390000000  0.5709840000000 1.0
C      1  0.4770190000000  0.5910210000000  0.5101590000000 1.0
C      1  0.4921680000000  0.5797780000000  0.5581100000000 1.0
C      1  0.4735110000000  0.5105580000000  0.5772770000000 1.0
C      1  0.4515670000000  0.5585750000000  0.5403510000000 1.0
C      1  0.5410070000000  0.4838340000000  0.4684080000000 1.0
C      1  0.4908730000000  0.5630150000000  0.4463850000000 1.0
C      1  0.4195490000000  0.4397490000000  0.4965600000000 1.0
C      1  0.5215050000000  0.3937330000000  0.5091810000000 1.0
C      1  0.5252430000000  0.4662240000000  0.4435700000000 1.0
C      1  0.5186060000000  0.4847930000000  0.5014250000000 1.0
C      1  0.4627700000000  0.4893650000000  0.5085570000000 1.0
C      1  0.5199370000000  0.5749680000000  0.5736470000000 1.0
C      1  0.4349800000000  0.5573950000000  0.4544860000000 1.0
C      1  0.5637520000000  0.5275950000000  0.5177620000000 1.0
C      1  0.5890270000000  0.4950090000000  0.5111020000000 1.0
C      1  0.3902860000000  0.5128440000000  0.4806560000000 1.0
C      1  0.5868790000000  0.4889440000000  0.4840280000000 1.0
C      1  0.5411570000000  0.4889690000000  0.4239210000000 1.0
C      1  0.4778000000000  0.4589460000000  0.5109270000000 1.0
C      1  0.5042510000000  0.5965780000000  0.5201640000000 1.0
C      1  0.4688210000000  0.5056440000000  0.4166740000000 1.0
C      1  0.5387810000000  0.5583320000000  0.5602830000000 1.0
C      1  0.5323500000000  0.5260750000000  0.5671740000000 1.0
C      1  0.4818570000000  0.4137590000000  0.5298520000000 1.0
C      1  0.5515820000000  0.5138920000000  0.5439120000000 1.0
C      1  0.5625370000000  0.4468300000000  0.5465620000000 1.0
C      1  0.4295850000000  0.5150580000000  0.5347270000000 1.0
C      1  0.4522590000000  0.5443070000000  0.4960690000000 1.0
C      1  0.4178900000000  0.4648230000000  0.5081820000000 1.0
C      1  0.5784460000000  0.4959680000000  0.5372960000000 1.0
C      1  0.4725290000000  0.4161860000000  0.4726600000000 1.0
C      1  0.4973440000000  0.5804860000000  0.4678220000000 1.0
C      1  0.4152290000000  0.4921310000000  0.4075090000000 1.0
C      1  0.4852260000000  0.5141180000000  0.4391100000000 1.0
C      1  0.4982220000000  0.4851470000000  0.5484430000000 1.0
C      1  0.5884660000000  0.5013760000000  0.4162960000000 1.0
C      1  0.4652690000000  0.4838430000000  0.5419870000000 1.0
C      1  0.4387980000000  0.5106890000000  0.4239160000000 1.0
C      1  0.4826850000000  0.5648200000000  0.5310860000000 1.0
C      1  0.5220890000000  0.5150350000000  0.5172680000000 1.0
C      1  0.5223690000000  0.5783530000000  0.4821210000000 1.0
C      1  0.4494490000000  0.4505430000000  0.5588420000000 1.0
C      1  0.5139280000000  0.4516460000000  0.5778530000000 1.0
C      1  0.5424940000000  0.4652510000000  0.5266780000000 1.0
C      1  0.5123280000000  0.4797410000000  0.5883630000000 1.0
C      1  0.4615360000000  0.4963390000000  0.4769890000000 1.0
C      1  0.4292760000000  0.4951100000000  0.5074270000000 1.0
C      1  0.4043400000000  0.5158010000000  0.5473680000000 1.0
C      1  0.5309360000000  0.5148030000000  0.4783630000000 1.0
C      1  0.4302330000000  0.5237760000000  0.4515330000000 1.0
C      1  0.5078670000000  0.5421090000000  0.5339700000000 1.0
C      1  0.4906620000000  0.5149390000000  0.5417220000000 1.0
C      1  0.5305100000000  0.5211010000000  0.3885550000000 1.0
C      1  0.4997100000000  0.5040000000000  0.4860180000000 1.0
C      1  0.4439820000000  0.4302930000000  0.4866450000000 1.0
C      1  0.5441250000000  0.4648490000000  0.4938530000000 1.0
C      1  0.4938880000000  0.5581810000000  0.5812980000000 1.0
C      1  0.5083540000000  0.4553360000000  0.5079730000000 1.0
C      1  0.5501520000000  0.5782130000000  0.4762120000000 1.0
C      1  0.5419180000000  0.4071520000000  0.4958050000000 1.0
C      1  0.5303540000000  0.4362530000000  0.4894190000000 1.0
C      1  0.4870460000000  0.4938950000000  0.4602700000000 1.0
C      1  0.5187890000000  0.5675050000000  0.5141500000000 1.0
C      1  0.4634320000000  0.4622440000000  0.5830640000000 1.0
C      1  0.5279630000000  0.4340560000000  0.4496690000000 1.0
C      1  0.4938840000000  0.4917030000000  0.4071590000000 1.0
C      1  0.5449670000000  0.5660170000000  0.5337970000000 1.0
C      1  0.6075390000000  0.5107750000000  0.4009730000000 1.0
C      1  0.5623210000000  0.4785940000000  0.5587040000000 1.0
C      1  0.4384290000000  0.5417510000000  0.5224810000000 1.0
C      1  0.4822570000000  0.5447590000000  0.5036270000000 1.0
C      1  0.5359530000000  0.4490070000000  0.5626270000000 1.0
C      1  0.5705180000000  0.4894400000000  0.4608090000000 1.0
C      1  0.4827140000000  0.5147780000000  0.5114500000000 1.0
C      1  0.4193410000000  0.5203390000000  0.3977530000000 1.0
C      1  0.5234770000000  0.5020880000000  0.4063010000000 1.0
C      1  0.5587980000000  0.5155160000000  0.4941790000000 1.0
C      1  0.5393790000000  0.4943910000000  0.5773740000000 1.0
C      1  0.5294040000000  0.4899780000000  0.5390610000000 1.0
C      1  0.5244630000000  0.4379120000000  0.5324600000000 1.0
C      1  0.5677360000000  0.4940790000000  0.4329130000000 1.0
C      1  0.5147640000000  0.5396750000000  0.4950090000000 1.0
C      1  0.4829220000000  0.4861430000000  0.5884390000000 1.0
C      1  0.4884160000000  0.4574520000000  0.5611280000000 1.0
C      1  0.5086980000000  0.4657700000000  0.4138570000000 1.0
C      1  0.4726990000000  0.5854980000000  0.4826660000000 1.0
C      1  0.5120080000000  0.4104610000000  0.5321700000000 1.0
C      1  0.5066670000000  0.4211010000000  0.4712960000000 1.0
END
