TITL C-2848502-4955-477 0.000740969055454628 125000 -1096.92319320494 0 0 199 (C1) n - 1
REM
REM in /home/bkarasulu/work/CARBON/AIRSS/Generating-Clusters/AIREBO/with-SteepDescent/Only-C1/SD-CG-opt/Try1-1.4A-POS3A/HFTN-CG
REM
REM
REM
REM
REM
REM ./C.cell (11c1c37f851c82e70ff6c80c92926a4b)
REM
REM compiler GCC version 9.2.1 20190827 (Red Hat 9.2.1-1)
REM options -cpp -mtune=generic -march=x86-64 -g -O0 -fpre-include=/usr/include/finclude/math-vector-fortran.h
REM seed 455499392 1640446106 614969779 1609382813 1964742316 -1437098069 -1307507818 895792363 1255051865 1173236278 850554888 402401023 -505887839 -404275542 674272499 140431594 -1639861438 -954099363 2080542698 -2095341667 477452962 -742752772 -1937909023 -1889583528 15911363 -665415512 1713870099 931667576 409331664 1366046452 334679497 -910986648 911274506
REM
CELL 1.54180   50.00000   50.00000   50.00000   90.00000   90.00000   90.00000
LATT -1
SFAC C  
C      1  0.5420670000000  0.4193840000000  0.5548000000000 1.0
C      1  0.4913060000000  0.4999320000000  0.5828940000000 1.0
C      1  0.5298880000000  0.5515690000000  0.4504560000000 1.0
C      1  0.5264350000000  0.4233950000000  0.4772350000000 1.0
C      1  0.5859470000000  0.3937830000000  0.5359290000000 1.0
C      1  0.5830140000000  0.4467920000000  0.5739430000000 1.0
C      1  0.5017750000000  0.5065900000000  0.4353070000000 1.0
C      1  0.4757960000000  0.4895060000000  0.4370180000000 1.0
C      1  0.4844320000000  0.4597400000000  0.4342800000000 1.0
C      1  0.5200210000000  0.4003440000000  0.5416660000000 1.0
C      1  0.4085180000000  0.5117750000000  0.4376510000000 1.0
C      1  0.4138630000000  0.5699520000000  0.4755880000000 1.0
C      1  0.4340200000000  0.4928720000000  0.4693160000000 1.0
C      1  0.4242920000000  0.4828130000000  0.5090760000000 1.0
C      1  0.4678110000000  0.4141140000000  0.4956960000000 1.0
C      1  0.4605240000000  0.5270160000000  0.5468130000000 1.0
C      1  0.5130920000000  0.5242380000000  0.5598520000000 1.0
C      1  0.5316680000000  0.5785490000000  0.4187780000000 1.0
C      1  0.4418240000000  0.5716630000000  0.4569590000000 1.0
C      1  0.5912680000000  0.4119760000000  0.5167400000000 1.0
C      1  0.5309980000000  0.5459150000000  0.4179870000000 1.0
C      1  0.5663750000000  0.4896530000000  0.5941300000000 1.0
C      1  0.4275960000000  0.5350010000000  0.5451770000000 1.0
C      1  0.3764130000000  0.5049810000000  0.4975480000000 1.0
C      1  0.4808460000000  0.5268280000000  0.5688330000000 1.0
C      1  0.5574630000000  0.5623250000000  0.5072010000000 1.0
C      1  0.5794900000000  0.4413770000000  0.5233150000000 1.0
C      1  0.4790370000000  0.5441070000000  0.4810230000000 1.0
C      1  0.4566390000000  0.6058140000000  0.4711500000000 1.0
C      1  0.3762910000000  0.5326450000000  0.5002340000000 1.0
C      1  0.5036670000000  0.6165320000000  0.4696000000000 1.0
C      1  0.5453970000000  0.5901910000000  0.5225200000000 1.0
C      1  0.5010680000000  0.4534510000000  0.5503080000000 1.0
C      1  0.5200500000000  0.4257510000000  0.5884010000000 1.0
C      1  0.4498920000000  0.5545410000000  0.4832740000000 1.0
C      1  0.6004460000000  0.5576430000000  0.4766350000000 1.0
C      1  0.4679960000000  0.5175240000000  0.4532970000000 1.0
C      1  0.5964000000000  0.5332430000000  0.4992150000000 1.0
C      1  0.4479670000000  0.4987160000000  0.5420930000000 1.0
C      1  0.4228740000000  0.5158810000000  0.5085410000000 1.0
C      1  0.4537270000000  0.4724160000000  0.5101680000000 1.0
C      1  0.5125490000000  0.4562590000000  0.4175510000000 1.0
C      1  0.4472320000000  0.5789060000000  0.5444070000000 1.0
C      1  0.4317240000000  0.4529480000000  0.4354470000000 1.0
C      1  0.4512510000000  0.5379810000000  0.4375640000000 1.0
C      1  0.4752590000000  0.4665940000000  0.5681540000000 1.0
C      1  0.5741440000000  0.4249280000000  0.4914890000000 1.0
C      1  0.5178120000000  0.4830610000000  0.4801620000000 1.0
C      1  0.4959890000000  0.4153180000000  0.4018360000000 1.0
C      1  0.4886580000000  0.4685990000000  0.4838360000000 1.0
C      1  0.4784640000000  0.5201690000000  0.3891870000000 1.0
C      1  0.4810600000000  0.6167350000000  0.4521950000000 1.0
C      1  0.4306080000000  0.5371040000000  0.5784200000000 1.0
C      1  0.4800310000000  0.4147910000000  0.5559430000000 1.0
C      1  0.4703810000000  0.4870830000000  0.3890460000000 1.0
C      1  0.5782110000000  0.5523000000000  0.5543950000000 1.0
C      1  0.4400260000000  0.4458140000000  0.5729910000000 1.0
C      1  0.5388940000000  0.5896410000000  0.4425300000000 1.0
C      1  0.5438620000000  0.5151020000000  0.5962240000000 1.0
C      1  0.4441360000000  0.5271720000000  0.3999050000000 1.0
C      1  0.5389430000000  0.4796570000000  0.5265020000000 1.0
C      1  0.5139970000000  0.5727870000000  0.4999030000000 1.0
C      1  0.5236560000000  0.4343000000000  0.4388650000000 1.0
C      1  0.4518940000000  0.4403720000000  0.5212100000000 1.0
C      1  0.6067740000000  0.5749820000000  0.5052000000000 1.0
C      1  0.5252410000000  0.4997340000000  0.4532260000000 1.0
C      1  0.5363630000000  0.4506290000000  0.4662690000000 1.0
C      1  0.5302560000000  0.4791740000000  0.4129310000000 1.0
C      1  0.4143670000000  0.5938300000000  0.4927660000000 1.0
C      1  0.4946220000000  0.4284910000000  0.5289920000000 1.0
C      1  0.5037150000000  0.5278110000000  0.4088110000000 1.0
C      1  0.4306560000000  0.4199130000000  0.5093190000000 1.0
C      1  0.4442740000000  0.6065580000000  0.4998100000000 1.0
C      1  0.4813620000000  0.5809690000000  0.5048590000000 1.0
C      1  0.4268370000000  0.4703920000000  0.5759470000000 1.0
C      1  0.6190040000000  0.4814590000000  0.5032570000000 1.0
C      1  0.5288630000000  0.5471620000000  0.5776070000000 1.0
C      1  0.5736370000000  0.4593740000000  0.4342420000000 1.0
C      1  0.4506360000000  0.4991280000000  0.4076040000000 1.0
C      1  0.4672030000000  0.6128280000000  0.5241830000000 1.0
C      1  0.4930920000000  0.4180130000000  0.4732930000000 1.0
C      1  0.5966160000000  0.4641360000000  0.5907580000000 1.0
C      1  0.5331660000000  0.5192860000000  0.4976340000000 1.0
C      1  0.5358750000000  0.5261230000000  0.4661520000000 1.0
C      1  0.5615800000000  0.5384420000000  0.5807060000000 1.0
C      1  0.4746340000000  0.3801850000000  0.5250830000000 1.0
C      1  0.4929670000000  0.5331260000000  0.6124570000000 1.0
C      1  0.5557910000000  0.5246520000000  0.4203450000000 1.0
C      1  0.4428160000000  0.4912380000000  0.4371270000000 1.0
C      1  0.4067160000000  0.4609950000000  0.4904170000000 1.0
C      1  0.4331200000000  0.4317050000000  0.5474200000000 1.0
C      1  0.5037650000000  0.5121420000000  0.5113040000000 1.0
C      1  0.5191540000000  0.5032770000000  0.5358980000000 1.0
C      1  0.5644860000000  0.5223790000000  0.4531510000000 1.0
C      1  0.4010900000000  0.4920310000000  0.4779420000000 1.0
C      1  0.4095570000000  0.5092240000000  0.5386380000000 1.0
C      1  0.5506070000000  0.4147670000000  0.4458460000000 1.0
C      1  0.5047990000000  0.5671750000000  0.4614120000000 1.0
C      1  0.5680020000000  0.4002670000000  0.5556800000000 1.0
C      1  0.5436730000000  0.4162720000000  0.5000250000000 1.0
C      1  0.4076530000000  0.5414280000000  0.4920480000000 1.0
C      1  0.4639200000000  0.5733370000000  0.3903890000000 1.0
C      1  0.6168680000000  0.5110100000000  0.4926770000000 1.0
C      1  0.5973660000000  0.5865300000000  0.5252880000000 1.0
C      1  0.4072150000000  0.4578220000000  0.4586780000000 1.0
C      1  0.5231840000000  0.5910910000000  0.4724160000000 1.0
C      1  0.4484600000000  0.5746180000000  0.5106920000000 1.0
C      1  0.4519970000000  0.4067150000000  0.5445780000000 1.0
C      1  0.4893310000000  0.5548020000000  0.4236360000000 1.0
C      1  0.5506060000000  0.4697980000000  0.5712870000000 1.0
C      1  0.3929510000000  0.4908080000000  0.5170710000000 1.0
C      1  0.5722820000000  0.5792780000000  0.5399850000000 1.0
C      1  0.4269610000000  0.5141270000000  0.5944720000000 1.0
C      1  0.4734130000000  0.5763690000000  0.4167920000000 1.0
C      1  0.6101550000000  0.4628800000000  0.4864060000000 1.0
C      1  0.5785760000000  0.4905050000000  0.4204770000000 1.0
C      1  0.5772900000000  0.5072250000000  0.4963780000000 1.0
C      1  0.4761530000000  0.3840260000000  0.4855000000000 1.0
C      1  0.4545490000000  0.5207280000000  0.5078600000000 1.0
C      1  0.4613720000000  0.5917250000000  0.4402130000000 1.0
C      1  0.5680960000000  0.4394830000000  0.4612690000000 1.0
C      1  0.4448830000000  0.3900430000000  0.5178000000000 1.0
C      1  0.6087890000000  0.5055600000000  0.5252560000000 1.0
C      1  0.4471590000000  0.5585440000000  0.5866180000000 1.0
C      1  0.5509400000000  0.4377250000000  0.5806650000000 1.0
C      1  0.5036330000000  0.4718550000000  0.5979200000000 1.0
C      1  0.6223100000000  0.5154810000000  0.4638500000000 1.0
C      1  0.5500900000000  0.4933550000000  0.4837340000000 1.0
C      1  0.4994590000000  0.4447490000000  0.5938490000000 1.0
C      1  0.5884070000000  0.4880430000000  0.5452710000000 1.0
C      1  0.4551760000000  0.4543070000000  0.4178080000000 1.0
C      1  0.5866970000000  0.4632370000000  0.4734620000000 1.0
C      1  0.4360670000000  0.4873880000000  0.5960650000000 1.0
C      1  0.4039230000000  0.4327940000000  0.5360170000000 1.0
C      1  0.5291310000000  0.4884080000000  0.5855130000000 1.0
C      1  0.5096480000000  0.4844580000000  0.5588070000000 1.0
C      1  0.3986190000000  0.5225860000000  0.4652130000000 1.0
C      1  0.4710940000000  0.4774610000000  0.5394310000000 1.0
C      1  0.5693220000000  0.5659940000000  0.4814490000000 1.0
C      1  0.4807980000000  0.4437410000000  0.5040010000000 1.0
C      1  0.4766970000000  0.5501120000000  0.5907270000000 1.0
C      1  0.4168620000000  0.5608310000000  0.4402330000000 1.0
C      1  0.5085440000000  0.4052950000000  0.5713220000000 1.0
C      1  0.4734670000000  0.5423340000000  0.5205900000000 1.0
C      1  0.5874400000000  0.4561650000000  0.5467730000000 1.0
C      1  0.6061580000000  0.4955820000000  0.4487360000000 1.0
C      1  0.5074290000000  0.3894510000000  0.4854090000000 1.0
C      1  0.3695690000000  0.5326330000000  0.4597810000000 1.0
C      1  0.5500560000000  0.4836530000000  0.4376890000000 1.0
C      1  0.5338880000000  0.4608890000000  0.4985980000000 1.0
C      1  0.4488800000000  0.4145790000000  0.4605450000000 1.0
C      1  0.4949700000000  0.4425460000000  0.3961980000000 1.0
C      1  0.4986410000000  0.6094500000000  0.4979220000000 1.0
C      1  0.4118710000000  0.4805490000000  0.4350300000000 1.0
C      1  0.6170070000000  0.5769700000000  0.4601030000000 1.0
C      1  0.4723830000000  0.5646880000000  0.5409580000000 1.0
C      1  0.4952620000000  0.5791810000000  0.5523380000000 1.0
C      1  0.4468480000000  0.5211540000000  0.4771220000000 1.0
C      1  0.5210530000000  0.5352080000000  0.6086420000000 1.0
C      1  0.5189460000000  0.6117370000000  0.5205170000000 1.0
C      1  0.4718500000000  0.4360520000000  0.5787120000000 1.0
C      1  0.5745390000000  0.4906830000000  0.4602450000000 1.0
C      1  0.5348860000000  0.4516890000000  0.5469400000000 1.0
C      1  0.5851130000000  0.5214370000000  0.5667740000000 1.0
C      1  0.4816380000000  0.5831630000000  0.4731160000000 1.0
C      1  0.4976240000000  0.3964830000000  0.5172190000000 1.0
C      1  0.4227560000000  0.5542580000000  0.5196880000000 1.0
C      1  0.4738750000000  0.4056500000000  0.4490110000000 1.0
C      1  0.4824760000000  0.5056790000000  0.6152370000000 1.0
C      1  0.5637600000000  0.4992510000000  0.5261080000000 1.0
C      1  0.4392170000000  0.3988310000000  0.4854460000000 1.0
C      1  0.4999890000000  0.5435650000000  0.5031850000000 1.0
C      1  0.5409770000000  0.5696410000000  0.5561530000000 1.0
C      1  0.4869660000000  0.4473050000000  0.4613120000000 1.0
C      1  0.5226570000000  0.3980680000000  0.4556600000000 1.0
C      1  0.5496080000000  0.4420950000000  0.5179220000000 1.0
C      1  0.4719010000000  0.4591710000000  0.3938830000000 1.0
C      1  0.4232330000000  0.4855360000000  0.5531560000000 1.0
C      1  0.5866250000000  0.5315540000000  0.5299930000000 1.0
C      1  0.5546870000000  0.5311860000000  0.5183210000000 1.0
C      1  0.4440260000000  0.4426130000000  0.4617330000000 1.0
C      1  0.5190990000000  0.5741070000000  0.5333020000000 1.0
C      1  0.4886680000000  0.5412210000000  0.4510760000000 1.0
C      1  0.5940800000000  0.4946800000000  0.5781600000000 1.0
C      1  0.4552810000000  0.4674280000000  0.4772690000000 1.0
C      1  0.5548220000000  0.5704070000000  0.4595840000000 1.0
C      1  0.4223850000000  0.5342470000000  0.4228220000000 1.0
C      1  0.5963780000000  0.5341410000000  0.4523120000000 1.0
C      1  0.4754340000000  0.4984450000000  0.5130260000000 1.0
C      1  0.5013010000000  0.4090610000000  0.4329170000000 1.0
C      1  0.4920740000000  0.6067510000000  0.5369020000000 1.0
C      1  0.4602060000000  0.5473410000000  0.3816920000000 1.0
C      1  0.4649730000000  0.4830790000000  0.5962670000000 1.0
C      1  0.4417330000000  0.5822640000000  0.5715310000000 1.0
C      1  0.5372790000000  0.3932770000000  0.5152620000000 1.0
C      1  0.5012670000000  0.5669810000000  0.5790720000000 1.0
C      1  0.4035650000000  0.4358290000000  0.5063380000000 1.0
C      1  0.5313030000000  0.5079780000000  0.4055180000000 1.0
C      1  0.5889480000000  0.5197820000000  0.4223370000000 1.0
END
