TITL C-2847959-7740-462 -0.000578504397711432 125000 -257.802791031914 0 0 46 (C1) n - 1
REM
REM in /home/bkarasulu/work/CARBON/AIRSS/Generating-Clusters/AIREBO/with-SteepDescent/Only-C1/SD-CG-opt/Try1-1.4A-POS3A/HFTN-CG
REM
REM
REM
REM
REM
REM ./C.cell (11c1c37f851c82e70ff6c80c92926a4b)
REM
REM compiler GCC version 9.2.1 20190827 (Red Hat 9.2.1-1)
REM options -cpp -mtune=generic -march=x86-64 -g -O0 -fpre-include=/usr/include/finclude/math-vector-fortran.h
REM seed 1172072769 1978968135 1386549624 530426346 1112365681 1473671822 -337260519 1215582604 -218889356 -366099802 2053589673 -832237238 1744365211 -235944916 -1381931647 1376987814 484220961 340312529 1860709141 408053869 1916706953 1990465672 256364120 -1309618213 -1995037575 -75050509 -1218490646 828413960 -888121672 259200721 1044039026 -1523603277 -1302148141
REM
CELL 1.54180   50.00000   50.00000   50.00000   90.00000   90.00000   90.00000
LATT -1
SFAC C  
C      1  0.5630370000000  0.4610680000000  0.5011620000000 1.0
C      1  0.5159160000000  0.4785580000000  0.4766870000000 1.0
C      1  0.4612090000000  0.5563930000000  0.5581150000000 1.0
C      1  0.4972560000000  0.5018380000000  0.4853130000000 1.0
C      1  0.5148360000000  0.5174170000000  0.5436000000000 1.0
C      1  0.4591220000000  0.5772400000000  0.5015520000000 1.0
C      1  0.5070460000000  0.5272110000000  0.4710340000000 1.0
C      1  0.5379440000000  0.4765730000000  0.5399700000000 1.0
C      1  0.5181610000000  0.4885100000000  0.5829890000000 1.0
C      1  0.5404820000000  0.5069430000000  0.4632170000000 1.0
C      1  0.5044200000000  0.5612100000000  0.5034800000000 1.0
C      1  0.5573200000000  0.5545640000000  0.4672450000000 1.0
C      1  0.5563210000000  0.5414960000000  0.5393580000000 1.0
C      1  0.4948910000000  0.5497280000000  0.4279030000000 1.0
C      1  0.5249680000000  0.5425680000000  0.5032830000000 1.0
C      1  0.4766760000000  0.4535390000000  0.4674580000000 1.0
C      1  0.4782870000000  0.5621700000000  0.5129660000000 1.0
C      1  0.5386530000000  0.5360890000000  0.4756910000000 1.0
C      1  0.4580010000000  0.4964160000000  0.4410720000000 1.0
C      1  0.5153090000000  0.4685990000000  0.4441750000000 1.0
C      1  0.4737460000000  0.5467220000000  0.5357140000000 1.0
C      1  0.4580460000000  0.4549310000000  0.4890880000000 1.0
C      1  0.4631220000000  0.5045190000000  0.4858890000000 1.0
C      1  0.5235740000000  0.4981590000000  0.4426740000000 1.0
C      1  0.5524850000000  0.4886520000000  0.5161200000000 1.0
C      1  0.4053210000000  0.5415270000000  0.4624020000000 1.0
C      1  0.5465900000000  0.4843240000000  0.4838490000000 1.0
C      1  0.4746480000000  0.4701250000000  0.4448940000000 1.0
C      1  0.4487840000000  0.5099600000000  0.4635700000000 1.0
C      1  0.5030310000000  0.4500650000000  0.4771340000000 1.0
C      1  0.5279360000000  0.4290430000000  0.5186350000000 1.0
C      1  0.5241740000000  0.4940400000000  0.5566260000000 1.0
C      1  0.5250980000000  0.4076160000000  0.5346640000000 1.0
C      1  0.4684790000000  0.4652150000000  0.5170470000000 1.0
C      1  0.5146590000000  0.4844540000000  0.6086420000000 1.0
C      1  0.5332680000000  0.5325270000000  0.5284310000000 1.0
C      1  0.4257260000000  0.5251010000000  0.4632440000000 1.0
C      1  0.4793240000000  0.4972780000000  0.5133990000000 1.0
C      1  0.5156370000000  0.4316650000000  0.4934960000000 1.0
C      1  0.4843210000000  0.4463160000000  0.5304630000000 1.0
C      1  0.4856690000000  0.5188020000000  0.5365240000000 1.0
C      1  0.4621830000000  0.5008990000000  0.5493520000000 1.0
C      1  0.4974740000000  0.5282940000000  0.4445020000000 1.0
C      1  0.4505840000000  0.4824380000000  0.5368420000000 1.0
C      1  0.4905590000000  0.4987580000000  0.4355720000000 1.0
C      1  0.5457110000000  0.4504380000000  0.5249560000000 1.0
END
