TITL C-2847953-8112-563 0.000554083423264514 125000 -931.65839510647 0 0 177 (C1) n - 1
REM
REM in /home/bkarasulu/work/CARBON/AIRSS/Generating-Clusters/AIREBO/with-SteepDescent/Only-C1/SD-CG-opt/Try1-1.4A-POS3A/HFTN-CG
REM
REM
REM
REM
REM
REM ./C.cell (11c1c37f851c82e70ff6c80c92926a4b)
REM
REM compiler GCC version 9.2.1 20190827 (Red Hat 9.2.1-1)
REM options -cpp -mtune=generic -march=x86-64 -g -O0 -fpre-include=/usr/include/finclude/math-vector-fortran.h
REM seed 1503281948 -82975795 -931698600 503450585 1638725463 1892041380 1646015048 1705828525 -282491009 1798724642 -1867375477 1591980882 596896941 -1112333619 1760203474 -802800070 453692531 2112284881 -1938131741 1094839621 1799000606 -1634784267 623862305 2010220572 -781717317 1887464537 -552159131 1497701253 1345105562 -271968681 -1523069649 1048779648 1169711197
REM
CELL 1.54180   50.00000   50.00000   50.00000   90.00000   90.00000   90.00000
LATT -1
SFAC C  
C      1  0.5487070000000  0.4448950000000  0.4047510000000 1.0
C      1  0.5252020000000  0.4011570000000  0.4892110000000 1.0
C      1  0.4342430000000  0.5879420000000  0.5022810000000 1.0
C      1  0.3870610000000  0.5136650000000  0.5442430000000 1.0
C      1  0.5456440000000  0.4756190000000  0.5524720000000 1.0
C      1  0.5237540000000  0.5564160000000  0.4053500000000 1.0
C      1  0.5771780000000  0.5371460000000  0.5456630000000 1.0
C      1  0.5165780000000  0.4133650000000  0.4458270000000 1.0
C      1  0.3960320000000  0.4552200000000  0.5202850000000 1.0
C      1  0.5470720000000  0.5610980000000  0.5347960000000 1.0
C      1  0.5929730000000  0.5426000000000  0.4958190000000 1.0
C      1  0.5770690000000  0.4290430000000  0.4628030000000 1.0
C      1  0.5589300000000  0.4518340000000  0.4803460000000 1.0
C      1  0.4187740000000  0.5328810000000  0.5129270000000 1.0
C      1  0.3819610000000  0.5178100000000  0.5117770000000 1.0
C      1  0.4835500000000  0.4172310000000  0.5279310000000 1.0
C      1  0.5090350000000  0.4618660000000  0.4644400000000 1.0
C      1  0.5182920000000  0.4117400000000  0.5683250000000 1.0
C      1  0.4879750000000  0.4556110000000  0.5151260000000 1.0
C      1  0.5069290000000  0.4424330000000  0.4365600000000 1.0
C      1  0.4479510000000  0.5160310000000  0.5083280000000 1.0
C      1  0.4744390000000  0.4807870000000  0.4602590000000 1.0
C      1  0.4508830000000  0.4832220000000  0.3953830000000 1.0
C      1  0.4869200000000  0.5284910000000  0.5279020000000 1.0
C      1  0.4918220000000  0.4578980000000  0.5996260000000 1.0
C      1  0.5452890000000  0.5331110000000  0.4296160000000 1.0
C      1  0.5967470000000  0.4414300000000  0.4874740000000 1.0
C      1  0.4881690000000  0.4215100000000  0.5587710000000 1.0
C      1  0.5720800000000  0.5622890000000  0.4343230000000 1.0
C      1  0.5826700000000  0.5168970000000  0.4788550000000 1.0
C      1  0.4583320000000  0.5377030000000  0.4838500000000 1.0
C      1  0.5428780000000  0.4494970000000  0.5074960000000 1.0
C      1  0.3967710000000  0.5173690000000  0.4829100000000 1.0
C      1  0.4972600000000  0.5378610000000  0.5781980000000 1.0
C      1  0.5932600000000  0.4742750000000  0.5256260000000 1.0
C      1  0.4904330000000  0.4862150000000  0.5065640000000 1.0
C      1  0.5165400000000  0.4401030000000  0.4878330000000 1.0
C      1  0.4980850000000  0.4505260000000  0.5468650000000 1.0
C      1  0.5612180000000  0.5204680000000  0.5646260000000 1.0
C      1  0.5542240000000  0.5877360000000  0.4730110000000 1.0
C      1  0.5618770000000  0.5063820000000  0.4540930000000 1.0
C      1  0.4010470000000  0.5281670000000  0.5675940000000 1.0
C      1  0.5284260000000  0.5368720000000  0.5358330000000 1.0
C      1  0.5157570000000  0.5729640000000  0.4339550000000 1.0
C      1  0.5184070000000  0.4648470000000  0.5697490000000 1.0
C      1  0.5495290000000  0.4577040000000  0.4424160000000 1.0
C      1  0.4556870000000  0.5655530000000  0.5771190000000 1.0
C      1  0.5012650000000  0.4816870000000  0.4393840000000 1.0
C      1  0.4381240000000  0.4562260000000  0.5789880000000 1.0
C      1  0.4189260000000  0.5620030000000  0.4849770000000 1.0
C      1  0.4201130000000  0.4855910000000  0.4518810000000 1.0
C      1  0.5828970000000  0.5054120000000  0.5346010000000 1.0
C      1  0.4761500000000  0.5528940000000  0.5936810000000 1.0
C      1  0.5763900000000  0.4754210000000  0.4534060000000 1.0
C      1  0.4921600000000  0.5368520000000  0.4467200000000 1.0
C      1  0.5754640000000  0.5315450000000  0.4356720000000 1.0
C      1  0.4695340000000  0.4668070000000  0.5790670000000 1.0
C      1  0.4706140000000  0.5798000000000  0.5500570000000 1.0
C      1  0.4828640000000  0.5727180000000  0.5018080000000 1.0
C      1  0.5296900000000  0.5496890000000  0.4516610000000 1.0
C      1  0.5112170000000  0.4381010000000  0.5866240000000 1.0
C      1  0.5109080000000  0.5392660000000  0.5063330000000 1.0
C      1  0.5324760000000  0.5069670000000  0.5515060000000 1.0
C      1  0.4700660000000  0.5386230000000  0.6172570000000 1.0
C      1  0.4219430000000  0.4378920000000  0.5308710000000 1.0
C      1  0.5265770000000  0.5742170000000  0.5799850000000 1.0
C      1  0.3949480000000  0.4618360000000  0.4922950000000 1.0
C      1  0.4115500000000  0.4750710000000  0.5720530000000 1.0
C      1  0.5207580000000  0.4460230000000  0.4072980000000 1.0
C      1  0.4893420000000  0.5047680000000  0.5779560000000 1.0
C      1  0.5052580000000  0.5001930000000  0.5322600000000 1.0
C      1  0.4599340000000  0.5815570000000  0.4824060000000 1.0
C      1  0.4945810000000  0.6101390000000  0.4968340000000 1.0
C      1  0.5060820000000  0.5544210000000  0.5519280000000 1.0
C      1  0.4504270000000  0.5099170000000  0.4659200000000 1.0
C      1  0.6002980000000  0.4696530000000  0.4765510000000 1.0
C      1  0.5409080000000  0.5266420000000  0.4964560000000 1.0
C      1  0.4071330000000  0.5410270000000  0.4703390000000 1.0
C      1  0.5875540000000  0.5697680000000  0.4854330000000 1.0
C      1  0.5117320000000  0.4175480000000  0.5122850000000 1.0
C      1  0.4769990000000  0.4409140000000  0.4204370000000 1.0
C      1  0.5605720000000  0.4949540000000  0.5863460000000 1.0
C      1  0.4417010000000  0.4358260000000  0.5060550000000 1.0
C      1  0.4811050000000  0.4934210000000  0.4194570000000 1.0
C      1  0.4240310000000  0.5054850000000  0.5633450000000 1.0
C      1  0.4493680000000  0.4719360000000  0.4436250000000 1.0
C      1  0.4864580000000  0.5766470000000  0.4439240000000 1.0
C      1  0.5547280000000  0.5266970000000  0.5974150000000 1.0
C      1  0.4331220000000  0.5502720000000  0.5458320000000 1.0
C      1  0.5274920000000  0.6013060000000  0.4663090000000 1.0
C      1  0.5438250000000  0.5567950000000  0.4810130000000 1.0
C      1  0.5313580000000  0.5069450000000  0.4704250000000 1.0
C      1  0.4904120000000  0.4942480000000  0.3873770000000 1.0
C      1  0.4825550000000  0.3997840000000  0.4906050000000 1.0
C      1  0.5063970000000  0.3958240000000  0.4666490000000 1.0
C      1  0.5453130000000  0.4956230000000  0.3978190000000 1.0
C      1  0.6040050000000  0.4911710000000  0.5006140000000 1.0
C      1  0.5662850000000  0.4311600000000  0.4304300000000 1.0
C      1  0.4896700000000  0.3852770000000  0.5191320000000 1.0
C      1  0.4481240000000  0.4228350000000  0.4609200000000 1.0
C      1  0.5559880000000  0.4431810000000  0.5553440000000 1.0
C      1  0.4989640000000  0.5849090000000  0.4744490000000 1.0
C      1  0.5839290000000  0.4427680000000  0.5171480000000 1.0
C      1  0.4607320000000  0.5106620000000  0.3898740000000 1.0
C      1  0.4830290000000  0.5183780000000  0.4705750000000 1.0
C      1  0.5408820000000  0.5765230000000  0.5087610000000 1.0
C      1  0.5425170000000  0.4164750000000  0.5444880000000 1.0
C      1  0.4163430000000  0.4873290000000  0.4853100000000 1.0
C      1  0.4468270000000  0.4893610000000  0.5809760000000 1.0
C      1  0.4896050000000  0.4881750000000  0.6059190000000 1.0
C      1  0.5752760000000  0.5673630000000  0.5527450000000 1.0
C      1  0.5507750000000  0.4753690000000  0.5212640000000 1.0
C      1  0.4115270000000  0.5013840000000  0.5153030000000 1.0
C      1  0.4746920000000  0.4570340000000  0.4844880000000 1.0
C      1  0.6073060000000  0.4864760000000  0.4491410000000 1.0
C      1  0.4859550000000  0.4816430000000  0.5532490000000 1.0
C      1  0.5696910000000  0.5294000000000  0.5144280000000 1.0
C      1  0.4733020000000  0.4231940000000  0.4456510000000 1.0
C      1  0.5424050000000  0.5294460000000  0.3959340000000 1.0
C      1  0.5014890000000  0.4922970000000  0.4776230000000 1.0
C      1  0.4161050000000  0.5376500000000  0.4437120000000 1.0
C      1  0.4929110000000  0.4652940000000  0.4042240000000 1.0
C      1  0.5455630000000  0.4803480000000  0.4824070000000 1.0
C      1  0.5123800000000  0.5290760000000  0.4220800000000 1.0
C      1  0.4681880000000  0.5181910000000  0.4313240000000 1.0
C      1  0.5375320000000  0.4326920000000  0.4621270000000 1.0
C      1  0.4586630000000  0.4883130000000  0.5084170000000 1.0
C      1  0.5585580000000  0.4675880000000  0.3901000000000 1.0
C      1  0.4417240000000  0.4337880000000  0.5584190000000 1.0
C      1  0.5311450000000  0.5511990000000  0.5948830000000 1.0
C      1  0.5481480000000  0.5722780000000  0.4224880000000 1.0
C      1  0.4599890000000  0.5603210000000  0.4584270000000 1.0
C      1  0.5582650000000  0.4224710000000  0.5155820000000 1.0
C      1  0.4544070000000  0.4641890000000  0.4145520000000 1.0
C      1  0.5102270000000  0.5695620000000  0.5217650000000 1.0
C      1  0.4566720000000  0.4761450000000  0.5368500000000 1.0
C      1  0.3969590000000  0.4828260000000  0.5376420000000 1.0
C      1  0.4621250000000  0.4156470000000  0.5695270000000 1.0
C      1  0.4524410000000  0.4139340000000  0.4876350000000 1.0
C      1  0.4100450000000  0.5601560000000  0.5289570000000 1.0
C      1  0.5303620000000  0.4970740000000  0.5095210000000 1.0
C      1  0.5470310000000  0.5794960000000  0.5620460000000 1.0
C      1  0.4267730000000  0.4677430000000  0.5425440000000 1.0
C      1  0.4338290000000  0.4492380000000  0.4607070000000 1.0
C      1  0.4696990000000  0.5090870000000  0.6125060000000 1.0
C      1  0.4889640000000  0.5957380000000  0.5262670000000 1.0
C      1  0.4026230000000  0.4577940000000  0.4623270000000 1.0
C      1  0.4535550000000  0.5209440000000  0.5854390000000 1.0
C      1  0.5158970000000  0.3962920000000  0.5381300000000 1.0
C      1  0.4700700000000  0.5193810000000  0.5557430000000 1.0
C      1  0.4421140000000  0.4654840000000  0.4894130000000 1.0
C      1  0.5148850000000  0.5102740000000  0.3928630000000 1.0
C      1  0.5485890000000  0.4886320000000  0.4283080000000 1.0
C      1  0.4868700000000  0.4296360000000  0.4749060000000 1.0
C      1  0.5708940000000  0.5888390000000  0.5026320000000 1.0
C      1  0.4413770000000  0.5516520000000  0.4335880000000 1.0
C      1  0.4306880000000  0.5424930000000  0.5767430000000 1.0
C      1  0.4655680000000  0.5699660000000  0.4201220000000 1.0
C      1  0.4428860000000  0.5190480000000  0.5413120000000 1.0
C      1  0.5548310000000  0.4122040000000  0.4830760000000 1.0
C      1  0.6152220000000  0.5176140000000  0.5018900000000 1.0
C      1  0.4431900000000  0.5928910000000  0.5347770000000 1.0
C      1  0.4352160000000  0.5125450000000  0.4390640000000 1.0
C      1  0.5225480000000  0.5017860000000  0.4393220000000 1.0
C      1  0.4645320000000  0.5515920000000  0.5328760000000 1.0
C      1  0.4980180000000  0.5809960000000  0.5701730000000 1.0
C      1  0.4591870000000  0.5388210000000  0.4076170000000 1.0
C      1  0.5805590000000  0.5760060000000  0.4568630000000 1.0
C      1  0.4434680000000  0.5556570000000  0.5076520000000 1.0
C      1  0.5700680000000  0.4926320000000  0.4991010000000 1.0
C      1  0.5251550000000  0.5205870000000  0.5817890000000 1.0
C      1  0.4615590000000  0.4427970000000  0.5323000000000 1.0
C      1  0.5048320000000  0.5514000000000  0.4748010000000 1.0
C      1  0.5775130000000  0.4842160000000  0.5606420000000 1.0
C      1  0.6059100000000  0.5138640000000  0.4556910000000 1.0
C      1  0.5868700000000  0.4533060000000  0.5499880000000 1.0
C      1  0.5403080000000  0.4763680000000  0.5920520000000 1.0
END
