TITL C-2847949-8115-431 -0.000718137790074527 125000 -550.098753459274 0 0 102 (C1) n - 1
REM
REM in /home/bkarasulu/work/CARBON/AIRSS/Generating-Clusters/AIREBO/with-SteepDescent/Only-C1/SD-CG-opt/Try1-1.4A-POS3A/HFTN-CG
REM
REM
REM
REM
REM
REM ./C.cell (11c1c37f851c82e70ff6c80c92926a4b)
REM
REM compiler GCC version 9.2.1 20190827 (Red Hat 9.2.1-1)
REM options -cpp -mtune=generic -march=x86-64 -g -O0 -fpre-include=/usr/include/finclude/math-vector-fortran.h
REM seed -1288995803 -909198043 2065467780 702702988 -127015207 531673856 -1496724766 -1983280519 -757327312 1916356613 -690817794 107990025 -812505520 -2054822512 414338187 825974099 -2020049079 82214021 -811267926 809135579 877474933 1606118416 -582748506 928714609 -1007467694 -780493265 -1005966827 1434413979 1553454437 -861178086 -1206315497 -232148460 1325202358
REM
CELL 1.54180   50.00000   50.00000   50.00000   90.00000   90.00000   90.00000
LATT -1
SFAC C  
C      1  0.5397170000000  0.5191530000000  0.5086580000000 1.0
C      1  0.4892650000000  0.5350420000000  0.5324950000000 1.0
C      1  0.5221800000000  0.4858550000000  0.4810760000000 1.0
C      1  0.4731580000000  0.4934810000000  0.4768370000000 1.0
C      1  0.5374670000000  0.4557130000000  0.4863310000000 1.0
C      1  0.4569500000000  0.5368430000000  0.4527230000000 1.0
C      1  0.4320480000000  0.4891440000000  0.4579120000000 1.0
C      1  0.5353460000000  0.4932680000000  0.5468410000000 1.0
C      1  0.5010110000000  0.5951630000000  0.5005220000000 1.0
C      1  0.5485340000000  0.4925760000000  0.4291940000000 1.0
C      1  0.5372860000000  0.5660280000000  0.4134700000000 1.0
C      1  0.5054450000000  0.4930310000000  0.4051100000000 1.0
C      1  0.5680640000000  0.4942840000000  0.5426730000000 1.0
C      1  0.4152600000000  0.4892950000000  0.5433400000000 1.0
C      1  0.4907070000000  0.5250180000000  0.4939230000000 1.0
C      1  0.5382630000000  0.5222010000000  0.4778380000000 1.0
C      1  0.5250100000000  0.5074430000000  0.4190120000000 1.0
C      1  0.4684540000000  0.4406950000000  0.4579730000000 1.0
C      1  0.5198430000000  0.5009300000000  0.5823980000000 1.0
C      1  0.5216090000000  0.5337160000000  0.5330450000000 1.0
C      1  0.5220340000000  0.5709660000000  0.4601390000000 1.0
C      1  0.5657970000000  0.5556070000000  0.5183820000000 1.0
C      1  0.5253570000000  0.5571290000000  0.4363510000000 1.0
C      1  0.4474080000000  0.4770610000000  0.5041200000000 1.0
C      1  0.4155110000000  0.4783250000000  0.4391670000000 1.0
C      1  0.4579050000000  0.5047010000000  0.4505940000000 1.0
C      1  0.5587120000000  0.5241750000000  0.5560230000000 1.0
C      1  0.4701170000000  0.5556740000000  0.4087770000000 1.0
C      1  0.5306630000000  0.4182770000000  0.4746270000000 1.0
C      1  0.5259770000000  0.5848730000000  0.4894380000000 1.0
C      1  0.4275240000000  0.4930140000000  0.4856210000000 1.0
C      1  0.5132870000000  0.5485570000000  0.5036020000000 1.0
C      1  0.4327210000000  0.4319200000000  0.5271550000000 1.0
C      1  0.4494620000000  0.5554890000000  0.4272120000000 1.0
C      1  0.5302430000000  0.4707880000000  0.5710740000000 1.0
C      1  0.5140240000000  0.4039750000000  0.5188920000000 1.0
C      1  0.5469900000000  0.4649780000000  0.5139660000000 1.0
C      1  0.5021530000000  0.4879200000000  0.5487260000000 1.0
C      1  0.5612800000000  0.4355490000000  0.5232290000000 1.0
C      1  0.4739260000000  0.5513880000000  0.5073580000000 1.0
C      1  0.4972990000000  0.4629240000000  0.5679330000000 1.0
C      1  0.5340470000000  0.4253690000000  0.5505820000000 1.0
C      1  0.4797770000000  0.4365940000000  0.5562300000000 1.0
C      1  0.5073720000000  0.4403280000000  0.4859340000000 1.0
C      1  0.4838910000000  0.4694790000000  0.4142620000000 1.0
C      1  0.4808840000000  0.4265660000000  0.4787700000000 1.0
C      1  0.4505930000000  0.5150570000000  0.5622970000000 1.0
C      1  0.4385630000000  0.4711950000000  0.5364260000000 1.0
C      1  0.4728550000000  0.4994060000000  0.5074210000000 1.0
C      1  0.4230330000000  0.5509260000000  0.4976640000000 1.0
C      1  0.5436160000000  0.4603750000000  0.4392510000000 1.0
C      1  0.4996350000000  0.5586500000000  0.4751010000000 1.0
C      1  0.4881270000000  0.5780330000000  0.5223130000000 1.0
C      1  0.4766650000000  0.5027100000000  0.4141650000000 1.0
C      1  0.5031880000000  0.5748690000000  0.5522170000000 1.0
C      1  0.4798450000000  0.5297550000000  0.4285220000000 1.0
C      1  0.4423670000000  0.4454000000000  0.4653160000000 1.0
C      1  0.5691380000000  0.5157180000000  0.5185180000000 1.0
C      1  0.5736390000000  0.5086080000000  0.4444860000000 1.0
C      1  0.5560700000000  0.4472740000000  0.4652810000000 1.0
C      1  0.5920500000000  0.5078230000000  0.4959370000000 1.0
C      1  0.5695840000000  0.5469610000000  0.5453650000000 1.0
C      1  0.5045230000000  0.5501040000000  0.5662260000000 1.0
C      1  0.4513540000000  0.5520500000000  0.4819380000000 1.0
C      1  0.4404170000000  0.4342120000000  0.5510700000000 1.0
C      1  0.4902120000000  0.5138490000000  0.5590680000000 1.0
C      1  0.5465980000000  0.4857270000000  0.4617160000000 1.0
C      1  0.4237830000000  0.5153300000000  0.5455240000000 1.0
C      1  0.4396120000000  0.4445920000000  0.4976390000000 1.0
C      1  0.5285530000000  0.5276080000000  0.5657990000000 1.0
C      1  0.4577150000000  0.5680510000000  0.5660330000000 1.0
C      1  0.4795450000000  0.5993250000000  0.4807670000000 1.0
C      1  0.5180620000000  0.4432540000000  0.4537590000000 1.0
C      1  0.5368950000000  0.4175540000000  0.5074110000000 1.0
C      1  0.5112990000000  0.5295920000000  0.4373530000000 1.0
C      1  0.4721900000000  0.5402570000000  0.5700700000000 1.0
C      1  0.4574340000000  0.4615870000000  0.5619470000000 1.0
C      1  0.4900360000000  0.4579430000000  0.4429430000000 1.0
C      1  0.4613680000000  0.5177140000000  0.5320940000000 1.0
C      1  0.5074920000000  0.5128790000000  0.4667410000000 1.0
C      1  0.4736950000000  0.4516940000000  0.3956260000000 1.0
C      1  0.5763180000000  0.4907890000000  0.4733710000000 1.0
C      1  0.4653870000000  0.4230680000000  0.5030490000000 1.0
C      1  0.5446470000000  0.4546430000000  0.5462900000000 1.0
C      1  0.4967930000000  0.4831200000000  0.5190430000000 1.0
C      1  0.5417460000000  0.5666150000000  0.5085050000000 1.0
C      1  0.4839850000000  0.4174040000000  0.5277380000000 1.0
C      1  0.4975060000000  0.4523390000000  0.5141290000000 1.0
C      1  0.4900670000000  0.4967800000000  0.5884730000000 1.0
C      1  0.4749480000000  0.5717880000000  0.4731060000000 1.0
C      1  0.5802550000000  0.4629670000000  0.5350700000000 1.0
C      1  0.4632580000000  0.4891830000000  0.5757040000000 1.0
C      1  0.5613170000000  0.5267090000000  0.4643240000000 1.0
C      1  0.4670410000000  0.4571360000000  0.5234540000000 1.0
C      1  0.5088510000000  0.4370030000000  0.5401360000000 1.0
C      1  0.5767750000000  0.4788410000000  0.5052020000000 1.0
C      1  0.4250990000000  0.5194440000000  0.4916720000000 1.0
C      1  0.4229720000000  0.5304050000000  0.5224960000000 1.0
C      1  0.4889020000000  0.4898660000000  0.4499410000000 1.0
C      1  0.5830410000000  0.5399550000000  0.4991150000000 1.0
C      1  0.5280320000000  0.4901320000000  0.5142950000000 1.0
C      1  0.4733330000000  0.5852270000000  0.5513510000000 1.0
END
