TITL C-2848502-4955-332 -0.0677173087109508 125000 -119.858648272114 0 0 22 (C1) n - 1
REM
REM in /home/bkarasulu/work/CARBON/AIRSS/Generating-Clusters/AIREBO/with-SteepDescent/Only-C1/SD-CG-opt/Try1-1.4A-POS3A/HFTN-CG
REM
REM
REM
REM
REM
REM ./C.cell (11c1c37f851c82e70ff6c80c92926a4b)
REM
REM compiler GCC version 9.2.1 20190827 (Red Hat 9.2.1-1)
REM options -cpp -mtune=generic -march=x86-64 -g -O0 -fpre-include=/usr/include/finclude/math-vector-fortran.h
REM seed -11275889 -101284552 -327142393 190019031 1657805327 896860724 775729734 -1067078462 -1533760772 -2054031481 911545337 -119661738 1153427321 -1339624878 1238236573 -1430722180 1648843094 -1358733922 828894018 830675605 -1430769715 838200151 2132717211 -1292540915 1697718027 -462554499 -1998901935 -1161360960 -749845391 -1341234983 -1195801877 -1101735210 1490509129
REM
CELL 1.54180   50.00000   50.00000   50.00000   90.00000   90.00000   90.00000
LATT -1
SFAC C  
C      1  0.4747740000000  0.3925350000000  0.5110160000000 1.0
C      1  0.4640230000000  0.5665570000000  0.5844420000000 1.0
C      1  0.4926590000000  0.3739630000000  0.4614610000000 1.0
C      1  0.4563140000000  0.5852380000000  0.6018000000000 1.0
C      1  0.5213600000000  0.5057280000000  0.4578770000000 1.0
C      1  0.5442250000000  0.5707340000000  0.4504640000000 1.0
C      1  0.4961700000000  0.4705880000000  0.4944550000000 1.0
C      1  0.4652990000000  0.3808730000000  0.5323870000000 1.0
C      1  0.4972610000000  0.4990950000000  0.5089080000000 1.0
C      1  0.5586550000000  0.5659130000000  0.4219310000000 1.0
C      1  0.5458480000000  0.5410140000000  0.4379840000000 1.0
C      1  0.5398620000000  0.5866720000000  0.4707030000000 1.0
C      1  0.4912160000000  0.4442340000000  0.4951260000000 1.0
C      1  0.5439880000000  0.4989070000000  0.4168490000000 1.0
C      1  0.5369070000000  0.5154300000000  0.4370360000000 1.0
C      1  0.4871290000000  0.5156120000000  0.5275170000000 1.0
C      1  0.4862190000000  0.3896430000000  0.4813390000000 1.0
C      1  0.4508500000000  0.6030830000000  0.6202050000000 1.0
C      1  0.5086120000000  0.4956610000000  0.4792200000000 1.0
C      1  0.4705590000000  0.5493150000000  0.5652150000000 1.0
C      1  0.4793500000000  0.5316750000000  0.5472930000000 1.0
C      1  0.4887200000000  0.4175310000000  0.4967730000000 1.0
END
