TITL C-2847950-6905-488 -0.00528255419589837 125000 -712.560256008418 0 0 139 (C1) n - 1
REM
REM in /home/bkarasulu/work/CARBON/AIRSS/Generating-Clusters/AIREBO/with-SteepDescent/Only-C1/SD-CG-opt/Try1-1.4A-POS3A/HFTN-CG
REM
REM
REM
REM
REM
REM ./C.cell (11c1c37f851c82e70ff6c80c92926a4b)
REM
REM compiler GCC version 9.2.1 20190827 (Red Hat 9.2.1-1)
REM options -cpp -mtune=generic -march=x86-64 -g -O0 -fpre-include=/usr/include/finclude/math-vector-fortran.h
REM seed 807440388 1977676115 -546972748 -874133501 178410257 -499848086 1105884083 1140287897 1598632926 -1679880985 824172512 -1846229069 -1624616491 -95269743 -1501981249 1754585340 512631812 1873546286 1619457430 -1236997405 -2110881150 -1858734130 -538780730 -2142110612 -401452589 -141674269 -463088271 1922436054 967136650 318817418 -1661875704 294408188 -1312360598
REM
CELL 1.54180   50.00000   50.00000   50.00000   90.00000   90.00000   90.00000
LATT -1
SFAC C  
C      1  0.5027490000000  0.5289240000000  0.4195000000000 1.0
C      1  0.5482700000000  0.5292960000000  0.4276970000000 1.0
C      1  0.4499990000000  0.4799620000000  0.4083890000000 1.0
C      1  0.4872460000000  0.4654080000000  0.4216460000000 1.0
C      1  0.5065520000000  0.5452820000000  0.4790600000000 1.0
C      1  0.5230980000000  0.5133940000000  0.6099530000000 1.0
C      1  0.5379660000000  0.5780580000000  0.5370140000000 1.0
C      1  0.4229750000000  0.5201810000000  0.5228510000000 1.0
C      1  0.5639130000000  0.5487510000000  0.5310690000000 1.0
C      1  0.5125420000000  0.4908690000000  0.6050910000000 1.0
C      1  0.5259330000000  0.4653480000000  0.4973990000000 1.0
C      1  0.5052610000000  0.4907920000000  0.4079510000000 1.0
C      1  0.5144290000000  0.5844050000000  0.5132700000000 1.0
C      1  0.4132250000000  0.4530920000000  0.4645140000000 1.0
C      1  0.5170070000000  0.4356660000000  0.4406280000000 1.0
C      1  0.4402670000000  0.5363670000000  0.5433770000000 1.0
C      1  0.4478170000000  0.4718410000000  0.4708830000000 1.0
C      1  0.4621850000000  0.5109920000000  0.5490100000000 1.0
C      1  0.4675310000000  0.5026210000000  0.5058500000000 1.0
C      1  0.4696770000000  0.5238070000000  0.5954300000000 1.0
C      1  0.4188510000000  0.4586850000000  0.5442950000000 1.0
C      1  0.5453320000000  0.4505480000000  0.5568780000000 1.0
C      1  0.4847160000000  0.4220990000000  0.4973020000000 1.0
C      1  0.5184520000000  0.5269540000000  0.5052150000000 1.0
C      1  0.5434860000000  0.4320410000000  0.4574800000000 1.0
C      1  0.4720270000000  0.4947300000000  0.4296910000000 1.0
C      1  0.5373720000000  0.4559970000000  0.5250460000000 1.0
C      1  0.5661030000000  0.5814620000000  0.5243520000000 1.0
C      1  0.5336590000000  0.4835630000000  0.4344550000000 1.0
C      1  0.4527150000000  0.5112910000000  0.4694020000000 1.0
C      1  0.4780660000000  0.5765180000000  0.4604300000000 1.0
C      1  0.5689190000000  0.5026590000000  0.5250700000000 1.0
C      1  0.4632620000000  0.4520080000000  0.5507480000000 1.0
C      1  0.4061230000000  0.5260690000000  0.4947340000000 1.0
C      1  0.5357210000000  0.4058050000000  0.4701860000000 1.0
C      1  0.4550390000000  0.5017330000000  0.5871550000000 1.0
C      1  0.5861770000000  0.4723970000000  0.5446730000000 1.0
C      1  0.5335870000000  0.5319930000000  0.5870490000000 1.0
C      1  0.5845740000000  0.5300950000000  0.4629640000000 1.0
C      1  0.4568120000000  0.5691380000000  0.4933070000000 1.0
C      1  0.5150330000000  0.4068650000000  0.4948560000000 1.0
C      1  0.5450300000000  0.3978580000000  0.5080910000000 1.0
C      1  0.4921420000000  0.5106370000000  0.5601730000000 1.0
C      1  0.5084890000000  0.5531680000000  0.5244500000000 1.0
C      1  0.4138350000000  0.5020370000000  0.4332920000000 1.0
C      1  0.4224760000000  0.4409530000000  0.4943400000000 1.0
C      1  0.4128780000000  0.5347310000000  0.4346420000000 1.0
C      1  0.5804750000000  0.5567070000000  0.4614340000000 1.0
C      1  0.4677480000000  0.4434320000000  0.4389180000000 1.0
C      1  0.4996230000000  0.4817590000000  0.5749870000000 1.0
C      1  0.6034560000000  0.4766210000000  0.5195850000000 1.0
C      1  0.4592060000000  0.4236410000000  0.5402270000000 1.0
C      1  0.4569850000000  0.5304270000000  0.4183480000000 1.0
C      1  0.5447690000000  0.5484970000000  0.5049910000000 1.0
C      1  0.5877730000000  0.4775630000000  0.4575950000000 1.0
C      1  0.5183270000000  0.4596920000000  0.4165970000000 1.0
C      1  0.4886130000000  0.4360850000000  0.5865730000000 1.0
C      1  0.4062860000000  0.4802210000000  0.4582970000000 1.0
C      1  0.5670390000000  0.4790010000000  0.4304820000000 1.0
C      1  0.4981600000000  0.5803130000000  0.5422540000000 1.0
C      1  0.4942800000000  0.4759970000000  0.5186830000000 1.0
C      1  0.4406200000000  0.4558710000000  0.5181840000000 1.0
C      1  0.5240440000000  0.4980400000000  0.4881720000000 1.0
C      1  0.5220720000000  0.4702130000000  0.4596450000000 1.0
C      1  0.4696040000000  0.5880560000000  0.5367060000000 1.0
C      1  0.4452510000000  0.4420010000000  0.4616500000000 1.0
C      1  0.5418840000000  0.5139180000000  0.5243470000000 1.0
C      1  0.4932170000000  0.4618740000000  0.5484730000000 1.0
C      1  0.5316660000000  0.5151760000000  0.5513070000000 1.0
C      1  0.5295700000000  0.4863220000000  0.5644840000000 1.0
C      1  0.4710960000000  0.5494400000000  0.4410770000000 1.0
C      1  0.5150500000000  0.5881440000000  0.4694630000000 1.0
C      1  0.5577650000000  0.5124020000000  0.5729220000000 1.0
C      1  0.4778700000000  0.4812120000000  0.4604910000000 1.0
C      1  0.5614960000000  0.4786530000000  0.5672270000000 1.0
C      1  0.4699360000000  0.4783610000000  0.5884710000000 1.0
C      1  0.5609670000000  0.4568670000000  0.4544690000000 1.0
C      1  0.5542360000000  0.5241940000000  0.4879240000000 1.0
C      1  0.5320900000000  0.5192660000000  0.4628500000000 1.0
C      1  0.5219800000000  0.4281330000000  0.5196820000000 1.0
C      1  0.5493220000000  0.4418290000000  0.4896250000000 1.0
C      1  0.4336170000000  0.5010720000000  0.5635790000000 1.0
C      1  0.4905660000000  0.5899480000000  0.4896160000000 1.0
C      1  0.5506890000000  0.4849950000000  0.4705860000000 1.0
C      1  0.5637950000000  0.4724350000000  0.5213830000000 1.0
C      1  0.5040490000000  0.5539510000000  0.6093440000000 1.0
C      1  0.5452980000000  0.5528920000000  0.5592800000000 1.0
C      1  0.4280730000000  0.4491980000000  0.5694250000000 1.0
C      1  0.5640830000000  0.5729740000000  0.4770420000000 1.0
C      1  0.5115420000000  0.5079300000000  0.4434400000000 1.0
C      1  0.4584020000000  0.4507740000000  0.5824210000000 1.0
C      1  0.5625310000000  0.5105740000000  0.4515340000000 1.0
C      1  0.4936890000000  0.4139770000000  0.4464060000000 1.0
C      1  0.4203490000000  0.5034810000000  0.4767620000000 1.0
C      1  0.5374010000000  0.5528060000000  0.4360820000000 1.0
C      1  0.4302790000000  0.4798720000000  0.4964310000000 1.0
C      1  0.4657530000000  0.5949770000000  0.5098020000000 1.0
C      1  0.4451990000000  0.5263000000000  0.4977540000000 1.0
C      1  0.4956090000000  0.4538490000000  0.4928220000000 1.0
C      1  0.4901800000000  0.4968380000000  0.4841030000000 1.0
C      1  0.4446170000000  0.5705230000000  0.4619180000000 1.0
C      1  0.5645170000000  0.4299060000000  0.5378040000000 1.0
C      1  0.4630210000000  0.4761000000000  0.5266540000000 1.0
C      1  0.5051190000000  0.4217180000000  0.5410370000000 1.0
C      1  0.4379780000000  0.5080520000000  0.4101160000000 1.0
C      1  0.4305360000000  0.5516150000000  0.4395590000000 1.0
C      1  0.4265800000000  0.5473790000000  0.4791020000000 1.0
C      1  0.4520820000000  0.4240180000000  0.4878990000000 1.0
C      1  0.5047890000000  0.5507840000000  0.4454830000000 1.0
C      1  0.4937560000000  0.4524870000000  0.4588850000000 1.0
C      1  0.5306680000000  0.5137390000000  0.4088330000000 1.0
C      1  0.4801950000000  0.5597650000000  0.5703080000000 1.0
C      1  0.5335400000000  0.5659720000000  0.4787520000000 1.0
C      1  0.4802750000000  0.5130400000000  0.4018870000000 1.0
C      1  0.4656550000000  0.5571370000000  0.5437900000000 1.0
C      1  0.4755520000000  0.4115620000000  0.4662960000000 1.0
C      1  0.5136630000000  0.4410050000000  0.5648100000000 1.0
C      1  0.5861500000000  0.5174410000000  0.4921550000000 1.0
C      1  0.4422960000000  0.4914560000000  0.4458630000000 1.0
C      1  0.5155100000000  0.5427740000000  0.5533740000000 1.0
C      1  0.4787960000000  0.5478570000000  0.4965110000000 1.0
C      1  0.4206480000000  0.4909180000000  0.5336270000000 1.0
C      1  0.5938470000000  0.4437690000000  0.4853510000000 1.0
C      1  0.4236560000000  0.5773430000000  0.4947430000000 1.0
C      1  0.5953720000000  0.4888080000000  0.4888660000000 1.0
C      1  0.5034430000000  0.5846270000000  0.4396190000000 1.0
C      1  0.4044990000000  0.4673060000000  0.5146970000000 1.0
C      1  0.4746890000000  0.5304400000000  0.5240760000000 1.0
C      1  0.4667390000000  0.5532930000000  0.5952180000000 1.0
C      1  0.4812460000000  0.4146090000000  0.5282760000000 1.0
C      1  0.5602730000000  0.4209610000000  0.5116730000000 1.0
C      1  0.4510960000000  0.4528380000000  0.4108030000000 1.0
C      1  0.5702920000000  0.4671390000000  0.4918810000000 1.0
C      1  0.4999750000000  0.5349800000000  0.5826040000000 1.0
C      1  0.5821930000000  0.5165250000000  0.5531660000000 1.0
C      1  0.5730690000000  0.5887950000000  0.4984600000000 1.0
C      1  0.4802350000000  0.5197810000000  0.4511680000000 1.0
C      1  0.5005510000000  0.5082940000000  0.5273080000000 1.0
C      1  0.5897900000000  0.5293880000000  0.5226240000000 1.0
END
