TITL C-2848504-8560-9 -0.0010097104271484 125000 -548.398852847629 0 0 97 (C1) n - 1
REM
REM in /home/bkarasulu/work/CARBON/AIRSS/Generating-Clusters/AIREBO/with-SteepDescent/Only-C1/SD-CG-opt/Try1-1.4A-POS3A/HFTN-CG
REM
REM
REM
REM
REM
REM ./C.cell (11c1c37f851c82e70ff6c80c92926a4b)
REM
REM compiler GCC version 9.2.1 20190827 (Red Hat 9.2.1-1)
REM options -cpp -mtune=generic -march=x86-64 -g -O0 -fpre-include=/usr/include/finclude/math-vector-fortran.h
REM seed -1741802796 704184703 -1189161249 -1789898699 -1224433425 1775511489 1324510759 1058203672 -1733892822 -773974087 -13300319 -1400956620 -1080452765 2072510325 2076951685 671217483 751389412 -791970713 -30456878 1828106964 -799435748 -903195881 1453663812 1807480418 349012582 -1269868029 846093046 1201200856 1986756336 -332424852 656677307 232477709 -682146613
REM
CELL 1.54180   50.00000   50.00000   50.00000   90.00000   90.00000   90.00000
LATT -1
SFAC C  
C      1  0.4221950000000  0.5215990000000  0.4546240000000 1.0
C      1  0.5375100000000  0.4650040000000  0.4636030000000 1.0
C      1  0.4491630000000  0.4842380000000  0.4315100000000 1.0
C      1  0.4742320000000  0.5370540000000  0.4964580000000 1.0
C      1  0.5230280000000  0.5674440000000  0.4524320000000 1.0
C      1  0.5066620000000  0.5109960000000  0.4384280000000 1.0
C      1  0.4586670000000  0.4763130000000  0.4764120000000 1.0
C      1  0.4644430000000  0.4882360000000  0.5618870000000 1.0
C      1  0.5732490000000  0.5333240000000  0.5318800000000 1.0
C      1  0.5990970000000  0.4270580000000  0.4705950000000 1.0
C      1  0.5805820000000  0.4513650000000  0.5114640000000 1.0
C      1  0.4669600000000  0.4423530000000  0.4984250000000 1.0
C      1  0.5482420000000  0.4479700000000  0.4884850000000 1.0
C      1  0.4505630000000  0.5589910000000  0.4639070000000 1.0
C      1  0.4187870000000  0.4985100000000  0.4964020000000 1.0
C      1  0.4968760000000  0.4491170000000  0.4942790000000 1.0
C      1  0.4348820000000  0.4324000000000  0.5017450000000 1.0
C      1  0.4796840000000  0.4844410000000  0.5011500000000 1.0
C      1  0.5457260000000  0.5180180000000  0.4011260000000 1.0
C      1  0.4626630000000  0.5133240000000  0.4342030000000 1.0
C      1  0.4572130000000  0.5092910000000  0.4986610000000 1.0
C      1  0.4115740000000  0.4764340000000  0.4811590000000 1.0
C      1  0.4911620000000  0.4607320000000  0.4156740000000 1.0
C      1  0.5487720000000  0.4692770000000  0.5509170000000 1.0
C      1  0.4977580000000  0.4810810000000  0.4519600000000 1.0
C      1  0.5068120000000  0.4970790000000  0.5851950000000 1.0
C      1  0.5235550000000  0.5657050000000  0.4831750000000 1.0
C      1  0.5097470000000  0.5503170000000  0.5912960000000 1.0
C      1  0.5113510000000  0.4759010000000  0.5386670000000 1.0
C      1  0.5042570000000  0.4770500000000  0.4822820000000 1.0
C      1  0.4925680000000  0.5266220000000  0.5378480000000 1.0
C      1  0.5058870000000  0.4817300000000  0.6292970000000 1.0
C      1  0.4937230000000  0.5605520000000  0.5357560000000 1.0
C      1  0.5085960000000  0.5639310000000  0.6145570000000 1.0
C      1  0.5059220000000  0.4247350000000  0.4640800000000 1.0
C      1  0.5709740000000  0.5580350000000  0.5086020000000 1.0
C      1  0.5473340000000  0.4898450000000  0.5659410000000 1.0
C      1  0.4929880000000  0.5766790000000  0.4873040000000 1.0
C      1  0.5415130000000  0.5175000000000  0.5503230000000 1.0
C      1  0.4217780000000  0.5248200000000  0.4853090000000 1.0
C      1  0.5764060000000  0.4309540000000  0.4858570000000 1.0
C      1  0.5116910000000  0.5034000000000  0.5538730000000 1.0
C      1  0.4642580000000  0.5192930000000  0.5303920000000 1.0
C      1  0.4369690000000  0.4975390000000  0.5480850000000 1.0
C      1  0.4948010000000  0.5632500000000  0.4441220000000 1.0
C      1  0.4503950000000  0.5057440000000  0.4650980000000 1.0
C      1  0.5186750000000  0.4841590000000  0.6055890000000 1.0
C      1  0.4847200000000  0.5392090000000  0.5791400000000 1.0
C      1  0.5224540000000  0.4366710000000  0.5070530000000 1.0
C      1  0.4752210000000  0.5750590000000  0.4627810000000 1.0
C      1  0.4986150000000  0.5354240000000  0.4545660000000 1.0
C      1  0.5435860000000  0.4740480000000  0.6026450000000 1.0
C      1  0.4981610000000  0.5348210000000  0.4822710000000 1.0
C      1  0.5455650000000  0.5690940000000  0.5064330000000 1.0
C      1  0.5255680000000  0.5344530000000  0.4964570000000 1.0
C      1  0.4767530000000  0.4219370000000  0.4729850000000 1.0
C      1  0.4344010000000  0.4541240000000  0.4784300000000 1.0
C      1  0.5716300000000  0.4756570000000  0.5191350000000 1.0
C      1  0.4811430000000  0.5103110000000  0.5787300000000 1.0
C      1  0.4874120000000  0.5104970000000  0.4121650000000 1.0
C      1  0.4547380000000  0.4608510000000  0.5215360000000 1.0
C      1  0.4808740000000  0.4789570000000  0.5334300000000 1.0
C      1  0.5392240000000  0.4769790000000  0.5192070000000 1.0
C      1  0.4450180000000  0.5391570000000  0.4438280000000 1.0
C      1  0.4709330000000  0.4638160000000  0.4401770000000 1.0
C      1  0.5415490000000  0.5543390000000  0.4379370000000 1.0
C      1  0.4539950000000  0.5583130000000  0.5136500000000 1.0
C      1  0.4678370000000  0.3954810000000  0.4744010000000 1.0
C      1  0.5585030000000  0.5432020000000  0.5605650000000 1.0
C      1  0.5057260000000  0.4830990000000  0.4099940000000 1.0
C      1  0.5320560000000  0.5631550000000  0.5298990000000 1.0
C      1  0.4822890000000  0.5728460000000  0.5121350000000 1.0
C      1  0.4365380000000  0.5273050000000  0.5483840000000 1.0
C      1  0.5701540000000  0.5209730000000  0.5003530000000 1.0
C      1  0.4281490000000  0.4290010000000  0.5277780000000 1.0
C      1  0.5671130000000  0.5384580000000  0.4427850000000 1.0
C      1  0.5452230000000  0.5133940000000  0.4851690000000 1.0
C      1  0.5361090000000  0.5221320000000  0.4284020000000 1.0
C      1  0.4374710000000  0.5504650000000  0.4884440000000 1.0
C      1  0.5198600000000  0.4465070000000  0.5361110000000 1.0
C      1  0.5340780000000  0.5458650000000  0.5771990000000 1.0
C      1  0.5116220000000  0.4500770000000  0.4537040000000 1.0
C      1  0.5532190000000  0.5116500000000  0.4558500000000 1.0
C      1  0.4738870000000  0.5555650000000  0.5580560000000 1.0
C      1  0.4831160000000  0.5255350000000  0.3865710000000 1.0
C      1  0.4385310000000  0.4887960000000  0.5183540000000 1.0
C      1  0.5814360000000  0.5014500000000  0.5223270000000 1.0
C      1  0.4489620000000  0.5536140000000  0.5437120000000 1.0
C      1  0.5254510000000  0.4158440000000  0.4828410000000 1.0
C      1  0.5518380000000  0.4089190000000  0.4808900000000 1.0
C      1  0.5454150000000  0.4847830000000  0.4415610000000 1.0
C      1  0.5336510000000  0.4849370000000  0.4908370000000 1.0
C      1  0.4435680000000  0.4453400000000  0.5470100000000 1.0
C      1  0.5226200000000  0.5324090000000  0.5287290000000 1.0
C      1  0.4588100000000  0.4437520000000  0.4593390000000 1.0
C      1  0.4516500000000  0.4589660000000  0.5692270000000 1.0
C      1  0.5336670000000  0.4833560000000  0.4167810000000 1.0
END
