TITL C-2847950-6905-347 0.00719991855660579 125000 -1034.01329378809 0 0 197 (C1) n - 1
REM
REM in /home/bkarasulu/work/CARBON/AIRSS/Generating-Clusters/AIREBO/with-SteepDescent/Only-C1/SD-CG-opt/Try1-1.4A-POS3A/HFTN-CG
REM
REM
REM
REM
REM
REM ./C.cell (11c1c37f851c82e70ff6c80c92926a4b)
REM
REM compiler GCC version 9.2.1 20190827 (Red Hat 9.2.1-1)
REM options -cpp -mtune=generic -march=x86-64 -g -O0 -fpre-include=/usr/include/finclude/math-vector-fortran.h
REM seed -493479986 -534967087 1460386213 1217084855 722626448 -741556740 -1649400476 -1044639473 -1465008203 1623562388 -2118288211 39144618 1759265132 -1335172497 1645524217 1526917280 -10231320 1460087052 -663698338 1593659724 -2077133490 -1425573985 576523516 283636745 1618145332 1514453694 1904245875 -982406208 1954061128 1901613471 -1307787838 453649667 1215151854
REM
CELL 1.54180   50.00000   50.00000   50.00000   90.00000   90.00000   90.00000
LATT -1
SFAC C  
C      1  0.4622900000000  0.4384540000000  0.4606570000000 1.0
C      1  0.5880450000000  0.4881430000000  0.5916180000000 1.0
C      1  0.5654660000000  0.4886430000000  0.4397890000000 1.0
C      1  0.5113390000000  0.5821420000000  0.5296210000000 1.0
C      1  0.4960880000000  0.5673640000000  0.5030620000000 1.0
C      1  0.5465970000000  0.5678870000000  0.4560160000000 1.0
C      1  0.5200390000000  0.4448450000000  0.4574770000000 1.0
C      1  0.4480090000000  0.4529790000000  0.5277180000000 1.0
C      1  0.5041530000000  0.6072570000000  0.4393180000000 1.0
C      1  0.5208800000000  0.5136530000000  0.4135820000000 1.0
C      1  0.4792550000000  0.4811210000000  0.4181760000000 1.0
C      1  0.5889920000000  0.4495920000000  0.4184480000000 1.0
C      1  0.5426830000000  0.5007450000000  0.4887170000000 1.0
C      1  0.4156140000000  0.5919570000000  0.5150460000000 1.0
C      1  0.5123690000000  0.4975480000000  0.5588380000000 1.0
C      1  0.4401640000000  0.5271520000000  0.5178080000000 1.0
C      1  0.5410780000000  0.4764320000000  0.4687050000000 1.0
C      1  0.3925330000000  0.5370830000000  0.5319770000000 1.0
C      1  0.4288110000000  0.4391380000000  0.5772500000000 1.0
C      1  0.4402580000000  0.4131890000000  0.4875290000000 1.0
C      1  0.4453240000000  0.5267270000000  0.4784280000000 1.0
C      1  0.4241640000000  0.5057090000000  0.5802770000000 1.0
C      1  0.5942270000000  0.5160150000000  0.4349930000000 1.0
C      1  0.5666210000000  0.4574810000000  0.5059660000000 1.0
C      1  0.4723610000000  0.4621000000000  0.6007970000000 1.0
C      1  0.4379930000000  0.5513060000000  0.5931040000000 1.0
C      1  0.3846360000000  0.5259570000000  0.4148800000000 1.0
C      1  0.4663180000000  0.6041220000000  0.4857900000000 1.0
C      1  0.3782570000000  0.4716230000000  0.4862910000000 1.0
C      1  0.4177760000000  0.5435600000000  0.4891420000000 1.0
C      1  0.5315430000000  0.4512410000000  0.5240360000000 1.0
C      1  0.5699930000000  0.5385820000000  0.4427340000000 1.0
C      1  0.5449280000000  0.4554960000000  0.5755580000000 1.0
C      1  0.4908000000000  0.4584460000000  0.4644610000000 1.0
C      1  0.4916080000000  0.4585920000000  0.6206170000000 1.0
C      1  0.5894240000000  0.4284750000000  0.5207960000000 1.0
C      1  0.4214360000000  0.5730270000000  0.4182440000000 1.0
C      1  0.4614180000000  0.4443950000000  0.5775020000000 1.0
C      1  0.4771760000000  0.4948090000000  0.5921370000000 1.0
C      1  0.4974150000000  0.5145970000000  0.4660200000000 1.0
C      1  0.4760240000000  0.5660340000000  0.4789910000000 1.0
C      1  0.5989360000000  0.4958290000000  0.5664960000000 1.0
C      1  0.5055280000000  0.4703610000000  0.4149000000000 1.0
C      1  0.5495670000000  0.5132370000000  0.3991210000000 1.0
C      1  0.5657870000000  0.4133620000000  0.5083290000000 1.0
C      1  0.5531240000000  0.4130830000000  0.5514690000000 1.0
C      1  0.5140030000000  0.4253910000000  0.4302350000000 1.0
C      1  0.4892050000000  0.4302160000000  0.4797450000000 1.0
C      1  0.5145960000000  0.4769750000000  0.6168360000000 1.0
C      1  0.6260610000000  0.5270890000000  0.4920400000000 1.0
C      1  0.5231210000000  0.5555090000000  0.4761880000000 1.0
C      1  0.5208650000000  0.5796180000000  0.4278080000000 1.0
C      1  0.5217200000000  0.4745810000000  0.4410770000000 1.0
C      1  0.5417340000000  0.4611590000000  0.4011190000000 1.0
C      1  0.5543100000000  0.4810610000000  0.5564470000000 1.0
C      1  0.5910010000000  0.5845430000000  0.4553040000000 1.0
C      1  0.5614580000000  0.4419210000000  0.4808080000000 1.0
C      1  0.4418370000000  0.5608990000000  0.5137140000000 1.0
C      1  0.4218680000000  0.5038190000000  0.4874540000000 1.0
C      1  0.5678460000000  0.4869160000000  0.5036130000000 1.0
C      1  0.5381230000000  0.4316580000000  0.4070910000000 1.0
C      1  0.5679760000000  0.4998370000000  0.4098050000000 1.0
C      1  0.4332040000000  0.4216510000000  0.4553570000000 1.0
C      1  0.4989830000000  0.4000570000000  0.4406020000000 1.0
C      1  0.4759370000000  0.5738690000000  0.5672820000000 1.0
C      1  0.4459410000000  0.4663620000000  0.4647810000000 1.0
C      1  0.5125590000000  0.5444060000000  0.5423390000000 1.0
C      1  0.6177050000000  0.4984930000000  0.5053280000000 1.0
C      1  0.4694740000000  0.3960860000000  0.4842230000000 1.0
C      1  0.4175230000000  0.5549920000000  0.4398070000000 1.0
C      1  0.3879570000000  0.5435510000000  0.5022290000000 1.0
C      1  0.4985990000000  0.5016370000000  0.3735800000000 1.0
C      1  0.4219410000000  0.4682040000000  0.5172210000000 1.0
C      1  0.4753180000000  0.4086490000000  0.5666750000000 1.0
C      1  0.3971350000000  0.5319170000000  0.5608510000000 1.0
C      1  0.5367690000000  0.5598090000000  0.5278490000000 1.0
C      1  0.4464630000000  0.5430940000000  0.4503940000000 1.0
C      1  0.5847790000000  0.4355040000000  0.4477370000000 1.0
C      1  0.4671200000000  0.4441480000000  0.5015340000000 1.0
C      1  0.5858170000000  0.5607000000000  0.5553930000000 1.0
C      1  0.5886890000000  0.4990020000000  0.5199440000000 1.0
C      1  0.5623970000000  0.4796300000000  0.5890320000000 1.0
C      1  0.4357000000000  0.5833950000000  0.5343700000000 1.0
C      1  0.4998230000000  0.4416610000000  0.4074480000000 1.0
C      1  0.5299000000000  0.4840480000000  0.5329650000000 1.0
C      1  0.4491830000000  0.4873120000000  0.4417030000000 1.0
C      1  0.4895160000000  0.5074390000000  0.5397250000000 1.0
C      1  0.5015020000000  0.5353340000000  0.4929960000000 1.0
C      1  0.4684340000000  0.5815800000000  0.5349790000000 1.0
C      1  0.3648620000000  0.4886050000000  0.5028220000000 1.0
C      1  0.4666690000000  0.5541250000000  0.5881990000000 1.0
C      1  0.4746280000000  0.4847720000000  0.5277280000000 1.0
C      1  0.3925110000000  0.4414390000000  0.5179600000000 1.0
C      1  0.5638900000000  0.5385150000000  0.5993600000000 1.0
C      1  0.5003590000000  0.5352810000000  0.4061630000000 1.0
C      1  0.4771730000000  0.5059540000000  0.4400510000000 1.0
C      1  0.5741520000000  0.5252870000000  0.4840560000000 1.0
C      1  0.5272950000000  0.5368330000000  0.5694120000000 1.0
C      1  0.5395520000000  0.5796730000000  0.4934260000000 1.0
C      1  0.4180540000000  0.5339080000000  0.5818030000000 1.0
C      1  0.5729300000000  0.4811910000000  0.4715040000000 1.0
C      1  0.4577970000000  0.5113770000000  0.5517160000000 1.0
C      1  0.5714910000000  0.5682810000000  0.4960400000000 1.0
C      1  0.4670350000000  0.5381020000000  0.5518240000000 1.0
C      1  0.4898550000000  0.4316910000000  0.3855960000000 1.0
C      1  0.4374340000000  0.4147670000000  0.5229180000000 1.0
C      1  0.4687170000000  0.5342460000000  0.5019700000000 1.0
C      1  0.6110230000000  0.4469830000000  0.5202400000000 1.0
C      1  0.5021450000000  0.4480860000000  0.5408710000000 1.0
C      1  0.6191370000000  0.4833680000000  0.5518930000000 1.0
C      1  0.5837190000000  0.5966610000000  0.5104270000000 1.0
C      1  0.4849530000000  0.6060610000000  0.4639480000000 1.0
C      1  0.4490630000000  0.4381030000000  0.4293330000000 1.0
C      1  0.5067340000000  0.5705950000000  0.4542440000000 1.0
C      1  0.5620690000000  0.4419440000000  0.5358650000000 1.0
C      1  0.4711730000000  0.4602800000000  0.5502240000000 1.0
C      1  0.4117010000000  0.4727980000000  0.4870540000000 1.0
C      1  0.4776980000000  0.5564610000000  0.4488910000000 1.0
C      1  0.4446910000000  0.4934460000000  0.5185760000000 1.0
C      1  0.4103480000000  0.5135600000000  0.5152440000000 1.0
C      1  0.5617360000000  0.5920960000000  0.4587050000000 1.0
C      1  0.4126210000000  0.4263490000000  0.5023600000000 1.0
C      1  0.5198240000000  0.3966860000000  0.4991340000000 1.0
C      1  0.5535320000000  0.5138430000000  0.4592680000000 1.0
C      1  0.5546430000000  0.5966260000000  0.5178940000000 1.0
C      1  0.4446100000000  0.5222850000000  0.4233750000000 1.0
C      1  0.4145060000000  0.4721210000000  0.4531720000000 1.0
C      1  0.4175770000000  0.5774710000000  0.4866750000000 1.0
C      1  0.4801770000000  0.5285310000000  0.5882550000000 1.0
C      1  0.5473230000000  0.5606430000000  0.5837090000000 1.0
C      1  0.5212580000000  0.5045250000000  0.6123140000000 1.0
C      1  0.5598940000000  0.5404740000000  0.5117970000000 1.0
C      1  0.4056130000000  0.5277460000000  0.4303250000000 1.0
C      1  0.5577740000000  0.5238790000000  0.5733420000000 1.0
C      1  0.5304770000000  0.4519890000000  0.4897890000000 1.0
C      1  0.5813350000000  0.5400400000000  0.5385680000000 1.0
C      1  0.4480740000000  0.4231950000000  0.5542720000000 1.0
C      1  0.4897840000000  0.4167820000000  0.5380900000000 1.0
C      1  0.5579220000000  0.4582680000000  0.4291960000000 1.0
C      1  0.5631740000000  0.5752170000000  0.5651850000000 1.0
C      1  0.4533420000000  0.4638010000000  0.4185680000000 1.0
C      1  0.4149660000000  0.4423930000000  0.4721790000000 1.0
C      1  0.5970980000000  0.5019180000000  0.4809750000000 1.0
C      1  0.5096020000000  0.6107490000000  0.5717790000000 1.0
C      1  0.4303750000000  0.4734540000000  0.5794830000000 1.0
C      1  0.5103620000000  0.5639860000000  0.4022570000000 1.0
C      1  0.6192840000000  0.4738710000000  0.5252800000000 1.0
C      1  0.3800370000000  0.5532540000000  0.4749040000000 1.0
C      1  0.5992890000000  0.4665570000000  0.4445870000000 1.0
C      1  0.4700830000000  0.4126160000000  0.5139390000000 1.0
C      1  0.5049420000000  0.4196140000000  0.5744020000000 1.0
C      1  0.4826510000000  0.5214000000000  0.3851020000000 1.0
C      1  0.4779960000000  0.3795390000000  0.5141440000000 1.0
C      1  0.4685140000000  0.5018500000000  0.4786170000000 1.0
C      1  0.3793560000000  0.5013940000000  0.5206530000000 1.0
C      1  0.5055070000000  0.4776090000000  0.5848510000000 1.0
C      1  0.5228360000000  0.4143690000000  0.5459670000000 1.0
C      1  0.5335630000000  0.4088410000000  0.4680520000000 1.0
C      1  0.4764430000000  0.5339520000000  0.4260780000000 1.0
C      1  0.6036640000000  0.4942140000000  0.4500960000000 1.0
C      1  0.5004590000000  0.5892440000000  0.5573160000000 1.0
C      1  0.5834710000000  0.5545920000000  0.4695360000000 1.0
C      1  0.5822410000000  0.4517670000000  0.5619540000000 1.0
C      1  0.5145470000000  0.5197750000000  0.5202920000000 1.0
C      1  0.5485670000000  0.5853390000000  0.5436460000000 1.0
C      1  0.5626790000000  0.4301980000000  0.5739910000000 1.0
C      1  0.5006210000000  0.4010060000000  0.4714050000000 1.0
C      1  0.5348850000000  0.4182730000000  0.5162950000000 1.0
C      1  0.5416270000000  0.6124590000000  0.4635060000000 1.0
C      1  0.4219020000000  0.5029270000000  0.4398950000000 1.0
C      1  0.5149450000000  0.5954520000000  0.4759560000000 1.0
C      1  0.5097690000000  0.5172810000000  0.5864490000000 1.0
C      1  0.4005650000000  0.5671570000000  0.4621660000000 1.0
C      1  0.6147300000000  0.5440880000000  0.4778250000000 1.0
C      1  0.5733360000000  0.5083480000000  0.5479430000000 1.0
C      1  0.3939390000000  0.5001540000000  0.5490880000000 1.0
C      1  0.4909320000000  0.4629060000000  0.5131180000000 1.0
C      1  0.4562150000000  0.5246730000000  0.3920990000000 1.0
C      1  0.5507910000000  0.4323480000000  0.4500380000000 1.0
C      1  0.5479100000000  0.5588240000000  0.4266500000000 1.0
C      1  0.4818640000000  0.5509020000000  0.5290220000000 1.0
C      1  0.5652780000000  0.4082230000000  0.4783790000000 1.0
C      1  0.5150060000000  0.4511390000000  0.5721980000000 1.0
C      1  0.5073730000000  0.6052080000000  0.5076380000000 1.0
C      1  0.4486460000000  0.5781110000000  0.4854450000000 1.0
C      1  0.5471850000000  0.5126440000000  0.5266350000000 1.0
C      1  0.4579570000000  0.4847100000000  0.5695920000000 1.0
C      1  0.4541380000000  0.4741830000000  0.4921880000000 1.0
C      1  0.5207040000000  0.4864530000000  0.3931190000000 1.0
C      1  0.4272400000000  0.4970550000000  0.5475390000000 1.0
C      1  0.4782870000000  0.6039060000000  0.5118850000000 1.0
C      1  0.5157540000000  0.4920640000000  0.5025360000000 1.0
C      1  0.3984170000000  0.4682200000000  0.5380930000000 1.0
C      1  0.4050980000000  0.4579300000000  0.5656590000000 1.0
C      1  0.5227660000000  0.5077930000000  0.4459990000000 1.0
C      1  0.5054320000000  0.3748300000000  0.5147550000000 1.0
C      1  0.4929690000000  0.4800650000000  0.4853910000000 1.0
END
