TITL C-2848500-1637-135 0.00183450600889399 125000 -957.903479059626 0 0 177 (C1) n - 1
REM
REM in /home/bkarasulu/work/CARBON/AIRSS/Generating-Clusters/AIREBO/with-SteepDescent/Only-C1/SD-CG-opt/Try1-1.4A-POS3A/HFTN-CG
REM
REM
REM
REM
REM
REM ./C.cell (11c1c37f851c82e70ff6c80c92926a4b)
REM
REM compiler GCC version 9.2.1 20190827 (Red Hat 9.2.1-1)
REM options -cpp -mtune=generic -march=x86-64 -g -O0 -fpre-include=/usr/include/finclude/math-vector-fortran.h
REM seed -275541059 810116568 -1423224244 214016226 667288338 -510925747 940339053 831370592 -1928373704 1733285590 -750537988 -549483246 -459190591 1556705317 -1137326895 2028696103 317572324 1624017433 -173904628 -933698957 -1484274233 -237652862 -703199618 -1772317095 547250514 -60052855 -982601942 -123273869 666392609 -972968711 -993547102 -1544454883 -1785738656
REM
CELL 1.54180   50.00000   50.00000   50.00000   90.00000   90.00000   90.00000
LATT -1
SFAC C  
C      1  0.3952910000000  0.4538080000000  0.5075810000000 1.0
C      1  0.5091140000000  0.5240790000000  0.3991990000000 1.0
C      1  0.5601590000000  0.5107930000000  0.5083080000000 1.0
C      1  0.4951590000000  0.5381860000000  0.4955250000000 1.0
C      1  0.5016160000000  0.4424400000000  0.5374580000000 1.0
C      1  0.5201600000000  0.5502620000000  0.4797360000000 1.0
C      1  0.5531390000000  0.5412070000000  0.4350360000000 1.0
C      1  0.3975120000000  0.5314530000000  0.5160200000000 1.0
C      1  0.4507780000000  0.5081300000000  0.5911690000000 1.0
C      1  0.4796070000000  0.5275580000000  0.5715040000000 1.0
C      1  0.4062680000000  0.5329860000000  0.4597500000000 1.0
C      1  0.5114570000000  0.5213440000000  0.5488330000000 1.0
C      1  0.4807530000000  0.4124680000000  0.4913810000000 1.0
C      1  0.5494310000000  0.4683190000000  0.4879430000000 1.0
C      1  0.4370590000000  0.5825000000000  0.4496490000000 1.0
C      1  0.3993260000000  0.4535100000000  0.4764780000000 1.0
C      1  0.4542480000000  0.5188320000000  0.4278790000000 1.0
C      1  0.5387360000000  0.4828420000000  0.6077600000000 1.0
C      1  0.5482540000000  0.5591420000000  0.4627310000000 1.0
C      1  0.4707990000000  0.4042850000000  0.5406260000000 1.0
C      1  0.4895200000000  0.4833100000000  0.4535300000000 1.0
C      1  0.4852700000000  0.4645870000000  0.5574370000000 1.0
C      1  0.5253780000000  0.5402890000000  0.4224320000000 1.0
C      1  0.5465980000000  0.5121770000000  0.5947720000000 1.0
C      1  0.4105570000000  0.5080200000000  0.5322900000000 1.0
C      1  0.5000760000000  0.4077410000000  0.5568780000000 1.0
C      1  0.4641780000000  0.4183720000000  0.4421140000000 1.0
C      1  0.5282090000000  0.5980680000000  0.5007340000000 1.0
C      1  0.4451780000000  0.4752200000000  0.5829810000000 1.0
C      1  0.5821340000000  0.4683160000000  0.4527020000000 1.0
C      1  0.6055590000000  0.5187610000000  0.4819710000000 1.0
C      1  0.4848110000000  0.4340230000000  0.5724290000000 1.0
C      1  0.4510960000000  0.5409170000000  0.5810910000000 1.0
C      1  0.4436680000000  0.4584380000000  0.4457020000000 1.0
C      1  0.4489730000000  0.4770140000000  0.4937850000000 1.0
C      1  0.4372950000000  0.4975420000000  0.4463080000000 1.0
C      1  0.5578090000000  0.4022190000000  0.4706900000000 1.0
C      1  0.4745650000000  0.6119270000000  0.5348400000000 1.0
C      1  0.4236460000000  0.4695550000000  0.5588010000000 1.0
C      1  0.4680620000000  0.5539250000000  0.4152410000000 1.0
C      1  0.5255540000000  0.6046770000000  0.5323130000000 1.0
C      1  0.5247280000000  0.5792330000000  0.4466220000000 1.0
C      1  0.4696700000000  0.5422350000000  0.4471380000000 1.0
C      1  0.4409840000000  0.5732730000000  0.4948690000000 1.0
C      1  0.4889980000000  0.4251290000000  0.4618780000000 1.0
C      1  0.5856910000000  0.5451810000000  0.4593690000000 1.0
C      1  0.4694040000000  0.5500490000000  0.5301870000000 1.0
C      1  0.5577780000000  0.5370450000000  0.4867930000000 1.0
C      1  0.4954820000000  0.3857300000000  0.5304930000000 1.0
C      1  0.5811700000000  0.4594860000000  0.4844530000000 1.0
C      1  0.5366860000000  0.4017770000000  0.5067700000000 1.0
C      1  0.4034280000000  0.4880890000000  0.5555890000000 1.0
C      1  0.4879400000000  0.5774070000000  0.5198770000000 1.0
C      1  0.5465560000000  0.4965990000000  0.5360470000000 1.0
C      1  0.5735360000000  0.5303420000000  0.5568910000000 1.0
C      1  0.6065460000000  0.4874160000000  0.4667410000000 1.0
C      1  0.5883040000000  0.5598950000000  0.5548290000000 1.0
C      1  0.4200590000000  0.5075110000000  0.4187160000000 1.0
C      1  0.4659540000000  0.5005310000000  0.5115390000000 1.0
C      1  0.5479200000000  0.4953230000000  0.4241100000000 1.0
C      1  0.3869840000000  0.4906290000000  0.4388330000000 1.0
C      1  0.4766320000000  0.4280810000000  0.5193990000000 1.0
C      1  0.4622160000000  0.4350430000000  0.4200580000000 1.0
C      1  0.4191840000000  0.5379290000000  0.4286460000000 1.0
C      1  0.4331660000000  0.4470410000000  0.4967590000000 1.0
C      1  0.5329220000000  0.4542760000000  0.5901230000000 1.0
C      1  0.4929350000000  0.4933100000000  0.5436340000000 1.0
C      1  0.5425080000000  0.4334110000000  0.4100270000000 1.0
C      1  0.5635910000000  0.5625190000000  0.5780490000000 1.0
C      1  0.4690700000000  0.4594350000000  0.5148730000000 1.0
C      1  0.5821390000000  0.4885620000000  0.4985120000000 1.0
C      1  0.4321890000000  0.5455380000000  0.5585300000000 1.0
C      1  0.4730560000000  0.4653220000000  0.4298280000000 1.0
C      1  0.5066570000000  0.5200430000000  0.5172670000000 1.0
C      1  0.4822790000000  0.5671510000000  0.4666740000000 1.0
C      1  0.5377550000000  0.4841810000000  0.3971270000000 1.0
C      1  0.5025580000000  0.6149430000000  0.5494970000000 1.0
C      1  0.6161600000000  0.4913800000000  0.4991150000000 1.0
C      1  0.5538840000000  0.5807990000000  0.4958800000000 1.0
C      1  0.4981180000000  0.4557070000000  0.4714650000000 1.0
C      1  0.5849950000000  0.5832050000000  0.5059360000000 1.0
C      1  0.5467350000000  0.4244010000000  0.4394160000000 1.0
C      1  0.5457860000000  0.4568240000000  0.3939360000000 1.0
C      1  0.4720450000000  0.6038990000000  0.4786960000000 1.0
C      1  0.4372980000000  0.5265550000000  0.5335410000000 1.0
C      1  0.5520630000000  0.4523690000000  0.4580180000000 1.0
C      1  0.4136530000000  0.4804800000000  0.5176950000000 1.0
C      1  0.4064940000000  0.5189470000000  0.4853270000000 1.0
C      1  0.5323170000000  0.4683990000000  0.4369740000000 1.0
C      1  0.5973750000000  0.4962610000000  0.5270320000000 1.0
C      1  0.4973330000000  0.5962350000000  0.4575070000000 1.0
C      1  0.4789140000000  0.5606150000000  0.5759250000000 1.0
C      1  0.5009750000000  0.4641280000000  0.5040780000000 1.0
C      1  0.4895520000000  0.4698780000000  0.5894560000000 1.0
C      1  0.4575730000000  0.5755470000000  0.5457870000000 1.0
C      1  0.5397070000000  0.4333960000000  0.5302490000000 1.0
C      1  0.4528570000000  0.4455710000000  0.5711270000000 1.0
C      1  0.4076060000000  0.4933780000000  0.4546620000000 1.0
C      1  0.4531500000000  0.4493810000000  0.3952650000000 1.0
C      1  0.5764240000000  0.4702640000000  0.5334660000000 1.0
C      1  0.5190780000000  0.5298110000000  0.4525440000000 1.0
C      1  0.5107080000000  0.5612350000000  0.5636600000000 1.0
C      1  0.4693750000000  0.5176760000000  0.5406120000000 1.0
C      1  0.5557820000000  0.4488890000000  0.5655710000000 1.0
C      1  0.5242560000000  0.3857560000000  0.4847530000000 1.0
C      1  0.5313320000000  0.3966510000000  0.4537220000000 1.0
C      1  0.4880880000000  0.5169800000000  0.4581320000000 1.0
C      1  0.5645390000000  0.4130460000000  0.5226950000000 1.0
C      1  0.5741060000000  0.5848090000000  0.5372880000000 1.0
C      1  0.5194120000000  0.4971600000000  0.4430350000000 1.0
C      1  0.4342150000000  0.5411270000000  0.5036390000000 1.0
C      1  0.5158760000000  0.5703880000000  0.4189330000000 1.0
C      1  0.5842640000000  0.5113160000000  0.4565270000000 1.0
C      1  0.4935200000000  0.5533870000000  0.4030380000000 1.0
C      1  0.5487920000000  0.5915530000000  0.5472460000000 1.0
C      1  0.4767850000000  0.6054580000000  0.5061080000000 1.0
C      1  0.5155460000000  0.4275480000000  0.5108700000000 1.0
C      1  0.4812470000000  0.5910820000000  0.5610100000000 1.0
C      1  0.5277200000000  0.4977500000000  0.5627630000000 1.0
C      1  0.5472280000000  0.4610550000000  0.5185850000000 1.0
C      1  0.4054820000000  0.4849610000000  0.4852450000000 1.0
C      1  0.5120940000000  0.4969830000000  0.3935750000000 1.0
C      1  0.4384070000000  0.5556020000000  0.4473890000000 1.0
C      1  0.5891970000000  0.5365720000000  0.4997880000000 1.0
C      1  0.4477570000000  0.5923900000000  0.4730950000000 1.0
C      1  0.4613890000000  0.4769580000000  0.3936010000000 1.0
C      1  0.4410670000000  0.5537460000000  0.4077140000000 1.0
C      1  0.5780200000000  0.5696720000000  0.4753720000000 1.0
C      1  0.5994400000000  0.5582430000000  0.5225820000000 1.0
C      1  0.5096370000000  0.5041310000000  0.4808920000000 1.0
C      1  0.5666070000000  0.5169440000000  0.4314120000000 1.0
C      1  0.5237200000000  0.4404890000000  0.4846860000000 1.0
C      1  0.5144750000000  0.4894630000000  0.5883100000000 1.0
C      1  0.4499580000000  0.4991280000000  0.5597190000000 1.0
C      1  0.4354160000000  0.5078700000000  0.4983920000000 1.0
C      1  0.4347810000000  0.4313190000000  0.5534570000000 1.0
C      1  0.5085420000000  0.4127380000000  0.4414790000000 1.0
C      1  0.5193820000000  0.4772230000000  0.5295340000000 1.0
C      1  0.5132550000000  0.4262480000000  0.4177170000000 1.0
C      1  0.5038510000000  0.4416050000000  0.5983130000000 1.0
C      1  0.5643260000000  0.4188270000000  0.5563820000000 1.0
C      1  0.4411500000000  0.4656280000000  0.5311190000000 1.0
C      1  0.5307650000000  0.4133290000000  0.5562130000000 1.0
C      1  0.4091660000000  0.5566280000000  0.5360910000000 1.0
C      1  0.5042960000000  0.5193750000000  0.5894460000000 1.0
C      1  0.5104850000000  0.4556650000000  0.4188720000000 1.0
C      1  0.5156460000000  0.5734060000000  0.5320250000000 1.0
C      1  0.4303010000000  0.5823530000000  0.5439020000000 1.0
C      1  0.4914390000000  0.4771890000000  0.4037470000000 1.0
C      1  0.4571940000000  0.4812770000000  0.4638760000000 1.0
C      1  0.5688860000000  0.5071280000000  0.5766370000000 1.0
C      1  0.5641420000000  0.4815240000000  0.5609460000000 1.0
C      1  0.5338920000000  0.5595480000000  0.5094420000000 1.0
C      1  0.4186950000000  0.4418460000000  0.5270920000000 1.0
C      1  0.5818760000000  0.4332660000000  0.5023450000000 1.0
C      1  0.4991520000000  0.3891210000000  0.5014460000000 1.0
C      1  0.5898740000000  0.4444400000000  0.5291080000000 1.0
C      1  0.5370360000000  0.5317660000000  0.5204430000000 1.0
C      1  0.5244590000000  0.4583140000000  0.5573420000000 1.0
C      1  0.5078900000000  0.5816720000000  0.4840840000000 1.0
C      1  0.4416070000000  0.4141680000000  0.4581990000000 1.0
C      1  0.5410770000000  0.5742120000000  0.5676130000000 1.0
C      1  0.5286010000000  0.5384930000000  0.5815680000000 1.0
C      1  0.4701750000000  0.5590790000000  0.4974120000000 1.0
C      1  0.5432430000000  0.5329560000000  0.5523450000000 1.0
C      1  0.5556110000000  0.4288460000000  0.4823180000000 1.0
C      1  0.4471470000000  0.4983670000000  0.4022310000000 1.0
C      1  0.4494470000000  0.4199000000000  0.4870530000000 1.0
C      1  0.4941620000000  0.4944080000000  0.5038300000000 1.0
C      1  0.5922250000000  0.5262090000000  0.5320300000000 1.0
C      1  0.5398550000000  0.5133090000000  0.4740010000000 1.0
C      1  0.4050230000000  0.5571120000000  0.4964350000000 1.0
C      1  0.4788500000000  0.4999980000000  0.6010500000000 1.0
C      1  0.5588500000000  0.4909090000000  0.4662240000000 1.0
C      1  0.4250370000000  0.4411460000000  0.4640090000000 1.0
C      1  0.4165470000000  0.5818330000000  0.5145960000000 1.0
C      1  0.4428370000000  0.4052650000000  0.5506150000000 1.0
END
