TITL C-2847955-7945-570 -0.00186409067674722 125000 -768.832253765909 0 0 143 (C1) n - 1
REM
REM in /home/bkarasulu/work/CARBON/AIRSS/Generating-Clusters/AIREBO/with-SteepDescent/Only-C1/SD-CG-opt/Try1-1.4A-POS3A/HFTN-CG
REM
REM
REM
REM
REM
REM ./C.cell (11c1c37f851c82e70ff6c80c92926a4b)
REM
REM compiler GCC version 9.2.1 20190827 (Red Hat 9.2.1-1)
REM options -cpp -mtune=generic -march=x86-64 -g -O0 -fpre-include=/usr/include/finclude/math-vector-fortran.h
REM seed -1119463432 -2096591857 1137107257 -1670825544 1582882378 1206609044 -1842808590 901498715 290303262 -158319736 682047845 -715456351 -468931104 1740992743 570930498 309251050 -2017561920 -1847545795 -1123249314 1295825779 -1702139035 274026055 -526126147 -1700773411 1279924515 -896892778 2063383092 -1723115506 1834019314 -613458133 -1273451063 -251061894 -2139010145
REM
CELL 1.54180   50.00000   50.00000   50.00000   90.00000   90.00000   90.00000
LATT -1
SFAC C  
C      1  0.4288290000000  0.4531500000000  0.4525060000000 1.0
C      1  0.5502020000000  0.5361330000000  0.4578930000000 1.0
C      1  0.4877690000000  0.4037200000000  0.4623870000000 1.0
C      1  0.5605120000000  0.4949780000000  0.5155410000000 1.0
C      1  0.5059990000000  0.5454540000000  0.5770510000000 1.0
C      1  0.5273960000000  0.5561740000000  0.4903080000000 1.0
C      1  0.5622220000000  0.5425340000000  0.5412820000000 1.0
C      1  0.4872880000000  0.5014590000000  0.4297660000000 1.0
C      1  0.5529380000000  0.5647820000000  0.4443210000000 1.0
C      1  0.5107190000000  0.5701640000000  0.5566940000000 1.0
C      1  0.5766520000000  0.5046550000000  0.5817270000000 1.0
C      1  0.4994670000000  0.4193250000000  0.4402790000000 1.0
C      1  0.5841310000000  0.5169080000000  0.4664930000000 1.0
C      1  0.5525450000000  0.5165190000000  0.4344250000000 1.0
C      1  0.4612440000000  0.5453120000000  0.5433370000000 1.0
C      1  0.3951600000000  0.5333150000000  0.5365980000000 1.0
C      1  0.6024040000000  0.4704060000000  0.4979340000000 1.0
C      1  0.5346060000000  0.5293930000000  0.5801740000000 1.0
C      1  0.4799320000000  0.5580190000000  0.4104940000000 1.0
C      1  0.4983200000000  0.5736260000000  0.5190300000000 1.0
C      1  0.4781230000000  0.5496550000000  0.6166680000000 1.0
C      1  0.4675560000000  0.5120980000000  0.5470860000000 1.0
C      1  0.4681330000000  0.5716860000000  0.4382110000000 1.0
C      1  0.4410270000000  0.5008300000000  0.4198060000000 1.0
C      1  0.5782650000000  0.5416120000000  0.4896200000000 1.0
C      1  0.3957140000000  0.5072130000000  0.4823290000000 1.0
C      1  0.4675000000000  0.4780560000000  0.5491600000000 1.0
C      1  0.5193820000000  0.5318960000000  0.5497630000000 1.0
C      1  0.4636700000000  0.4321860000000  0.4748580000000 1.0
C      1  0.4225190000000  0.4200830000000  0.4937810000000 1.0
C      1  0.4991860000000  0.4407350000000  0.5394690000000 1.0
C      1  0.5819490000000  0.4634770000000  0.4439160000000 1.0
C      1  0.4402650000000  0.5266040000000  0.4396770000000 1.0
C      1  0.5298940000000  0.4043780000000  0.5113750000000 1.0
C      1  0.4018750000000  0.4724510000000  0.5205130000000 1.0
C      1  0.5308370000000  0.4568090000000  0.4296790000000 1.0
C      1  0.4683910000000  0.4884560000000  0.4055570000000 1.0
C      1  0.5290450000000  0.5213180000000  0.4123690000000 1.0
C      1  0.4830670000000  0.5299620000000  0.5935950000000 1.0
C      1  0.4353770000000  0.4465580000000  0.4856310000000 1.0
C      1  0.4741980000000  0.5935900000000  0.5168830000000 1.0
C      1  0.4337790000000  0.5092720000000  0.5155970000000 1.0
C      1  0.4181990000000  0.5276580000000  0.4929250000000 1.0
C      1  0.4200820000000  0.5586450000000  0.4960850000000 1.0
C      1  0.5622190000000  0.4682860000000  0.4233290000000 1.0
C      1  0.5922100000000  0.4623550000000  0.5218050000000 1.0
C      1  0.4840300000000  0.5561290000000  0.4735910000000 1.0
C      1  0.4883590000000  0.4636910000000  0.5175500000000 1.0
C      1  0.4119800000000  0.4559500000000  0.5443650000000 1.0
C      1  0.5505380000000  0.4164080000000  0.4871680000000 1.0
C      1  0.5849470000000  0.4362900000000  0.4520390000000 1.0
C      1  0.5780980000000  0.4840590000000  0.5384440000000 1.0
C      1  0.5149050000000  0.4898820000000  0.5538910000000 1.0
C      1  0.4963060000000  0.4386840000000  0.4807600000000 1.0
C      1  0.5057620000000  0.4272310000000  0.5089530000000 1.0
C      1  0.5126020000000  0.4814130000000  0.4801160000000 1.0
C      1  0.4806780000000  0.6031570000000  0.4886050000000 1.0
C      1  0.5338300000000  0.4835510000000  0.4464090000000 1.0
C      1  0.5257840000000  0.6044590000000  0.4484340000000 1.0
C      1  0.4385520000000  0.4489790000000  0.5601350000000 1.0
C      1  0.5502870000000  0.4940780000000  0.4115670000000 1.0
C      1  0.4417030000000  0.5589280000000  0.4463000000000 1.0
C      1  0.5003080000000  0.5625550000000  0.4444230000000 1.0
C      1  0.4187350000000  0.5165380000000  0.4624380000000 1.0
C      1  0.4785590000000  0.5705960000000  0.5432440000000 1.0
C      1  0.4984720000000  0.3965580000000  0.5217460000000 1.0
C      1  0.5571450000000  0.4970880000000  0.4605280000000 1.0
C      1  0.4026150000000  0.5054640000000  0.5286870000000 1.0
C      1  0.5538700000000  0.4403220000000  0.5473260000000 1.0
C      1  0.4519370000000  0.5557170000000  0.4848190000000 1.0
C      1  0.4479830000000  0.4711200000000  0.4349250000000 1.0
C      1  0.5653910000000  0.4808570000000  0.4872070000000 1.0
C      1  0.5294250000000  0.5786840000000  0.4387260000000 1.0
C      1  0.4888600000000  0.5919250000000  0.4572340000000 1.0
C      1  0.5642930000000  0.5312350000000  0.5732910000000 1.0
C      1  0.4850990000000  0.4430950000000  0.5864760000000 1.0
C      1  0.4969830000000  0.5274150000000  0.4629300000000 1.0
C      1  0.4840760000000  0.4359860000000  0.4234380000000 1.0
C      1  0.4747460000000  0.5267430000000  0.4982900000000 1.0
C      1  0.4518870000000  0.4906410000000  0.5844460000000 1.0
C      1  0.5304370000000  0.4503360000000  0.5300870000000 1.0
C      1  0.5165120000000  0.4517020000000  0.5917880000000 1.0
C      1  0.5924840000000  0.5292190000000  0.5450970000000 1.0
C      1  0.5002840000000  0.5487860000000  0.5025510000000 1.0
C      1  0.4656180000000  0.4442940000000  0.5437410000000 1.0
C      1  0.5112180000000  0.5126280000000  0.4899160000000 1.0
C      1  0.4166460000000  0.4901330000000  0.5523050000000 1.0
C      1  0.4163750000000  0.5461990000000  0.5566940000000 1.0
C      1  0.5830450000000  0.4369520000000  0.5301650000000 1.0
C      1  0.4795940000000  0.4594120000000  0.3997290000000 1.0
C      1  0.5351630000000  0.4753520000000  0.5125440000000 1.0
C      1  0.5342040000000  0.5862030000000  0.4923890000000 1.0
C      1  0.5646060000000  0.5699820000000  0.4948840000000 1.0
C      1  0.5745070000000  0.4167770000000  0.4679280000000 1.0
C      1  0.4172260000000  0.5007250000000  0.4006930000000 1.0
C      1  0.4830120000000  0.5001660000000  0.5042820000000 1.0
C      1  0.4713020000000  0.4161250000000  0.5251780000000 1.0
C      1  0.5809080000000  0.5493580000000  0.4567940000000 1.0
C      1  0.5316820000000  0.5015450000000  0.5936440000000 1.0
C      1  0.5404440000000  0.5295790000000  0.4859620000000 1.0
C      1  0.5117670000000  0.5239860000000  0.5228240000000 1.0
C      1  0.4211230000000  0.5685750000000  0.4635390000000 1.0
C      1  0.5349090000000  0.4278010000000  0.5800200000000 1.0
C      1  0.4115280000000  0.5591290000000  0.5257620000000 1.0
C      1  0.5298060000000  0.4359720000000  0.4756180000000 1.0
C      1  0.4613670000000  0.4654020000000  0.4968800000000 1.0
C      1  0.5048040000000  0.4925430000000  0.5923460000000 1.0
C      1  0.5530240000000  0.4563380000000  0.5761900000000 1.0
C      1  0.4499160000000  0.5386230000000  0.5145720000000 1.0
C      1  0.4307580000000  0.4759710000000  0.5732910000000 1.0
C      1  0.4091940000000  0.4656420000000  0.4959660000000 1.0
C      1  0.4415380000000  0.5366950000000  0.5659030000000 1.0
C      1  0.5471800000000  0.4792660000000  0.5517690000000 1.0
C      1  0.4565850000000  0.4878560000000  0.5184640000000 1.0
C      1  0.5090920000000  0.4977030000000  0.4530770000000 1.0
C      1  0.5604920000000  0.5250390000000  0.5121180000000 1.0
C      1  0.4737660000000  0.4082320000000  0.4930440000000 1.0
C      1  0.4760480000000  0.4624700000000  0.4392390000000 1.0
C      1  0.4785120000000  0.4746970000000  0.5811860000000 1.0
C      1  0.5239230000000  0.4321100000000  0.4457990000000 1.0
C      1  0.5309810000000  0.5464730000000  0.3623630000000 1.0
C      1  0.5532840000000  0.5882250000000  0.5204620000000 1.0
C      1  0.5014980000000  0.5323400000000  0.4287320000000 1.0
C      1  0.5047200000000  0.4226040000000  0.5677080000000 1.0
C      1  0.4542950000000  0.5186390000000  0.5841250000000 1.0
C      1  0.5221310000000  0.5884210000000  0.5303780000000 1.0
C      1  0.5032740000000  0.4725660000000  0.4215490000000 1.0
C      1  0.5935150000000  0.4839890000000  0.4683500000000 1.0
C      1  0.5115550000000  0.4616690000000  0.5632390000000 1.0
C      1  0.4109820000000  0.4730090000000  0.4682980000000 1.0
C      1  0.5555970000000  0.4866810000000  0.5900490000000 1.0
C      1  0.4694860000000  0.4968400000000  0.4583730000000 1.0
C      1  0.5425020000000  0.5662480000000  0.5445030000000 1.0
C      1  0.4369010000000  0.4916350000000  0.4584570000000 1.0
C      1  0.5309920000000  0.5359530000000  0.3856150000000 1.0
C      1  0.5372050000000  0.4640900000000  0.4826990000000 1.0
C      1  0.4909260000000  0.5099760000000  0.5672110000000 1.0
C      1  0.5560760000000  0.4216060000000  0.5196310000000 1.0
C      1  0.4575500000000  0.5261760000000  0.4689640000000 1.0
C      1  0.5131220000000  0.6030280000000  0.4783200000000 1.0
C      1  0.4832820000000  0.4688130000000  0.4718490000000 1.0
C      1  0.5907620000000  0.5041070000000  0.5561080000000 1.0
C      1  0.5092210000000  0.4900690000000  0.5226100000000 1.0
END
