TITL C-2847948-6138-4 0.00342996292627754 125000 -986.780246962555 0 0 186 (C1) n - 1
REM
REM in /home/bkarasulu/work/CARBON/AIRSS/Generating-Clusters/AIREBO/with-SteepDescent/Only-C1/SD-CG-opt/Try1-1.4A-POS3A/HFTN-CG
REM
REM
REM
REM
REM
REM ./C.cell (11c1c37f851c82e70ff6c80c92926a4b)
REM
REM compiler GCC version 9.2.1 20190827 (Red Hat 9.2.1-1)
REM options -cpp -mtune=generic -march=x86-64 -g -O0 -fpre-include=/usr/include/finclude/math-vector-fortran.h
REM seed 1285945681 169811556 264691748 -1338635686 -1527972635 -1722780812 -533406817 -617408621 1842338389 1698028937 -1818604196 894348353 1808692496 -2114916330 1372442769 341987170 -810061011 1065444521 -524087854 -2044647893 543737658 1592317977 1451504550 542548908 1475033918 852882835 1085749389 -804847041 1870896277 -527156114 1946190829 160311578 1968235718
REM
CELL 1.54180   50.00000   50.00000   50.00000   90.00000   90.00000   90.00000
LATT -1
SFAC C  
C      1  0.5086810000000  0.4769610000000  0.4330230000000 1.0
C      1  0.4346890000000  0.5709250000000  0.5534430000000 1.0
C      1  0.5080670000000  0.4448110000000  0.4380090000000 1.0
C      1  0.5009230000000  0.4787030000000  0.6112150000000 1.0
C      1  0.5049640000000  0.5354140000000  0.4095040000000 1.0
C      1  0.4810250000000  0.3882750000000  0.5193080000000 1.0
C      1  0.4694030000000  0.4389350000000  0.3991210000000 1.0
C      1  0.5648290000000  0.5409250000000  0.5921960000000 1.0
C      1  0.3966630000000  0.4782340000000  0.4915310000000 1.0
C      1  0.4873160000000  0.5593930000000  0.5766520000000 1.0
C      1  0.4180500000000  0.5745930000000  0.4765360000000 1.0
C      1  0.5452870000000  0.4875450000000  0.4987330000000 1.0
C      1  0.4896750000000  0.5312550000000  0.5479690000000 1.0
C      1  0.4380980000000  0.4137820000000  0.4604390000000 1.0
C      1  0.5611280000000  0.4112590000000  0.4850350000000 1.0
C      1  0.4270070000000  0.5431120000000  0.5570390000000 1.0
C      1  0.5306590000000  0.4620040000000  0.3959820000000 1.0
C      1  0.5865300000000  0.4799540000000  0.5268190000000 1.0
C      1  0.4551110000000  0.5420200000000  0.5130780000000 1.0
C      1  0.4207920000000  0.4285430000000  0.5109730000000 1.0
C      1  0.5738740000000  0.4412480000000  0.4844890000000 1.0
C      1  0.4127100000000  0.5151300000000  0.5700960000000 1.0
C      1  0.4900590000000  0.4355240000000  0.5839660000000 1.0
C      1  0.5086840000000  0.3904090000000  0.5600810000000 1.0
C      1  0.4014900000000  0.5348460000000  0.5121570000000 1.0
C      1  0.5339820000000  0.5417870000000  0.3981120000000 1.0
C      1  0.4572720000000  0.4475410000000  0.5119450000000 1.0
C      1  0.4227670000000  0.5177320000000  0.4225600000000 1.0
C      1  0.5744550000000  0.4394980000000  0.4408510000000 1.0
C      1  0.4684680000000  0.4048220000000  0.5411720000000 1.0
C      1  0.4479640000000  0.4199680000000  0.5295270000000 1.0
C      1  0.5552650000000  0.4801280000000  0.5971780000000 1.0
C      1  0.5394770000000  0.5343220000000  0.4722930000000 1.0
C      1  0.4822980000000  0.4868950000000  0.4185270000000 1.0
C      1  0.5461660000000  0.4033570000000  0.4636680000000 1.0
C      1  0.5040230000000  0.4660120000000  0.4954570000000 1.0
C      1  0.5189390000000  0.5443540000000  0.5573530000000 1.0
C      1  0.4470500000000  0.5247100000000  0.4450100000000 1.0
C      1  0.5331570000000  0.5089400000000  0.4009540000000 1.0
C      1  0.5872600000000  0.5537430000000  0.5406510000000 1.0
C      1  0.5612280000000  0.5147170000000  0.4859400000000 1.0
C      1  0.5717700000000  0.5168400000000  0.5440130000000 1.0
C      1  0.4844770000000  0.5546440000000  0.5238300000000 1.0
C      1  0.5684530000000  0.5926330000000  0.5023590000000 1.0
C      1  0.4046020000000  0.4694520000000  0.4596590000000 1.0
C      1  0.4488740000000  0.4864250000000  0.4658230000000 1.0
C      1  0.4549990000000  0.5920970000000  0.4688640000000 1.0
C      1  0.5685610000000  0.5624880000000  0.5690490000000 1.0
C      1  0.4722860000000  0.4880460000000  0.5614040000000 1.0
C      1  0.4785690000000  0.5719600000000  0.4309470000000 1.0
C      1  0.5875360000000  0.4625140000000  0.4617200000000 1.0
C      1  0.6016520000000  0.5530780000000  0.4639040000000 1.0
C      1  0.4766560000000  0.4862210000000  0.4968170000000 1.0
C      1  0.6080440000000  0.5332250000000  0.5476660000000 1.0
C      1  0.5541010000000  0.4694940000000  0.4118070000000 1.0
C      1  0.4455550000000  0.4997030000000  0.4941620000000 1.0
C      1  0.4948520000000  0.4210960000000  0.5552080000000 1.0
C      1  0.5233490000000  0.4179680000000  0.5224770000000 1.0
C      1  0.4905130000000  0.5071870000000  0.5828150000000 1.0
C      1  0.5043620000000  0.5140600000000  0.4810730000000 1.0
C      1  0.5602120000000  0.4969900000000  0.4089540000000 1.0
C      1  0.4402910000000  0.5278850000000  0.5843840000000 1.0
C      1  0.5105560000000  0.5820940000000  0.4886300000000 1.0
C      1  0.5173880000000  0.5509570000000  0.4435140000000 1.0
C      1  0.3927920000000  0.4957150000000  0.5505230000000 1.0
C      1  0.4376300000000  0.5552690000000  0.4366260000000 1.0
C      1  0.5471380000000  0.4595840000000  0.4435850000000 1.0
C      1  0.5127570000000  0.5901660000000  0.5575350000000 1.0
C      1  0.4362420000000  0.4459320000000  0.4656750000000 1.0
C      1  0.4831520000000  0.4900580000000  0.3852350000000 1.0
C      1  0.4451900000000  0.5384610000000  0.4076590000000 1.0
C      1  0.4416560000000  0.4096290000000  0.4918970000000 1.0
C      1  0.5233850000000  0.4384600000000  0.5487490000000 1.0
C      1  0.5414070000000  0.5437000000000  0.5049330000000 1.0
C      1  0.5348930000000  0.5326500000000  0.6036970000000 1.0
C      1  0.3949390000000  0.5410740000000  0.4492260000000 1.0
C      1  0.4592380000000  0.4462830000000  0.5944700000000 1.0
C      1  0.4217330000000  0.4838940000000  0.5638950000000 1.0
C      1  0.4860690000000  0.4663010000000  0.5408380000000 1.0
C      1  0.3852900000000  0.4652260000000  0.5377760000000 1.0
C      1  0.4996630000000  0.4151690000000  0.4764620000000 1.0
C      1  0.5541440000000  0.5355320000000  0.4416320000000 1.0
C      1  0.4787930000000  0.5194750000000  0.5037170000000 1.0
C      1  0.3823210000000  0.5519240000000  0.5169240000000 1.0
C      1  0.4384770000000  0.5812260000000  0.5035940000000 1.0
C      1  0.5661130000000  0.5083720000000  0.5825080000000 1.0
C      1  0.5809590000000  0.4342650000000  0.5460970000000 1.0
C      1  0.4675480000000  0.3881730000000  0.4945070000000 1.0
C      1  0.4842670000000  0.6049100000000  0.4347170000000 1.0
C      1  0.5435060000000  0.5737210000000  0.4890520000000 1.0
C      1  0.5534250000000  0.4431740000000  0.5639700000000 1.0
C      1  0.5356870000000  0.5711830000000  0.5699250000000 1.0
C      1  0.4254050000000  0.4912000000000  0.4436800000000 1.0
C      1  0.5951100000000  0.5068610000000  0.5648060000000 1.0
C      1  0.5436810000000  0.4555290000000  0.5913270000000 1.0
C      1  0.5357840000000  0.4913850000000  0.4476790000000 1.0
C      1  0.4770190000000  0.5495760000000  0.4099120000000 1.0
C      1  0.5574270000000  0.4095300000000  0.5669000000000 1.0
C      1  0.5759030000000  0.4299740000000  0.5165090000000 1.0
C      1  0.4795320000000  0.3909860000000  0.4659730000000 1.0
C      1  0.4136280000000  0.4498860000000  0.4865600000000 1.0
C      1  0.5098420000000  0.5077760000000  0.5342170000000 1.0
C      1  0.4621080000000  0.5623020000000  0.4591640000000 1.0
C      1  0.4307170000000  0.4716990000000  0.5366490000000 1.0
C      1  0.4738980000000  0.4995500000000  0.6108460000000 1.0
C      1  0.4085220000000  0.5154130000000  0.4606140000000 1.0
C      1  0.5104320000000  0.5759590000000  0.4285230000000 1.0
C      1  0.4715100000000  0.5163450000000  0.4312910000000 1.0
C      1  0.5180340000000  0.4872190000000  0.5830910000000 1.0
C      1  0.4520560000000  0.4380700000000  0.5648540000000 1.0
C      1  0.5579970000000  0.3955340000000  0.5455980000000 1.0
C      1  0.4508080000000  0.5149530000000  0.6125210000000 1.0
C      1  0.6082740000000  0.4865360000000  0.5033100000000 1.0
C      1  0.5671260000000  0.4717660000000  0.5516640000000 1.0
C      1  0.5694980000000  0.5617610000000  0.4568790000000 1.0
C      1  0.4637230000000  0.4592240000000  0.4806660000000 1.0
C      1  0.4621240000000  0.4048590000000  0.4468510000000 1.0
C      1  0.4035630000000  0.4958300000000  0.5197560000000 1.0
C      1  0.5050400000000  0.4803340000000  0.5242250000000 1.0
C      1  0.4970280000000  0.6122160000000  0.4578830000000 1.0
C      1  0.5355070000000  0.5016840000000  0.6073600000000 1.0
C      1  0.4683770000000  0.5085740000000  0.5342420000000 1.0
C      1  0.5240510000000  0.6102640000000  0.4637610000000 1.0
C      1  0.5749190000000  0.5472690000000  0.5095520000000 1.0
C      1  0.4846580000000  0.5762730000000  0.5500750000000 1.0
C      1  0.5077590000000  0.3924310000000  0.5305470000000 1.0
C      1  0.5351930000000  0.4680160000000  0.5246800000000 1.0
C      1  0.5156630000000  0.4858510000000  0.3898340000000 1.0
C      1  0.5706190000000  0.5098140000000  0.4318180000000 1.0
C      1  0.4554080000000  0.4567560000000  0.5430900000000 1.0
C      1  0.5523040000000  0.4075350000000  0.5160810000000 1.0
C      1  0.4830930000000  0.4681020000000  0.5867330000000 1.0
C      1  0.4696590000000  0.4258430000000  0.4817420000000 1.0
C      1  0.4799220000000  0.6069010000000  0.4818550000000 1.0
C      1  0.4856430000000  0.5817950000000  0.5060840000000 1.0
C      1  0.4693240000000  0.5326590000000  0.5751740000000 1.0
C      1  0.4611570000000  0.4654070000000  0.3934060000000 1.0
C      1  0.5212750000000  0.4384890000000  0.4086780000000 1.0
C      1  0.5330420000000  0.5603890000000  0.5318940000000 1.0
C      1  0.5165560000000  0.4508760000000  0.5993830000000 1.0
C      1  0.4862190000000  0.4374820000000  0.5266810000000 1.0
C      1  0.5334640000000  0.5909520000000  0.5353380000000 1.0
C      1  0.5910870000000  0.5311690000000  0.4856200000000 1.0
C      1  0.4280260000000  0.5331240000000  0.5277620000000 1.0
C      1  0.5393690000000  0.5800040000000  0.4271880000000 1.0
C      1  0.5055820000000  0.4339400000000  0.5012600000000 1.0
C      1  0.6138440000000  0.4675500000000  0.4799370000000 1.0
C      1  0.5123260000000  0.5551430000000  0.4722470000000 1.0
C      1  0.5448300000000  0.6051300000000  0.5143560000000 1.0
C      1  0.5478280000000  0.5872600000000  0.4581010000000 1.0
C      1  0.5512070000000  0.4617840000000  0.4772980000000 1.0
C      1  0.5045380000000  0.5364850000000  0.5935820000000 1.0
C      1  0.5566450000000  0.5445610000000  0.5448000000000 1.0
C      1  0.4791790000000  0.4874960000000  0.4575010000000 1.0
C      1  0.4710420000000  0.5185420000000  0.3973600000000 1.0
C      1  0.4611100000000  0.6039920000000  0.5100290000000 1.0
C      1  0.3989310000000  0.5112400000000  0.4903720000000 1.0
C      1  0.5382530000000  0.5132770000000  0.5198390000000 1.0
C      1  0.4489260000000  0.4792360000000  0.4221930000000 1.0
C      1  0.5689280000000  0.4906690000000  0.4554510000000 1.0
C      1  0.5500410000000  0.5559860000000  0.4165220000000 1.0
C      1  0.4803300000000  0.4548810000000  0.4512880000000 1.0
C      1  0.4687670000000  0.4306590000000  0.4303870000000 1.0
C      1  0.6077000000000  0.5037210000000  0.5326470000000 1.0
C      1  0.4083840000000  0.4538690000000  0.5260020000000 1.0
C      1  0.4367870000000  0.5232890000000  0.4751100000000 1.0
C      1  0.5648000000000  0.4589150000000  0.5191290000000 1.0
C      1  0.5254890000000  0.4713810000000  0.5571070000000 1.0
C      1  0.4814210000000  0.5444670000000  0.4807600000000 1.0
C      1  0.5454060000000  0.4978170000000  0.5492830000000 1.0
C      1  0.5082780000000  0.5361740000000  0.5066100000000 1.0
C      1  0.4117670000000  0.5630260000000  0.4500320000000 1.0
C      1  0.5271520000000  0.6098940000000  0.4936870000000 1.0
C      1  0.5201860000000  0.4886260000000  0.4778220000000 1.0
C      1  0.4462050000000  0.4731280000000  0.5781650000000 1.0
C      1  0.5365050000000  0.5220250000000  0.5714400000000 1.0
C      1  0.4548620000000  0.5808000000000  0.5341030000000 1.0
C      1  0.5254230000000  0.5198990000000  0.4322100000000 1.0
C      1  0.4972620000000  0.5129010000000  0.4499340000000 1.0
C      1  0.4368480000000  0.5016620000000  0.5235510000000 1.0
C      1  0.5199150000000  0.4204810000000  0.4558650000000 1.0
C      1  0.5906960000000  0.4998370000000  0.4799260000000 1.0
C      1  0.4426180000000  0.5528020000000  0.4853730000000 1.0
C      1  0.5433920000000  0.4276930000000  0.4323520000000 1.0
C      1  0.4437820000000  0.4509100000000  0.4358590000000 1.0
C      1  0.5831850000000  0.5700110000000  0.4868900000000 1.0
END
