TITL C-2848499-1157-606 -0.00280834843738061 125000 -932.388900084104 0 0 170 (C1) n - 1
REM
REM in /home/bkarasulu/work/CARBON/AIRSS/Generating-Clusters/AIREBO/with-SteepDescent/Only-C1/SD-CG-opt/Try1-1.4A-POS3A/HFTN-CG
REM
REM
REM
REM
REM
REM ./C.cell (11c1c37f851c82e70ff6c80c92926a4b)
REM
REM compiler GCC version 9.2.1 20190827 (Red Hat 9.2.1-1)
REM options -cpp -mtune=generic -march=x86-64 -g -O0 -fpre-include=/usr/include/finclude/math-vector-fortran.h
REM seed 246935584 -494009269 -2083914960 1294843315 -1968013736 -797304579 -413413582 -1768086240 -435285789 896184020 891408577 -1454568765 -240348808 483778533 -1412364025 601381926 1627466489 -542644415 167227354 679116030 -953981867 142281293 -2029340789 1525299740 1639650047 -1316245714 -1243987181 -1011092136 1771505826 1881319621 1285236018 -254486898 596370259
REM
CELL 1.54180   50.00000   50.00000   50.00000   90.00000   90.00000   90.00000
LATT -1
SFAC C  
C      1  0.4055210000000  0.5443830000000  0.4574950000000 1.0
C      1  0.5981330000000  0.5035020000000  0.5035210000000 1.0
C      1  0.5195460000000  0.5476180000000  0.4694340000000 1.0
C      1  0.4627240000000  0.5212980000000  0.5396470000000 1.0
C      1  0.5147430000000  0.4181850000000  0.5482250000000 1.0
C      1  0.4857400000000  0.5790730000000  0.5001760000000 1.0
C      1  0.5020080000000  0.5646170000000  0.5220840000000 1.0
C      1  0.5169620000000  0.5817150000000  0.4383690000000 1.0
C      1  0.4515900000000  0.4732080000000  0.4511740000000 1.0
C      1  0.4566330000000  0.5127210000000  0.4054800000000 1.0
C      1  0.5394450000000  0.5257650000000  0.4425270000000 1.0
C      1  0.4492920000000  0.5617300000000  0.5083100000000 1.0
C      1  0.4018160000000  0.5395660000000  0.4845420000000 1.0
C      1  0.4411670000000  0.6056200000000  0.5051570000000 1.0
C      1  0.5029410000000  0.4577580000000  0.5934560000000 1.0
C      1  0.5690690000000  0.4675090000000  0.4456640000000 1.0
C      1  0.5883530000000  0.4613030000000  0.4706500000000 1.0
C      1  0.4413230000000  0.5372440000000  0.5564820000000 1.0
C      1  0.4868250000000  0.3933090000000  0.5140440000000 1.0
C      1  0.3700520000000  0.4428450000000  0.4790000000000 1.0
C      1  0.4894980000000  0.5376260000000  0.5345200000000 1.0
C      1  0.5674230000000  0.6019070000000  0.4301470000000 1.0
C      1  0.5560910000000  0.5502610000000  0.4276910000000 1.0
C      1  0.4869720000000  0.5137300000000  0.5808330000000 1.0
C      1  0.5869460000000  0.5059410000000  0.5738030000000 1.0
C      1  0.4734510000000  0.4744670000000  0.5020510000000 1.0
C      1  0.5524800000000  0.4956150000000  0.4067180000000 1.0
C      1  0.5008630000000  0.5346320000000  0.4467840000000 1.0
C      1  0.5100920000000  0.5904160000000  0.4706650000000 1.0
C      1  0.5646190000000  0.5658810000000  0.4862060000000 1.0
C      1  0.5247850000000  0.4813190000000  0.5031960000000 1.0
C      1  0.5492510000000  0.4827110000000  0.5480390000000 1.0
C      1  0.4676390000000  0.4148690000000  0.4725410000000 1.0
C      1  0.5653550000000  0.4212310000000  0.5310160000000 1.0
C      1  0.5767260000000  0.4801190000000  0.4198150000000 1.0
C      1  0.5820700000000  0.4432510000000  0.5433900000000 1.0
C      1  0.5292580000000  0.4030120000000  0.4659710000000 1.0
C      1  0.5810490000000  0.5430640000000  0.5358260000000 1.0
C      1  0.4871300000000  0.5217520000000  0.4171690000000 1.0
C      1  0.5440750000000  0.5794030000000  0.5572470000000 1.0
C      1  0.4377110000000  0.5129230000000  0.4924270000000 1.0
C      1  0.4672330000000  0.4410370000000  0.5026540000000 1.0
C      1  0.4835650000000  0.4197110000000  0.5540030000000 1.0
C      1  0.4866160000000  0.5098980000000  0.4587420000000 1.0
C      1  0.5178530000000  0.5513830000000  0.5460440000000 1.0
C      1  0.4754320000000  0.4946130000000  0.6023140000000 1.0
C      1  0.4542250000000  0.5525810000000  0.5815720000000 1.0
C      1  0.3945490000000  0.5141750000000  0.4989850000000 1.0
C      1  0.5102640000000  0.5829010000000  0.5563060000000 1.0
C      1  0.5141080000000  0.4338790000000  0.4625210000000 1.0
C      1  0.4202820000000  0.4428320000000  0.4655740000000 1.0
C      1  0.5436710000000  0.4936830000000  0.5940290000000 1.0
C      1  0.4927320000000  0.5548080000000  0.4215370000000 1.0
C      1  0.4126260000000  0.5681200000000  0.4435160000000 1.0
C      1  0.4883330000000  0.5023880000000  0.4895560000000 1.0
C      1  0.5315090000000  0.5507640000000  0.5912940000000 1.0
C      1  0.4241490000000  0.5385720000000  0.5101660000000 1.0
C      1  0.5572070000000  0.5821270000000  0.5335260000000 1.0
C      1  0.4292860000000  0.4730400000000  0.4254940000000 1.0
C      1  0.5760010000000  0.4321940000000  0.4583280000000 1.0
C      1  0.4363150000000  0.5698870000000  0.4308560000000 1.0
C      1  0.5146040000000  0.4781580000000  0.4048990000000 1.0
C      1  0.4895780000000  0.4738020000000  0.6122250000000 1.0
C      1  0.5756030000000  0.5239670000000  0.4591000000000 1.0
C      1  0.4289750000000  0.4448690000000  0.4344270000000 1.0
C      1  0.4982530000000  0.4530920000000  0.5392570000000 1.0
C      1  0.5423890000000  0.4435480000000  0.5326320000000 1.0
C      1  0.5721290000000  0.5355200000000  0.5658890000000 1.0
C      1  0.6065570000000  0.5498430000000  0.5182780000000 1.0
C      1  0.5380870000000  0.3985410000000  0.4955360000000 1.0
C      1  0.5191160000000  0.5103110000000  0.4965830000000 1.0
C      1  0.4846620000000  0.4651600000000  0.4121710000000 1.0
C      1  0.4665840000000  0.4860580000000  0.4234720000000 1.0
C      1  0.4847340000000  0.4349050000000  0.4571280000000 1.0
C      1  0.5000300000000  0.4795320000000  0.4589040000000 1.0
C      1  0.5168310000000  0.5169940000000  0.5758650000000 1.0
C      1  0.6078360000000  0.4981720000000  0.5562680000000 1.0
C      1  0.4756930000000  0.3948050000000  0.4884720000000 1.0
C      1  0.5683520000000  0.5185780000000  0.4262490000000 1.0
C      1  0.5164960000000  0.4054820000000  0.5167210000000 1.0
C      1  0.5491700000000  0.4727940000000  0.5179760000000 1.0
C      1  0.4248380000000  0.4855820000000  0.4928440000000 1.0
C      1  0.5072310000000  0.4269180000000  0.4105600000000 1.0
C      1  0.6108440000000  0.4839900000000  0.4787430000000 1.0
C      1  0.5060650000000  0.5616720000000  0.5826310000000 1.0
C      1  0.5225000000000  0.4389830000000  0.5924900000000 1.0
C      1  0.4563580000000  0.5426640000000  0.4324710000000 1.0
C      1  0.5383840000000  0.4355580000000  0.5654550000000 1.0
C      1  0.4835110000000  0.5445400000000  0.5861510000000 1.0
C      1  0.5388450000000  0.5220220000000  0.4746490000000 1.0
C      1  0.5352060000000  0.5274260000000  0.4028500000000 1.0
C      1  0.5704460000000  0.5166450000000  0.5171630000000 1.0
C      1  0.4419880000000  0.4299620000000  0.4817560000000 1.0
C      1  0.4628760000000  0.5889740000000  0.5234850000000 1.0
C      1  0.4931700000000  0.6011410000000  0.5331610000000 1.0
C      1  0.4362340000000  0.4642220000000  0.5123930000000 1.0
C      1  0.5695160000000  0.4853220000000  0.5823980000000 1.0
C      1  0.4376320000000  0.5256150000000  0.5941600000000 1.0
C      1  0.5772410000000  0.4770120000000  0.4992220000000 1.0
C      1  0.5236640000000  0.4630880000000  0.4770660000000 1.0
C      1  0.5668820000000  0.4139920000000  0.5006950000000 1.0
C      1  0.4465690000000  0.4924230000000  0.5930970000000 1.0
C      1  0.4360680000000  0.4324870000000  0.5132300000000 1.0
C      1  0.4728000000000  0.5420550000000  0.5070750000000 1.0
C      1  0.4736020000000  0.5982160000000  0.5608170000000 1.0
C      1  0.4790280000000  0.5829590000000  0.4609660000000 1.0
C      1  0.6094400000000  0.4879670000000  0.5314600000000 1.0
C      1  0.3983030000000  0.5633850000000  0.5489790000000 1.0
C      1  0.5862220000000  0.5452540000000  0.4750730000000 1.0
C      1  0.4674020000000  0.4496790000000  0.5531360000000 1.0
C      1  0.5445300000000  0.4637490000000  0.3975840000000 1.0
C      1  0.5970550000000  0.4277980000000  0.5081370000000 1.0
C      1  0.4099590000000  0.4327880000000  0.5536720000000 1.0
C      1  0.4186580000000  0.4198460000000  0.5339180000000 1.0
C      1  0.3950290000000  0.4804590000000  0.5033610000000 1.0
C      1  0.5639880000000  0.5021370000000  0.4805190000000 1.0
C      1  0.4960460000000  0.4325230000000  0.5140510000000 1.0
C      1  0.5479930000000  0.4816980000000  0.4644920000000 1.0
C      1  0.5640040000000  0.4578970000000  0.5630710000000 1.0
C      1  0.5501980000000  0.5788490000000  0.4383870000000 1.0
C      1  0.4443920000000  0.4670350000000  0.5705850000000 1.0
C      1  0.4225510000000  0.4752760000000  0.4647440000000 1.0
C      1  0.5527350000000  0.5588980000000  0.5748480000000 1.0
C      1  0.5566840000000  0.5538870000000  0.5157910000000 1.0
C      1  0.5269760000000  0.4413930000000  0.5030460000000 1.0
C      1  0.5092520000000  0.4608970000000  0.4335160000000 1.0
C      1  0.4601210000000  0.5116070000000  0.4447180000000 1.0
C      1  0.4404470000000  0.5265250000000  0.4652300000000 1.0
C      1  0.5971050000000  0.4593960000000  0.5207560000000 1.0
C      1  0.4303480000000  0.4905220000000  0.5418120000000 1.0
C      1  0.4986570000000  0.4712050000000  0.5654730000000 1.0
C      1  0.5501770000000  0.4334980000000  0.4805820000000 1.0
C      1  0.4042130000000  0.4920850000000  0.4498440000000 1.0
C      1  0.5063710000000  0.5014810000000  0.5334260000000 1.0
C      1  0.5277130000000  0.5210820000000  0.5456860000000 1.0
C      1  0.4906100000000  0.5509350000000  0.4817200000000 1.0
C      1  0.4798450000000  0.4963700000000  0.5524720000000 1.0
C      1  0.4794050000000  0.4353070000000  0.4263640000000 1.0
C      1  0.3940010000000  0.4758290000000  0.5341830000000 1.0
C      1  0.5006850000000  0.4744390000000  0.5191030000000 1.0
C      1  0.5418790000000  0.4633660000000  0.4299910000000 1.0
C      1  0.5585730000000  0.5118520000000  0.5465330000000 1.0
C      1  0.5345080000000  0.5218420000000  0.6006040000000 1.0
C      1  0.4178080000000  0.5199550000000  0.4418280000000 1.0
C      1  0.3932630000000  0.4547460000000  0.4825000000000 1.0
C      1  0.4154320000000  0.4631530000000  0.5554130000000 1.0
C      1  0.4563250000000  0.5856260000000  0.4844180000000 1.0
C      1  0.4734360000000  0.3968970000000  0.5391580000000 1.0
C      1  0.4485450000000  0.4290590000000  0.4236430000000 1.0
C      1  0.5440410000000  0.4275740000000  0.4476470000000 1.0
C      1  0.4185870000000  0.5493840000000  0.5410100000000 1.0
C      1  0.4742020000000  0.4635930000000  0.4698250000000 1.0
C      1  0.4631780000000  0.5518240000000  0.4642110000000 1.0
C      1  0.4594090000000  0.5827860000000  0.5739680000000 1.0
C      1  0.5246720000000  0.5567830000000  0.4164490000000 1.0
C      1  0.4700810000000  0.5737780000000  0.4317490000000 1.0
C      1  0.5263290000000  0.4967730000000  0.4464190000000 1.0
C      1  0.4641080000000  0.5130510000000  0.5065720000000 1.0
C      1  0.4291330000000  0.5003770000000  0.4176020000000 1.0
C      1  0.4352710000000  0.5069460000000  0.5658420000000 1.0
C      1  0.5155370000000  0.5069650000000  0.4165810000000 1.0
C      1  0.5344850000000  0.4354100000000  0.4158690000000 1.0
C      1  0.5289630000000  0.4792850000000  0.5721680000000 1.0
C      1  0.5045940000000  0.6057550000000  0.5008540000000 1.0
C      1  0.4600910000000  0.4763580000000  0.5333170000000 1.0
C      1  0.5392980000000  0.5727560000000  0.4692550000000 1.0
C      1  0.5380760000000  0.5283340000000  0.5141230000000 1.0
C      1  0.6047700000000  0.5352600000000  0.4945510000000 1.0
C      1  0.5701950000000  0.5903640000000  0.5080890000000 1.0
C      1  0.4135910000000  0.5091590000000  0.5239800000000 1.0
END
