TITL C-2848508-1660-96 3.72656322371238e-05 125000 -275.18901197493 0 0 50 (C1) n - 1
REM
REM in /home/bkarasulu/work/CARBON/AIRSS/Generating-Clusters/AIREBO/with-SteepDescent/Only-C1/SD-CG-opt/Try1-1.4A-POS3A/HFTN-CG
REM
REM
REM
REM
REM
REM ./C.cell (11c1c37f851c82e70ff6c80c92926a4b)
REM
REM compiler GCC version 9.2.1 20190827 (Red Hat 9.2.1-1)
REM options -cpp -mtune=generic -march=x86-64 -g -O0 -fpre-include=/usr/include/finclude/math-vector-fortran.h
REM seed -1825547006 1913909349 -229976322 572983443 1757449962 1206854980 -150344118 -723011319 748691056 1807816047 1156811826 428483966 -457655776 798929047 65227575 1636621201 2129433859 -693123988 749962802 -199722900 -1024607566 -1027971832 -299663127 2008021229 1554693829 1463877560 -324265795 -683034019 -246526572 -690804727 1799542811 -1815652523 -614840545
REM
CELL 1.54180   50.00000   50.00000   50.00000   90.00000   90.00000   90.00000
LATT -1
SFAC C  
C      1  0.5293310000000  0.4963460000000  0.5571360000000 1.0
C      1  0.4887470000000  0.5528490000000  0.5410050000000 1.0
C      1  0.4369960000000  0.5095090000000  0.5272780000000 1.0
C      1  0.4688550000000  0.5153630000000  0.4425660000000 1.0
C      1  0.5058150000000  0.4811480000000  0.4292610000000 1.0
C      1  0.4896210000000  0.5002010000000  0.4756860000000 1.0
C      1  0.5793870000000  0.4708350000000  0.4960920000000 1.0
C      1  0.4449230000000  0.5357270000000  0.5358820000000 1.0
C      1  0.5120800000000  0.5221720000000  0.4899000000000 1.0
C      1  0.5386970000000  0.4727360000000  0.4681710000000 1.0
C      1  0.5100830000000  0.5213860000000  0.5684020000000 1.0
C      1  0.4686860000000  0.5336210000000  0.5527430000000 1.0
C      1  0.4948680000000  0.4411110000000  0.4830730000000 1.0
C      1  0.4981860000000  0.5735320000000  0.4816130000000 1.0
C      1  0.5281470000000  0.5181110000000  0.4468040000000 1.0
C      1  0.4801360000000  0.4674610000000  0.4761190000000 1.0
C      1  0.5229050000000  0.4426140000000  0.4685390000000 1.0
C      1  0.4534910000000  0.4917650000000  0.4388390000000 1.0
C      1  0.4699810000000  0.5418530000000  0.5137180000000 1.0
C      1  0.4513930000000  0.4758420000000  0.4619560000000 1.0
C      1  0.5129320000000  0.5476970000000  0.5551510000000 1.0
C      1  0.4575120000000  0.5337970000000  0.4608870000000 1.0
C      1  0.4494510000000  0.5335690000000  0.4879020000000 1.0
C      1  0.4576330000000  0.4651320000000  0.5255230000000 1.0
C      1  0.4779080000000  0.5096430000000  0.5061900000000 1.0
C      1  0.5580200000000  0.5359920000000  0.5209310000000 1.0
C      1  0.4807380000000  0.4182050000000  0.4736540000000 1.0
C      1  0.4329630000000  0.4860280000000  0.4829310000000 1.0
C      1  0.4992110000000  0.5078330000000  0.4439690000000 1.0
C      1  0.4338130000000  0.5112860000000  0.4985010000000 1.0
C      1  0.5335000000000  0.5193360000000  0.5361370000000 1.0
C      1  0.5401600000000  0.5038340000000  0.4931800000000 1.0
C      1  0.4860220000000  0.5047820000000  0.5478390000000 1.0
C      1  0.5409020000000  0.4624800000000  0.5237040000000 1.0
C      1  0.4703170000000  0.4406000000000  0.5254600000000 1.0
C      1  0.5039500000000  0.4758880000000  0.5474780000000 1.0
C      1  0.4959610000000  0.4412230000000  0.5136910000000 1.0
C      1  0.5485700000000  0.4998370000000  0.4543420000000 1.0
C      1  0.4617940000000  0.4827470000000  0.4998110000000 1.0
C      1  0.4562090000000  0.4908960000000  0.5385440000000 1.0
C      1  0.5263370000000  0.5399660000000  0.4646750000000 1.0
C      1  0.5060530000000  0.5161430000000  0.5228150000000 1.0
C      1  0.5133900000000  0.4577470000000  0.5272410000000 1.0
C      1  0.4947550000000  0.5511180000000  0.4941490000000 1.0
C      1  0.5142290000000  0.4633380000000  0.4469090000000 1.0
C      1  0.5703790000000  0.5126640000000  0.4687000000000 1.0
C      1  0.5512330000000  0.4741920000000  0.4978440000000 1.0
C      1  0.5501890000000  0.4737090000000  0.5476310000000 1.0
C      1  0.5626320000000  0.5243590000000  0.4960940000000 1.0
C      1  0.5409090000000  0.5517760000000  0.5433320000000 1.0
END
