TITL C-2848499-1157-78 0.000667267008785095 125000 -353.654675203215 0 0 68 (C1) n - 1
REM
REM in /home/bkarasulu/work/CARBON/AIRSS/Generating-Clusters/AIREBO/with-SteepDescent/Only-C1/SD-CG-opt/Try1-1.4A-POS3A/HFTN-CG
REM
REM
REM
REM
REM
REM ./C.cell (11c1c37f851c82e70ff6c80c92926a4b)
REM
REM compiler GCC version 9.2.1 20190827 (Red Hat 9.2.1-1)
REM options -cpp -mtune=generic -march=x86-64 -g -O0 -fpre-include=/usr/include/finclude/math-vector-fortran.h
REM seed 694860818 -2088205648 -1222399579 -1064733548 1945974409 1317738931 -2023240916 1991536634 -243392969 -1548293343 1118888221 -1333398745 232274675 599214444 1075651773 -1319498010 255122632 1716302539 -637161690 -1496514597 -247115398 2069495356 483825838 -283738667 722889556 1408729632 -925100812 -164359184 1379681785 -1692698685 158023174 -2077727219 1102056522
REM
CELL 1.54180   50.00000   50.00000   50.00000   90.00000   90.00000   90.00000
LATT -1
SFAC C  
C      1  0.5331670000000  0.5069650000000  0.4825910000000 1.0
C      1  0.4304390000000  0.4712020000000  0.5106500000000 1.0
C      1  0.5012260000000  0.5819100000000  0.5240000000000 1.0
C      1  0.4742920000000  0.5662700000000  0.5261180000000 1.0
C      1  0.5300520000000  0.4948500000000  0.4335250000000 1.0
C      1  0.5211540000000  0.5541520000000  0.4701410000000 1.0
C      1  0.5212580000000  0.5455690000000  0.4443720000000 1.0
C      1  0.4875130000000  0.4730770000000  0.4180680000000 1.0
C      1  0.5456450000000  0.4499710000000  0.5137120000000 1.0
C      1  0.4490420000000  0.5278280000000  0.5540440000000 1.0
C      1  0.5148630000000  0.5254500000000  0.5272530000000 1.0
C      1  0.5602520000000  0.5192370000000  0.4695720000000 1.0
C      1  0.5630960000000  0.4808030000000  0.4794210000000 1.0
C      1  0.5139760000000  0.4483280000000  0.4455410000000 1.0
C      1  0.5077360000000  0.4842260000000  0.4801530000000 1.0
C      1  0.5151830000000  0.4705880000000  0.4271680000000 1.0
C      1  0.4409750000000  0.4976380000000  0.5530180000000 1.0
C      1  0.4849750000000  0.5175870000000  0.4316080000000 1.0
C      1  0.5703920000000  0.4944890000000  0.5109630000000 1.0
C      1  0.4253520000000  0.4926190000000  0.5286780000000 1.0
C      1  0.4691240000000  0.5013260000000  0.4540580000000 1.0
C      1  0.4858870000000  0.4889710000000  0.5803720000000 1.0
C      1  0.5131150000000  0.4917520000000  0.5229840000000 1.0
C      1  0.4208710000000  0.5172690000000  0.5145270000000 1.0
C      1  0.4371010000000  0.4624320000000  0.4531990000000 1.0
C      1  0.4777660000000  0.5377710000000  0.5096120000000 1.0
C      1  0.4699070000000  0.3986470000000  0.5191110000000 1.0
C      1  0.5182360000000  0.4973160000000  0.5721370000000 1.0
C      1  0.4641530000000  0.4730820000000  0.4422670000000 1.0
C      1  0.4932930000000  0.5004420000000  0.5492290000000 1.0
C      1  0.5135800000000  0.5198330000000  0.4337210000000 1.0
C      1  0.5271710000000  0.5683070000000  0.5242940000000 1.0
C      1  0.4775080000000  0.4529930000000  0.5212490000000 1.0
C      1  0.4901770000000  0.5008030000000  0.5010200000000 1.0
C      1  0.4413750000000  0.4554010000000  0.4822680000000 1.0
C      1  0.4717730000000  0.5490690000000  0.5529350000000 1.0
C      1  0.4715140000000  0.4225630000000  0.5103350000000 1.0
C      1  0.5857870000000  0.5178080000000  0.4915580000000 1.0
C      1  0.4462100000000  0.5288910000000  0.5003660000000 1.0
C      1  0.4648610000000  0.4560060000000  0.5495320000000 1.0
C      1  0.4705150000000  0.5302130000000  0.4119890000000 1.0
C      1  0.5395610000000  0.4819710000000  0.5039500000000 1.0
C      1  0.4617750000000  0.4730550000000  0.5016590000000 1.0
C      1  0.5419030000000  0.5157430000000  0.5561690000000 1.0
C      1  0.4703780000000  0.4387090000000  0.4836870000000 1.0
C      1  0.5529520000000  0.4928200000000  0.4510480000000 1.0
C      1  0.5005490000000  0.5380880000000  0.4899600000000 1.0
C      1  0.4607700000000  0.5037840000000  0.4870760000000 1.0
C      1  0.5211870000000  0.4393490000000  0.4970520000000 1.0
C      1  0.4975650000000  0.5334780000000  0.5561630000000 1.0
C      1  0.5319220000000  0.5329220000000  0.5021910000000 1.0
C      1  0.5808990000000  0.5318070000000  0.5203170000000 1.0
C      1  0.5546560000000  0.5275970000000  0.5269300000000 1.0
C      1  0.5284940000000  0.4355150000000  0.4647400000000 1.0
C      1  0.5424370000000  0.5638000000000  0.4942480000000 1.0
C      1  0.4825560000000  0.4476260000000  0.4532530000000 1.0
C      1  0.5537730000000  0.4898970000000  0.5403200000000 1.0
C      1  0.4611210000000  0.4799370000000  0.5637940000000 1.0
C      1  0.5284590000000  0.5464280000000  0.5503050000000 1.0
C      1  0.5689010000000  0.5470560000000  0.4854860000000 1.0
C      1  0.5376150000000  0.4652780000000  0.5401040000000 1.0
C      1  0.4692240000000  0.5157010000000  0.5314830000000 1.0
C      1  0.4989530000000  0.4565710000000  0.4815070000000 1.0
C      1  0.4147610000000  0.4612290000000  0.4399880000000 1.0
C      1  0.5078450000000  0.4581670000000  0.5221400000000 1.0
C      1  0.4952160000000  0.5139650000000  0.4700600000000 1.0
C      1  0.4477140000000  0.5625100000000  0.5052480000000 1.0
C      1  0.5483060000000  0.5733420000000  0.5537560000000 1.0
END
