TITL C-2848496-4490-272 -0.000712190197130014 125000 -315.114289375126 0 0 60 (C1) n - 1
REM
REM in /home/bkarasulu/work/CARBON/AIRSS/Generating-Clusters/AIREBO/with-SteepDescent/Only-C1/SD-CG-opt/Try1-1.4A-POS3A/HFTN-CG
REM
REM
REM
REM
REM
REM ./C.cell (11c1c37f851c82e70ff6c80c92926a4b)
REM
REM compiler GCC version 9.2.1 20190827 (Red Hat 9.2.1-1)
REM options -cpp -mtune=generic -march=x86-64 -g -O0 -fpre-include=/usr/include/finclude/math-vector-fortran.h
REM seed 1544945993 72944609 -1693742449 1600127046 1874150627 -1832323141 -562230720 -925667215 -885527537 -1280412556 1089829316 1138243870 -303169455 -1690146934 -127858092 -704164036 -1706685888 -1937069235 -1594734731 911642329 -1735910028 -792101018 -1680771518 -1279157511 1317060427 -894068126 -478723803 -400675413 -1681530417 -834301613 -1458278185 1303743841 201877086
REM
CELL 1.54180   50.00000   50.00000   50.00000   90.00000   90.00000   90.00000
LATT -1
SFAC C  
C      1  0.5652200000000  0.4878690000000  0.4728410000000 1.0
C      1  0.4958920000000  0.5108910000000  0.4986770000000 1.0
C      1  0.5267690000000  0.4792800000000  0.4689250000000 1.0
C      1  0.4985040000000  0.5255200000000  0.4559620000000 1.0
C      1  0.5296000000000  0.4397700000000  0.4634940000000 1.0
C      1  0.4892170000000  0.5775490000000  0.5350490000000 1.0
C      1  0.4404200000000  0.4700240000000  0.4659810000000 1.0
C      1  0.4802770000000  0.5379260000000  0.4992910000000 1.0
C      1  0.4551830000000  0.4879140000000  0.4424210000000 1.0
C      1  0.5198610000000  0.4537880000000  0.5235430000000 1.0
C      1  0.5139070000000  0.4682400000000  0.5744880000000 1.0
C      1  0.5383640000000  0.4884170000000  0.5215670000000 1.0
C      1  0.4727850000000  0.5532680000000  0.5287470000000 1.0
C      1  0.4481970000000  0.5024760000000  0.4724960000000 1.0
C      1  0.4665870000000  0.4228740000000  0.5304150000000 1.0
C      1  0.4824030000000  0.4833850000000  0.5459670000000 1.0
C      1  0.5828710000000  0.5081600000000  0.4936440000000 1.0
C      1  0.5147770000000  0.4718930000000  0.4448720000000 1.0
C      1  0.4455830000000  0.5364630000000  0.5188850000000 1.0
C      1  0.5492990000000  0.4591260000000  0.4815970000000 1.0
C      1  0.4583770000000  0.5831630000000  0.4803960000000 1.0
C      1  0.5239890000000  0.4167020000000  0.4954010000000 1.0
C      1  0.4738260000000  0.5207810000000  0.5350950000000 1.0
C      1  0.5577500000000  0.5440920000000  0.5245230000000 1.0
C      1  0.5632140000000  0.4861940000000  0.5073420000000 1.0
C      1  0.4618580000000  0.4920770000000  0.5202960000000 1.0
C      1  0.5628690000000  0.5269640000000  0.4798570000000 1.0
C      1  0.5099890000000  0.5755190000000  0.4928590000000 1.0
C      1  0.4432080000000  0.4552830000000  0.5311640000000 1.0
C      1  0.4776180000000  0.4431680000000  0.4604810000000 1.0
C      1  0.4371770000000  0.5087630000000  0.5250260000000 1.0
C      1  0.5364670000000  0.5314120000000  0.4992250000000 1.0
C      1  0.4542630000000  0.4477920000000  0.4750070000000 1.0
C      1  0.5136520000000  0.5774110000000  0.5209020000000 1.0
C      1  0.4803820000000  0.5661450000000  0.4803190000000 1.0
C      1  0.5226210000000  0.5260190000000  0.5298190000000 1.0
C      1  0.5365470000000  0.4402910000000  0.5054990000000 1.0
C      1  0.4737520000000  0.4880710000000  0.4896920000000 1.0
C      1  0.5315320000000  0.5588310000000  0.5295420000000 1.0
C      1  0.4861260000000  0.4641890000000  0.4440130000000 1.0
C      1  0.5009990000000  0.4331180000000  0.4779230000000 1.0
C      1  0.5148630000000  0.5461830000000  0.4775050000000 1.0
C      1  0.5505980000000  0.5133850000000  0.4553140000000 1.0
C      1  0.4846250000000  0.4945070000000  0.4581100000000 1.0
C      1  0.5046650000000  0.5711100000000  0.4567490000000 1.0
C      1  0.4650990000000  0.5290150000000  0.4612880000000 1.0
C      1  0.4583510000000  0.4422190000000  0.5060090000000 1.0
C      1  0.5290720000000  0.5242330000000  0.4408700000000 1.0
C      1  0.5009740000000  0.4551070000000  0.5483330000000 1.0
C      1  0.5197930000000  0.4951420000000  0.5720940000000 1.0
C      1  0.5236280000000  0.5036080000000  0.4844460000000 1.0
C      1  0.5071080000000  0.4809290000000  0.5103370000000 1.0
C      1  0.4444840000000  0.5538200000000  0.4573230000000 1.0
C      1  0.4487040000000  0.5429430000000  0.4877090000000 1.0
C      1  0.5396760000000  0.5042790000000  0.5491370000000 1.0
C      1  0.5634800000000  0.5259250000000  0.5444520000000 1.0
C      1  0.4821510000000  0.4305580000000  0.5486230000000 1.0
C      1  0.4539190000000  0.4673090000000  0.5505440000000 1.0
C      1  0.4863940000000  0.4573380000000  0.4967910000000 1.0
C      1  0.5004820000000  0.5115720000000  0.5511260000000 1.0
END
