TITL C-2848497-6229-46 0.0052447492138653 125000 -868.682835631261 0 0 164 (C1) n - 1
REM
REM in /home/bkarasulu/work/CARBON/AIRSS/Generating-Clusters/AIREBO/with-SteepDescent/Only-C1/SD-CG-opt/Try1-1.4A-POS3A/HFTN-CG
REM
REM
REM
REM
REM
REM ./C.cell (11c1c37f851c82e70ff6c80c92926a4b)
REM
REM compiler GCC version 9.2.1 20190827 (Red Hat 9.2.1-1)
REM options -cpp -mtune=generic -march=x86-64 -g -O0 -fpre-include=/usr/include/finclude/math-vector-fortran.h
REM seed 423080031 1148454187 -1243476438 -153233463 153213842 592236559 1366697178 -1344222604 945271137 -1360491230 1015802486 98205738 999373772 -1267987045 -931594864 -1143031492 1064564519 -281924380 1622869276 -33435887 -366716732 1654138237 1230303966 1064269634 -1915493594 -1413291900 -892146558 -1844534254 378615789 635178727 1706501092 668835436 1860171509
REM
CELL 1.54180   50.00000   50.00000   50.00000   90.00000   90.00000   90.00000
LATT -1
SFAC C  
C      1  0.4581240000000  0.5186320000000  0.4866880000000 1.0
C      1  0.5340720000000  0.3928590000000  0.4755920000000 1.0
C      1  0.4386060000000  0.5335030000000  0.5791350000000 1.0
C      1  0.5522320000000  0.4326610000000  0.4687980000000 1.0
C      1  0.4601320000000  0.4430890000000  0.5772600000000 1.0
C      1  0.4215020000000  0.4289740000000  0.4479390000000 1.0
C      1  0.5346740000000  0.5879190000000  0.5102090000000 1.0
C      1  0.3967940000000  0.4808870000000  0.4910720000000 1.0
C      1  0.4639400000000  0.5700540000000  0.5683700000000 1.0
C      1  0.5475090000000  0.6018170000000  0.4815600000000 1.0
C      1  0.4715230000000  0.5218740000000  0.4226150000000 1.0
C      1  0.4696840000000  0.4914500000000  0.5952740000000 1.0
C      1  0.4908300000000  0.5546810000000  0.4872490000000 1.0
C      1  0.4368520000000  0.5428770000000  0.4476100000000 1.0
C      1  0.5444600000000  0.5167480000000  0.5989210000000 1.0
C      1  0.4009840000000  0.4738220000000  0.5301760000000 1.0
C      1  0.4161200000000  0.5299960000000  0.4600240000000 1.0
C      1  0.4801630000000  0.5746800000000  0.5130660000000 1.0
C      1  0.5060820000000  0.5462260000000  0.5790090000000 1.0
C      1  0.4277960000000  0.4785940000000  0.5010370000000 1.0
C      1  0.5177720000000  0.5753140000000  0.4851530000000 1.0
C      1  0.5095060000000  0.5389080000000  0.5243840000000 1.0
C      1  0.5939340000000  0.4883010000000  0.5309470000000 1.0
C      1  0.4765930000000  0.5807950000000  0.4208970000000 1.0
C      1  0.5168200000000  0.5200790000000  0.5509390000000 1.0
C      1  0.5345630000000  0.5356610000000  0.5757400000000 1.0
C      1  0.5273790000000  0.4906900000000  0.5984420000000 1.0
C      1  0.5834100000000  0.4629570000000  0.5508970000000 1.0
C      1  0.5418280000000  0.4501700000000  0.4115170000000 1.0
C      1  0.4646360000000  0.4731900000000  0.4247160000000 1.0
C      1  0.5167940000000  0.4618080000000  0.5731930000000 1.0
C      1  0.4101520000000  0.4428240000000  0.4982330000000 1.0
C      1  0.4655790000000  0.4846150000000  0.5117680000000 1.0
C      1  0.5035190000000  0.4513360000000  0.4003060000000 1.0
C      1  0.5146200000000  0.5296930000000  0.3907640000000 1.0
C      1  0.4501600000000  0.5703860000000  0.4387140000000 1.0
C      1  0.5797160000000  0.4978930000000  0.5088660000000 1.0
C      1  0.4858560000000  0.5380290000000  0.5958460000000 1.0
C      1  0.4505250000000  0.4801550000000  0.3945020000000 1.0
C      1  0.4412280000000  0.5500460000000  0.5258810000000 1.0
C      1  0.4904660000000  0.4288160000000  0.4165180000000 1.0
C      1  0.4214710000000  0.5118600000000  0.5236570000000 1.0
C      1  0.4496720000000  0.5070150000000  0.4097710000000 1.0
C      1  0.5695680000000  0.5179170000000  0.5829150000000 1.0
C      1  0.3906430000000  0.5011510000000  0.5154450000000 1.0
C      1  0.5536130000000  0.4226820000000  0.5292280000000 1.0
C      1  0.4333700000000  0.4754250000000  0.5344590000000 1.0
C      1  0.4412030000000  0.5036610000000  0.5893690000000 1.0
C      1  0.5143300000000  0.5478280000000  0.4397300000000 1.0
C      1  0.4641050000000  0.4609710000000  0.5361590000000 1.0
C      1  0.4258560000000  0.5080760000000  0.4841390000000 1.0
C      1  0.4506190000000  0.5101310000000  0.5187430000000 1.0
C      1  0.4911750000000  0.5945300000000  0.4884960000000 1.0
C      1  0.4616280000000  0.4158550000000  0.4746030000000 1.0
C      1  0.4643410000000  0.5217000000000  0.5446810000000 1.0
C      1  0.4193460000000  0.4875270000000  0.4578320000000 1.0
C      1  0.4632410000000  0.5253670000000  0.4537520000000 1.0
C      1  0.5206490000000  0.4814500000000  0.4683390000000 1.0
C      1  0.5046620000000  0.5152960000000  0.4187340000000 1.0
C      1  0.5970120000000  0.5102930000000  0.4855640000000 1.0
C      1  0.6139350000000  0.4643970000000  0.4986300000000 1.0
C      1  0.4968530000000  0.5018490000000  0.4592460000000 1.0
C      1  0.4746250000000  0.4457850000000  0.5075210000000 1.0
C      1  0.5810120000000  0.4367600000000  0.5333590000000 1.0
C      1  0.5559810000000  0.5275670000000  0.5211970000000 1.0
C      1  0.6095820000000  0.5544170000000  0.5145890000000 1.0
C      1  0.5460140000000  0.5019950000000  0.5067880000000 1.0
C      1  0.5517470000000  0.4792440000000  0.4735020000000 1.0
C      1  0.4152500000000  0.4816690000000  0.5694090000000 1.0
C      1  0.4991760000000  0.4232930000000  0.4485020000000 1.0
C      1  0.4265390000000  0.5805510000000  0.5290430000000 1.0
C      1  0.5608900000000  0.5744500000000  0.5468350000000 1.0
C      1  0.5715010000000  0.5848290000000  0.4955720000000 1.0
C      1  0.5075770000000  0.5315360000000  0.4688070000000 1.0
C      1  0.4882170000000  0.5038900000000  0.5526510000000 1.0
C      1  0.3615070000000  0.4767610000000  0.4493330000000 1.0
C      1  0.4256900000000  0.5417890000000  0.5549930000000 1.0
C      1  0.5624360000000  0.5237440000000  0.4525450000000 1.0
C      1  0.4820720000000  0.4162650000000  0.5226630000000 1.0
C      1  0.4984590000000  0.4789470000000  0.6045730000000 1.0
C      1  0.6101950000000  0.5389490000000  0.4916680000000 1.0
C      1  0.4673820000000  0.4611910000000  0.4625790000000 1.0
C      1  0.4383490000000  0.5712200000000  0.4800080000000 1.0
C      1  0.5194290000000  0.5788200000000  0.4441170000000 1.0
C      1  0.5306440000000  0.4117800000000  0.4528290000000 1.0
C      1  0.4836250000000  0.5502620000000  0.4304190000000 1.0
C      1  0.4503360000000  0.4219880000000  0.4497820000000 1.0
C      1  0.5128890000000  0.4702280000000  0.4215280000000 1.0
C      1  0.5092820000000  0.4354960000000  0.5243550000000 1.0
C      1  0.5476410000000  0.5802840000000  0.4549270000000 1.0
C      1  0.5236380000000  0.4260760000000  0.4236250000000 1.0
C      1  0.5271950000000  0.4400200000000  0.5502800000000 1.0
C      1  0.3936120000000  0.4504310000000  0.5182520000000 1.0
C      1  0.5103820000000  0.5859610000000  0.5498180000000 1.0
C      1  0.4406950000000  0.4473680000000  0.5056710000000 1.0
C      1  0.5511790000000  0.4683900000000  0.5057340000000 1.0
C      1  0.5725440000000  0.5457710000000  0.5020460000000 1.0
C      1  0.4908540000000  0.4042740000000  0.5615890000000 1.0
C      1  0.4427360000000  0.4223460000000  0.5590840000000 1.0
C      1  0.5456170000000  0.4658060000000  0.5880500000000 1.0
C      1  0.5570630000000  0.5374620000000  0.4159100000000 1.0
C      1  0.4710850000000  0.5570460000000  0.4620320000000 1.0
C      1  0.5302960000000  0.5450040000000  0.4100570000000 1.0
C      1  0.4394680000000  0.5012450000000  0.5557270000000 1.0
C      1  0.4868950000000  0.4373310000000  0.4769390000000 1.0
C      1  0.5121350000000  0.4807950000000  0.5453710000000 1.0
C      1  0.4714850000000  0.4789450000000  0.5638620000000 1.0
C      1  0.5261880000000  0.4579940000000  0.4474630000000 1.0
C      1  0.5940710000000  0.4272780000000  0.5031810000000 1.0
C      1  0.4800870000000  0.5913730000000  0.5520660000000 1.0
C      1  0.5433270000000  0.4687070000000  0.5388200000000 1.0
C      1  0.5594990000000  0.5076280000000  0.4138020000000 1.0
C      1  0.4705960000000  0.5546290000000  0.5388150000000 1.0
C      1  0.4491070000000  0.4228270000000  0.5278330000000 1.0
C      1  0.5005630000000  0.5564110000000  0.5516460000000 1.0
C      1  0.5019210000000  0.4836960000000  0.4945010000000 1.0
C      1  0.4350840000000  0.4879670000000  0.4305600000000 1.0
C      1  0.4514850000000  0.5917350000000  0.4627740000000 1.0
C      1  0.5484840000000  0.4071050000000  0.4991230000000 1.0
C      1  0.4366650000000  0.4586970000000  0.4574430000000 1.0
C      1  0.4674160000000  0.4427570000000  0.4339910000000 1.0
C      1  0.4903000000000  0.4876000000000  0.4299970000000 1.0
C      1  0.5708240000000  0.4597380000000  0.5807520000000 1.0
C      1  0.4602340000000  0.5501630000000  0.5879650000000 1.0
C      1  0.6084940000000  0.5034760000000  0.4384680000000 1.0
C      1  0.5489240000000  0.4900280000000  0.4409170000000 1.0
C      1  0.4948870000000  0.5937570000000  0.4408810000000 1.0
C      1  0.5490840000000  0.5621230000000  0.4836430000000 1.0
C      1  0.5898430000000  0.5103100000000  0.4557860000000 1.0
C      1  0.4424800000000  0.4687060000000  0.5783680000000 1.0
C      1  0.4787950000000  0.6001150000000  0.4647010000000 1.0
C      1  0.5859490000000  0.5471780000000  0.4707570000000 1.0
C      1  0.4876100000000  0.5245300000000  0.5026360000000 1.0
C      1  0.5587450000000  0.5524150000000  0.5639710000000 1.0
C      1  0.4726220000000  0.4885130000000  0.4791120000000 1.0
C      1  0.5338960000000  0.4969680000000  0.5658950000000 1.0
C      1  0.5353940000000  0.5538060000000  0.5136530000000 1.0
C      1  0.5626270000000  0.5226300000000  0.5500180000000 1.0
C      1  0.5602770000000  0.4780060000000  0.4046140000000 1.0
C      1  0.5977320000000  0.4775110000000  0.4772350000000 1.0
C      1  0.4053410000000  0.5287350000000  0.5017680000000 1.0
C      1  0.5097660000000  0.4234680000000  0.5743920000000 1.0
C      1  0.4795010000000  0.4345230000000  0.5509810000000 1.0
C      1  0.4557920000000  0.5907800000000  0.5307120000000 1.0
C      1  0.5365500000000  0.5877510000000  0.5401220000000 1.0
C      1  0.4915700000000  0.4493230000000  0.5886810000000 1.0
C      1  0.4519610000000  0.4071010000000  0.4981010000000 1.0
C      1  0.5313400000000  0.5183700000000  0.4398380000000 1.0
C      1  0.4075230000000  0.5510770000000  0.5273530000000 1.0
C      1  0.5205200000000  0.4423700000000  0.4763700000000 1.0
C      1  0.4450080000000  0.5490440000000  0.4943900000000 1.0
C      1  0.4895770000000  0.5125040000000  0.6073040000000 1.0
C      1  0.5815870000000  0.5709840000000  0.5229910000000 1.0
C      1  0.5819420000000  0.4579650000000  0.5081740000000 1.0
C      1  0.5179520000000  0.5113780000000  0.4946710000000 1.0
C      1  0.4067930000000  0.4488960000000  0.4694160000000 1.0
C      1  0.5357080000000  0.4381170000000  0.5047710000000 1.0
C      1  0.5670890000000  0.5548280000000  0.4434970000000 1.0
C      1  0.5575990000000  0.4590470000000  0.4395680000000 1.0
C      1  0.5761170000000  0.4568770000000  0.4656320000000 1.0
C      1  0.3885470000000  0.4746130000000  0.4608640000000 1.0
C      1  0.5002230000000  0.4659340000000  0.5178570000000 1.0
C      1  0.5764790000000  0.4142590000000  0.4841230000000 1.0
C      1  0.5629470000000  0.4897080000000  0.5555780000000 1.0
END
