TITL C-2848501-3133-274 0.00303010942145103 125000 -719.568087651193 0 0 139 (C1) n - 1
REM
REM in /home/bkarasulu/work/CARBON/AIRSS/Generating-Clusters/AIREBO/with-SteepDescent/Only-C1/SD-CG-opt/Try1-1.4A-POS3A/HFTN-CG
REM
REM
REM
REM
REM
REM ./C.cell (11c1c37f851c82e70ff6c80c92926a4b)
REM
REM compiler GCC version 9.2.1 20190827 (Red Hat 9.2.1-1)
REM options -cpp -mtune=generic -march=x86-64 -g -O0 -fpre-include=/usr/include/finclude/math-vector-fortran.h
REM seed 1879837907 789290942 -236851601 -54125348 696881286 1164542513 793980975 -184721412 -867967474 -1322139151 791432622 -1993393027 816248021 -919118336 2109356661 577987545 -1105969701 -1636633317 -1823134096 1294338957 959371320 -790464511 -2126695452 -378446190 -1963370543 492189731 872197465 1445152527 988667899 -1201895282 917232436 2016871756 468161988
REM
CELL 1.54180   50.00000   50.00000   50.00000   90.00000   90.00000   90.00000
LATT -1
SFAC C  
C      1  0.5710680000000  0.4360770000000  0.5323390000000 1.0
C      1  0.5014750000000  0.5198540000000  0.4103560000000 1.0
C      1  0.4989690000000  0.5599430000000  0.4989140000000 1.0
C      1  0.4714590000000  0.4379780000000  0.4551800000000 1.0
C      1  0.5899460000000  0.5483950000000  0.5062070000000 1.0
C      1  0.5169300000000  0.4788030000000  0.4978050000000 1.0
C      1  0.5775630000000  0.5444970000000  0.4745780000000 1.0
C      1  0.5279500000000  0.4390910000000  0.4872670000000 1.0
C      1  0.4649270000000  0.4917280000000  0.5437730000000 1.0
C      1  0.4670340000000  0.5111440000000  0.4601220000000 1.0
C      1  0.4305560000000  0.4664500000000  0.4327320000000 1.0
C      1  0.4941420000000  0.4043400000000  0.4709100000000 1.0
C      1  0.5129560000000  0.5943020000000  0.4841550000000 1.0
C      1  0.5523650000000  0.4942020000000  0.5858270000000 1.0
C      1  0.5005350000000  0.4259370000000  0.4454040000000 1.0
C      1  0.4283170000000  0.4775820000000  0.5341150000000 1.0
C      1  0.5379820000000  0.4827520000000  0.5572170000000 1.0
C      1  0.4743370000000  0.4772720000000  0.4261990000000 1.0
C      1  0.5355760000000  0.5664920000000  0.5431440000000 1.0
C      1  0.4665190000000  0.4975650000000  0.5089890000000 1.0
C      1  0.5236160000000  0.4496480000000  0.5782520000000 1.0
C      1  0.4573920000000  0.5602480000000  0.4180040000000 1.0
C      1  0.5021940000000  0.4172140000000  0.5356710000000 1.0
C      1  0.5451700000000  0.4255340000000  0.5315650000000 1.0
C      1  0.5762490000000  0.4494810000000  0.5565580000000 1.0
C      1  0.4601800000000  0.4163250000000  0.5094330000000 1.0
C      1  0.5590610000000  0.5689410000000  0.4625540000000 1.0
C      1  0.4254840000000  0.5317290000000  0.5600770000000 1.0
C      1  0.4324900000000  0.5819990000000  0.5216260000000 1.0
C      1  0.5238480000000  0.5063230000000  0.5132470000000 1.0
C      1  0.4403650000000  0.5532800000000  0.4956830000000 1.0
C      1  0.4256100000000  0.4755370000000  0.4653830000000 1.0
C      1  0.5180210000000  0.4252870000000  0.5609070000000 1.0
C      1  0.4260110000000  0.5239440000000  0.5198230000000 1.0
C      1  0.5762410000000  0.4791300000000  0.4220000000000 1.0
C      1  0.4791950000000  0.5369780000000  0.4879150000000 1.0
C      1  0.5617930000000  0.5424760000000  0.5110500000000 1.0
C      1  0.5563720000000  0.5199770000000  0.4384700000000 1.0
C      1  0.4199330000000  0.4427530000000  0.4873400000000 1.0
C      1  0.4985600000000  0.4437120000000  0.4749000000000 1.0
C      1  0.5482710000000  0.4687330000000  0.5287700000000 1.0
C      1  0.5278260000000  0.5386370000000  0.5886550000000 1.0
C      1  0.4601680000000  0.5341230000000  0.5795460000000 1.0
C      1  0.5224130000000  0.4154980000000  0.5112200000000 1.0
C      1  0.5391540000000  0.4262840000000  0.4351170000000 1.0
C      1  0.4487760000000  0.5602720000000  0.5662920000000 1.0
C      1  0.4606500000000  0.4610170000000  0.5506490000000 1.0
C      1  0.4962050000000  0.5879780000000  0.5296870000000 1.0
C      1  0.5533440000000  0.4920100000000  0.4740940000000 1.0
C      1  0.4728500000000  0.4026590000000  0.4875520000000 1.0
C      1  0.5764660000000  0.4511860000000  0.5065090000000 1.0
C      1  0.5476860000000  0.4622500000000  0.4198760000000 1.0
C      1  0.5085900000000  0.5563360000000  0.5283490000000 1.0
C      1  0.5960690000000  0.5168740000000  0.5424930000000 1.0
C      1  0.4306130000000  0.4921570000000  0.4164390000000 1.0
C      1  0.5151190000000  0.4962940000000  0.4103610000000 1.0
C      1  0.5354940000000  0.5681420000000  0.4379950000000 1.0
C      1  0.6045180000000  0.5409570000000  0.5291820000000 1.0
C      1  0.4664700000000  0.5783300000000  0.5432440000000 1.0
C      1  0.4866890000000  0.5580890000000  0.5616290000000 1.0
C      1  0.5115270000000  0.5745020000000  0.5638490000000 1.0
C      1  0.4993450000000  0.5279450000000  0.5392850000000 1.0
C      1  0.4259420000000  0.5038830000000  0.5558510000000 1.0
C      1  0.5835930000000  0.5140930000000  0.4869610000000 1.0
C      1  0.5534620000000  0.4605940000000  0.5779540000000 1.0
C      1  0.5252200000000  0.5082340000000  0.5957040000000 1.0
C      1  0.5071630000000  0.4743740000000  0.5653850000000 1.0
C      1  0.4756450000000  0.4379000000000  0.5307080000000 1.0
C      1  0.5092020000000  0.5573710000000  0.4498720000000 1.0
C      1  0.4554660000000  0.4511520000000  0.4304800000000 1.0
C      1  0.5411570000000  0.4157530000000  0.4663570000000 1.0
C      1  0.5491220000000  0.5261440000000  0.4711160000000 1.0
C      1  0.4594740000000  0.5015690000000  0.4139370000000 1.0
C      1  0.5110990000000  0.4800980000000  0.4643330000000 1.0
C      1  0.4003400000000  0.4516890000000  0.4655310000000 1.0
C      1  0.5982220000000  0.5088050000000  0.4567100000000 1.0
C      1  0.4466740000000  0.4245250000000  0.5427700000000 1.0
C      1  0.4987400000000  0.5090940000000  0.4624690000000 1.0
C      1  0.4653550000000  0.5294040000000  0.4245940000000 1.0
C      1  0.4951480000000  0.5317420000000  0.4393640000000 1.0
C      1  0.5080450000000  0.5221720000000  0.4896690000000 1.0
C      1  0.4970570000000  0.4974390000000  0.5827440000000 1.0
C      1  0.4946210000000  0.4973980000000  0.5281940000000 1.0
C      1  0.4675330000000  0.5055130000000  0.5747760000000 1.0
C      1  0.5242370000000  0.5484720000000  0.4790460000000 1.0
C      1  0.6054230000000  0.4926370000000  0.5274800000000 1.0
C      1  0.3971830000000  0.4965520000000  0.4661150000000 1.0
C      1  0.5392960000000  0.5780600000000  0.4864050000000 1.0
C      1  0.4066640000000  0.4900780000000  0.5110640000000 1.0
C      1  0.4098780000000  0.4559140000000  0.5154870000000 1.0
C      1  0.5612200000000  0.5496610000000  0.4346290000000 1.0
C      1  0.5381390000000  0.5136880000000  0.5432230000000 1.0
C      1  0.4680440000000  0.5676550000000  0.5109190000000 1.0
C      1  0.4479420000000  0.4507560000000  0.4719640000000 1.0
C      1  0.5242760000000  0.4501610000000  0.5385720000000 1.0
C      1  0.4426480000000  0.4855760000000  0.5763960000000 1.0
C      1  0.5801610000000  0.4784680000000  0.5543620000000 1.0
C      1  0.4581480000000  0.5289130000000  0.5098870000000 1.0
C      1  0.5006610000000  0.4720210000000  0.4137830000000 1.0
C      1  0.5568280000000  0.5126830000000  0.5078990000000 1.0
C      1  0.5810740000000  0.5018060000000  0.4364560000000 1.0
C      1  0.5195590000000  0.4003920000000  0.4832740000000 1.0
C      1  0.4492630000000  0.4617220000000  0.5124080000000 1.0
C      1  0.4535100000000  0.5778020000000  0.4355130000000 1.0
C      1  0.5406000000000  0.4967880000000  0.4261520000000 1.0
C      1  0.4377560000000  0.5517630000000  0.5354930000000 1.0
C      1  0.4650410000000  0.4772650000000  0.4589110000000 1.0
C      1  0.4645660000000  0.5780810000000  0.4654700000000 1.0
C      1  0.4647910000000  0.5454500000000  0.4612280000000 1.0
C      1  0.4225240000000  0.5135040000000  0.4774270000000 1.0
C      1  0.5604440000000  0.5479420000000  0.5862970000000 1.0
C      1  0.4692780000000  0.5394920000000  0.5390390000000 1.0
C      1  0.5040140000000  0.6040750000000  0.5092840000000 1.0
C      1  0.4470980000000  0.5859340000000  0.4913450000000 1.0
C      1  0.5716260000000  0.4912140000000  0.5240180000000 1.0
C      1  0.4362820000000  0.5028800000000  0.4482030000000 1.0
C      1  0.5479330000000  0.4656250000000  0.4949060000000 1.0
C      1  0.4367450000000  0.4883110000000  0.4953050000000 1.0
C      1  0.4284680000000  0.4560690000000  0.5604450000000 1.0
C      1  0.5553570000000  0.4446290000000  0.4587180000000 1.0
C      1  0.4849380000000  0.4801170000000  0.4863380000000 1.0
C      1  0.3972850000000  0.5209180000000  0.5072510000000 1.0
C      1  0.4382240000000  0.5365440000000  0.4438060000000 1.0
C      1  0.5846830000000  0.4808880000000  0.4812190000000 1.0
C      1  0.4770750000000  0.4510080000000  0.4993600000000 1.0
C      1  0.5391080000000  0.4734380000000  0.4508290000000 1.0
C      1  0.5449180000000  0.5641570000000  0.5137700000000 1.0
C      1  0.4134880000000  0.5465420000000  0.4546340000000 1.0
C      1  0.4952010000000  0.5817950000000  0.4657140000000 1.0
C      1  0.4137830000000  0.5425150000000  0.4866370000000 1.0
C      1  0.5007310000000  0.5288280000000  0.5717890000000 1.0
C      1  0.4970060000000  0.4640920000000  0.5346310000000 1.0
C      1  0.6021330000000  0.4717460000000  0.5071640000000 1.0
C      1  0.4533610000000  0.4542400000000  0.5834680000000 1.0
C      1  0.4286800000000  0.4275640000000  0.5150520000000 1.0
C      1  0.5677500000000  0.5093220000000  0.5593730000000 1.0
C      1  0.5170530000000  0.4491670000000  0.4268400000000 1.0
C      1  0.5435330000000  0.5412190000000  0.5591600000000 1.0
C      1  0.5794610000000  0.4497220000000  0.4738740000000 1.0
END
