TITL C-2848498-1409-698 0.0059510995249 125000 -388.963626084198 0 0 69 (C1) n - 1
REM
REM in /home/bkarasulu/work/CARBON/AIRSS/Generating-Clusters/AIREBO/with-SteepDescent/Only-C1/SD-CG-opt/Try1-1.4A-POS3A/HFTN-CG
REM
REM
REM
REM
REM
REM ./C.cell (11c1c37f851c82e70ff6c80c92926a4b)
REM
REM compiler GCC version 9.2.1 20190827 (Red Hat 9.2.1-1)
REM options -cpp -mtune=generic -march=x86-64 -g -O0 -fpre-include=/usr/include/finclude/math-vector-fortran.h
REM seed -979886283 -1750781802 237764940 991724677 -1266153066 -934792709 1592566011 798860939 -1060234104 -844184235 1950987672 -872199039 2058901377 -1327190222 -506895886 -488485973 564010479 178278287 -1224263232 1639504521 1953197507 -1958066367 -1063828247 2090290156 1972079822 -1356975187 1243368963 -2046780949 -2096197693 -150662232 904391019 2146746094 -461800199
REM
CELL 1.54180   50.00000   50.00000   50.00000   90.00000   90.00000   90.00000
LATT -1
SFAC C  
C      1  0.4810220000000  0.4648000000000  0.5685970000000 1.0
C      1  0.4927080000000  0.4641510000000  0.4688810000000 1.0
C      1  0.4820770000000  0.4437930000000  0.5472820000000 1.0
C      1  0.4615720000000  0.5888490000000  0.5039230000000 1.0
C      1  0.5354640000000  0.5031290000000  0.4875800000000 1.0
C      1  0.5564290000000  0.4731770000000  0.5219690000000 1.0
C      1  0.5488410000000  0.4819370000000  0.4391410000000 1.0
C      1  0.5216230000000  0.4347680000000  0.5117420000000 1.0
C      1  0.5562250000000  0.5255710000000  0.5024840000000 1.0
C      1  0.5708950000000  0.4985780000000  0.5055250000000 1.0
C      1  0.4992400000000  0.4901960000000  0.5709860000000 1.0
C      1  0.5252800000000  0.4063630000000  0.4934140000000 1.0
C      1  0.4520580000000  0.5662360000000  0.4890210000000 1.0
C      1  0.4802730000000  0.4971920000000  0.5018660000000 1.0
C      1  0.5115560000000  0.5519680000000  0.5270550000000 1.0
C      1  0.4709570000000  0.4810680000000  0.4503940000000 1.0
C      1  0.5146910000000  0.4699950000000  0.4098740000000 1.0
C      1  0.5033430000000  0.5051870000000  0.5219970000000 1.0
C      1  0.5342030000000  0.4982600000000  0.5212310000000 1.0
C      1  0.4353360000000  0.5183290000000  0.5141710000000 1.0
C      1  0.4633470000000  0.5665110000000  0.4617580000000 1.0
C      1  0.5130890000000  0.5139650000000  0.4359150000000 1.0
C      1  0.5322360000000  0.5227290000000  0.4622970000000 1.0
C      1  0.4538150000000  0.4391460000000  0.5380710000000 1.0
C      1  0.5193600000000  0.5458460000000  0.4460320000000 1.0
C      1  0.4533730000000  0.4712040000000  0.5494060000000 1.0
C      1  0.4896360000000  0.5853060000000  0.4672780000000 1.0
C      1  0.4759030000000  0.4534460000000  0.4946270000000 1.0
C      1  0.4579640000000  0.4859260000000  0.5190970000000 1.0
C      1  0.5477200000000  0.5066580000000  0.5489600000000 1.0
C      1  0.4524100000000  0.5007410000000  0.5664100000000 1.0
C      1  0.4865220000000  0.5380170000000  0.5698860000000 1.0
C      1  0.4893730000000  0.5932690000000  0.4963820000000 1.0
C      1  0.5071730000000  0.4853600000000  0.4874730000000 1.0
C      1  0.5360160000000  0.4685480000000  0.5479370000000 1.0
C      1  0.5148600000000  0.4452010000000  0.4538620000000 1.0
C      1  0.4742230000000  0.4575560000000  0.4296450000000 1.0
C      1  0.5535590000000  0.4844150000000  0.4693680000000 1.0
C      1  0.5251070000000  0.5021350000000  0.5812270000000 1.0
C      1  0.4437880000000  0.5087160000000  0.5399840000000 1.0
C      1  0.4446940000000  0.4822440000000  0.4647260000000 1.0
C      1  0.5444290000000  0.4432130000000  0.5291010000000 1.0
C      1  0.4294930000000  0.5082470000000  0.4677530000000 1.0
C      1  0.4974050000000  0.4509820000000  0.5202620000000 1.0
C      1  0.4652090000000  0.5383530000000  0.4487430000000 1.0
C      1  0.5386790000000  0.5771140000000  0.5124050000000 1.0
C      1  0.5278100000000  0.4911240000000  0.4231830000000 1.0
C      1  0.4535610000000  0.4339970000000  0.5110670000000 1.0
C      1  0.4771540000000  0.5113750000000  0.5734300000000 1.0
C      1  0.5331010000000  0.4351350000000  0.4803460000000 1.0
C      1  0.4827200000000  0.5144000000000  0.4754700000000 1.0
C      1  0.4890210000000  0.5346450000000  0.5127330000000 1.0
C      1  0.5466140000000  0.4522150000000  0.4477350000000 1.0
C      1  0.5321930000000  0.5283300000000  0.5655000000000 1.0
C      1  0.5478560000000  0.4836240000000  0.5726970000000 1.0
C      1  0.4271550000000  0.4981000000000  0.4964390000000 1.0
C      1  0.5057420000000  0.4774380000000  0.5399630000000 1.0
C      1  0.4569260000000  0.5378310000000  0.5018680000000 1.0
C      1  0.5109180000000  0.5439820000000  0.5564220000000 1.0
C      1  0.5005360000000  0.4513580000000  0.4260980000000 1.0
C      1  0.5023790000000  0.5586970000000  0.4636130000000 1.0
C      1  0.5835500000000  0.4743230000000  0.4929500000000 1.0
C      1  0.4456930000000  0.4691000000000  0.4944800000000 1.0
C      1  0.5092500000000  0.5828640000000  0.5129220000000 1.0
C      1  0.5610390000000  0.4533000000000  0.4787190000000 1.0
C      1  0.4458120000000  0.5316130000000  0.4702180000000 1.0
C      1  0.4914770000000  0.5406880000000  0.4819640000000 1.0
C      1  0.4833960000000  0.5100040000000  0.4440850000000 1.0
C      1  0.5429180000000  0.5474650000000  0.5123580000000 1.0
END
