TITL C-2847944-5688-191 -0.00556885329807408 125000 -786.15804666749 0 0 149 (C1) n - 1
REM
REM in /home/bkarasulu/work/CARBON/AIRSS/Generating-Clusters/AIREBO/with-SteepDescent/Only-C1/SD-CG-opt/Try1-1.4A-POS3A/HFTN-CG
REM
REM
REM
REM
REM
REM ./C.cell (11c1c37f851c82e70ff6c80c92926a4b)
REM
REM compiler GCC version 9.2.1 20190827 (Red Hat 9.2.1-1)
REM options -cpp -mtune=generic -march=x86-64 -g -O0 -fpre-include=/usr/include/finclude/math-vector-fortran.h
REM seed -685419518 -1600234389 1103024606 308529430 362774323 -430739461 -886282856 1569446491 2076253639 1226142167 -254496178 -2082858778 1852434751 -1604489992 1271691688 1165084221 -1235530125 -420327240 -637387059 2109613457 788348618 -1926781861 639759475 2068894575 -221853429 594712799 1578899273 56038753 -663821042 -1872779166 -1674821817 536472900 -1503258494
REM
CELL 1.54180   50.00000   50.00000   50.00000   90.00000   90.00000   90.00000
LATT -1
SFAC C  
C      1  0.5317800000000  0.4690240000000  0.5264460000000 1.0
C      1  0.4429860000000  0.5351150000000  0.4092060000000 1.0
C      1  0.5582140000000  0.4374870000000  0.5559280000000 1.0
C      1  0.5109630000000  0.3960920000000  0.4876590000000 1.0
C      1  0.5139330000000  0.4641290000000  0.6013510000000 1.0
C      1  0.5039720000000  0.4949850000000  0.4222160000000 1.0
C      1  0.4177470000000  0.4996680000000  0.4452420000000 1.0
C      1  0.4210000000000  0.5215070000000  0.5503220000000 1.0
C      1  0.5856880000000  0.4740550000000  0.4309270000000 1.0
C      1  0.5185450000000  0.5461020000000  0.4902420000000 1.0
C      1  0.4761230000000  0.5148680000000  0.5898220000000 1.0
C      1  0.4617570000000  0.5159440000000  0.4385580000000 1.0
C      1  0.4921020000000  0.4441920000000  0.5546460000000 1.0
C      1  0.5434480000000  0.5841660000000  0.4631760000000 1.0
C      1  0.4257430000000  0.5752620000000  0.5233240000000 1.0
C      1  0.5633670000000  0.4940200000000  0.4736500000000 1.0
C      1  0.4388350000000  0.4839920000000  0.5893800000000 1.0
C      1  0.5332060000000  0.5347800000000  0.5178020000000 1.0
C      1  0.4785960000000  0.5197270000000  0.5562570000000 1.0
C      1  0.5795450000000  0.4965500000000  0.5304930000000 1.0
C      1  0.5626820000000  0.5461480000000  0.5164210000000 1.0
C      1  0.5701260000000  0.5248160000000  0.4609120000000 1.0
C      1  0.4655460000000  0.5618910000000  0.5778650000000 1.0
C      1  0.4698470000000  0.4852260000000  0.5156900000000 1.0
C      1  0.5559690000000  0.4827460000000  0.5850760000000 1.0
C      1  0.5712720000000  0.5650900000000  0.4898750000000 1.0
C      1  0.5872120000000  0.4625340000000  0.4571950000000 1.0
C      1  0.5595420000000  0.4569910000000  0.5109070000000 1.0
C      1  0.5232500000000  0.4830150000000  0.5752830000000 1.0
C      1  0.5200710000000  0.5119890000000  0.3898860000000 1.0
C      1  0.4531350000000  0.5541340000000  0.6049900000000 1.0
C      1  0.5386830000000  0.5732930000000  0.4950530000000 1.0
C      1  0.5197190000000  0.4211880000000  0.4659900000000 1.0
C      1  0.6162800000000  0.5119330000000  0.5329000000000 1.0
C      1  0.5457730000000  0.5805460000000  0.5276340000000 1.0
C      1  0.5080650000000  0.4619480000000  0.5030680000000 1.0
C      1  0.5697390000000  0.4405740000000  0.4616170000000 1.0
C      1  0.4719650000000  0.5913750000000  0.5232870000000 1.0
C      1  0.5213650000000  0.5913630000000  0.5430280000000 1.0
C      1  0.4983490000000  0.5707280000000  0.5762060000000 1.0
C      1  0.4465400000000  0.4718570000000  0.4135750000000 1.0
C      1  0.4557840000000  0.4881840000000  0.4411990000000 1.0
C      1  0.4146750000000  0.4887560000000  0.5431800000000 1.0
C      1  0.4439210000000  0.4152650000000  0.5058230000000 1.0
C      1  0.5521660000000  0.4181430000000  0.5053560000000 1.0
C      1  0.5249320000000  0.4438530000000  0.5829530000000 1.0
C      1  0.4886240000000  0.5038900000000  0.3931970000000 1.0
C      1  0.5297360000000  0.4378740000000  0.4926970000000 1.0
C      1  0.4749350000000  0.5258530000000  0.4894930000000 1.0
C      1  0.5256280000000  0.4442530000000  0.5489520000000 1.0
C      1  0.4658810000000  0.4104580000000  0.4734510000000 1.0
C      1  0.4107510000000  0.4816850000000  0.5120890000000 1.0
C      1  0.5705790000000  0.4192870000000  0.4790660000000 1.0
C      1  0.4974390000000  0.5727700000000  0.5363110000000 1.0
C      1  0.4417990000000  0.4565730000000  0.5134780000000 1.0
C      1  0.5623480000000  0.4879370000000  0.4235650000000 1.0
C      1  0.5020200000000  0.4092540000000  0.4304200000000 1.0
C      1  0.4442940000000  0.4853210000000  0.4824460000000 1.0
C      1  0.5199250000000  0.5315160000000  0.5617580000000 1.0
C      1  0.4377370000000  0.5617990000000  0.4662120000000 1.0
C      1  0.4685290000000  0.5736020000000  0.5498250000000 1.0
C      1  0.5019420000000  0.4768570000000  0.5538500000000 1.0
C      1  0.5217520000000  0.5493130000000  0.4584160000000 1.0
C      1  0.4982680000000  0.4943090000000  0.4993830000000 1.0
C      1  0.5209560000000  0.5379830000000  0.4286060000000 1.0
C      1  0.4527830000000  0.4163640000000  0.5351230000000 1.0
C      1  0.4606900000000  0.4571640000000  0.4773970000000 1.0
C      1  0.5453760000000  0.5731870000000  0.4370020000000 1.0
C      1  0.5007440000000  0.4079030000000  0.5157630000000 1.0
C      1  0.4224860000000  0.4610870000000  0.4883300000000 1.0
C      1  0.5270940000000  0.4182780000000  0.5272800000000 1.0
C      1  0.6070600000000  0.5060700000000  0.5031950000000 1.0
C      1  0.4824110000000  0.5237710000000  0.5226780000000 1.0
C      1  0.4572160000000  0.4443170000000  0.4481660000000 1.0
C      1  0.5690980000000  0.5311300000000  0.5656520000000 1.0
C      1  0.4005110000000  0.5347190000000  0.4985650000000 1.0
C      1  0.4262930000000  0.4440170000000  0.4623270000000 1.0
C      1  0.5319640000000  0.5025000000000  0.5204290000000 1.0
C      1  0.4902340000000  0.4393170000000  0.4417550000000 1.0
C      1  0.4747720000000  0.4534530000000  0.5057280000000 1.0
C      1  0.5210970000000  0.5104290000000  0.4472020000000 1.0
C      1  0.5529120000000  0.5328540000000  0.5955030000000 1.0
C      1  0.4860050000000  0.5191660000000  0.4298850000000 1.0
C      1  0.4726090000000  0.4953280000000  0.4770930000000 1.0
C      1  0.5477760000000  0.4958510000000  0.4453930000000 1.0
C      1  0.4842420000000  0.5925500000000  0.4599260000000 1.0
C      1  0.5432520000000  0.4905540000000  0.3989250000000 1.0
C      1  0.4485190000000  0.5027090000000  0.5283670000000 1.0
C      1  0.4476270000000  0.4593440000000  0.5956650000000 1.0
C      1  0.4222780000000  0.5181340000000  0.4241750000000 1.0
C      1  0.4763080000000  0.4224090000000  0.5023680000000 1.0
C      1  0.5390410000000  0.5053190000000  0.4915790000000 1.0
C      1  0.4744400000000  0.4758390000000  0.5710420000000 1.0
C      1  0.5463130000000  0.4657120000000  0.4816630000000 1.0
C      1  0.5205150000000  0.5776650000000  0.4245830000000 1.0
C      1  0.4505910000000  0.5544770000000  0.5281810000000 1.0
C      1  0.4853390000000  0.4773880000000  0.4528670000000 1.0
C      1  0.5439350000000  0.5217190000000  0.4125330000000 1.0
C      1  0.5168710000000  0.4711020000000  0.4417460000000 1.0
C      1  0.5587050000000  0.5564670000000  0.5479900000000 1.0
C      1  0.5047540000000  0.5147790000000  0.6054510000000 1.0
C      1  0.5378190000000  0.4477910000000  0.4550000000000 1.0
C      1  0.5704880000000  0.5932250000000  0.5086810000000 1.0
C      1  0.4740030000000  0.4755640000000  0.3949250000000 1.0
C      1  0.4466040000000  0.5446210000000  0.4416590000000 1.0
C      1  0.4409100000000  0.4359700000000  0.5522940000000 1.0
C      1  0.4351050000000  0.4152170000000  0.4750410000000 1.0
C      1  0.4905100000000  0.4851320000000  0.5979880000000 1.0
C      1  0.4497360000000  0.5880160000000  0.5064800000000 1.0
C      1  0.5836450000000  0.4749060000000  0.5104820000000 1.0
C      1  0.4954930000000  0.5648550000000  0.4437260000000 1.0
C      1  0.4739460000000  0.5457750000000  0.4618610000000 1.0
C      1  0.4281850000000  0.4576560000000  0.5387290000000 1.0
C      1  0.5673030000000  0.4319430000000  0.5295600000000 1.0
C      1  0.4486010000000  0.5357030000000  0.5050370000000 1.0
C      1  0.4213070000000  0.5045650000000  0.4724550000000 1.0
C      1  0.4273560000000  0.4694100000000  0.4397230000000 1.0
C      1  0.5158860000000  0.4382950000000  0.4194460000000 1.0
C      1  0.4811600000000  0.4154910000000  0.5411670000000 1.0
C      1  0.5837110000000  0.5254700000000  0.5149400000000 1.0
C      1  0.5252970000000  0.5288190000000  0.5937090000000 1.0
C      1  0.5940750000000  0.4839860000000  0.4815900000000 1.0
C      1  0.4923730000000  0.5467550000000  0.4149780000000 1.0
C      1  0.5442110000000  0.5079490000000  0.5655040000000 1.0
C      1  0.4520030000000  0.4993360000000  0.5620310000000 1.0
C      1  0.4596250000000  0.5789570000000  0.4790590000000 1.0
C      1  0.5283490000000  0.4643210000000  0.4106180000000 1.0
C      1  0.5138450000000  0.5150010000000  0.4772910000000 1.0
C      1  0.5602640000000  0.5427450000000  0.4337520000000 1.0
C      1  0.4128300000000  0.5532260000000  0.5408370000000 1.0
C      1  0.5061500000000  0.5432190000000  0.5338750000000 1.0
C      1  0.4625230000000  0.4449180000000  0.5714800000000 1.0
C      1  0.5937030000000  0.5168370000000  0.5523950000000 1.0
C      1  0.4248130000000  0.5114060000000  0.5055850000000 1.0
C      1  0.5683720000000  0.4614320000000  0.5671750000000 1.0
C      1  0.5562570000000  0.4832630000000  0.5453080000000 1.0
C      1  0.4686110000000  0.5312960000000  0.3961660000000 1.0
C      1  0.4999410000000  0.4534420000000  0.4711550000000 1.0
C      1  0.4250560000000  0.5461520000000  0.4859890000000 1.0
C      1  0.4505380000000  0.5389190000000  0.5569690000000 1.0
C      1  0.4511330000000  0.5263990000000  0.6011870000000 1.0
C      1  0.4699810000000  0.4492500000000  0.4163070000000 1.0
C      1  0.5125530000000  0.5866130000000  0.4778340000000 1.0
C      1  0.4292300000000  0.5156390000000  0.5814910000000 1.0
C      1  0.4893820000000  0.5627960000000  0.4850490000000 1.0
C      1  0.4920030000000  0.4023180000000  0.4608190000000 1.0
C      1  0.5277190000000  0.5633510000000  0.5606810000000 1.0
C      1  0.5030840000000  0.4987170000000  0.5327630000000 1.0
C      1  0.5751430000000  0.5544810000000  0.4628510000000 1.0
END
