TITL C-2847956-8218-276 -0.00171346515938843 125000 -860.357359045208 0 0 155 (C1) n - 1
REM
REM in /home/bkarasulu/work/CARBON/AIRSS/Generating-Clusters/AIREBO/with-SteepDescent/Only-C1/SD-CG-opt/Try1-1.4A-POS3A/HFTN-CG
REM
REM
REM
REM
REM
REM ./C.cell (11c1c37f851c82e70ff6c80c92926a4b)
REM
REM compiler GCC version 9.2.1 20190827 (Red Hat 9.2.1-1)
REM options -cpp -mtune=generic -march=x86-64 -g -O0 -fpre-include=/usr/include/finclude/math-vector-fortran.h
REM seed -578729941 -1250070146 348370408 1169962319 -2090951051 -1770046105 -1814041747 -965947401 -2133421865 835543991 884626754 -1094201549 380310573 -632537359 -1188989544 446336160 -1457502156 -913746863 598234639 -1746866874 -1651220824 -522378722 1137034254 130952224 72944930 -1902850968 -1315251093 519191581 863795236 739802695 -1218496051 -1751412736 846431875
REM
CELL 1.54180   50.00000   50.00000   50.00000   90.00000   90.00000   90.00000
LATT -1
SFAC C  
C      1  0.6018130000000  0.5058530000000  0.5299660000000 1.0
C      1  0.5413390000000  0.3991970000000  0.5003550000000 1.0
C      1  0.5203960000000  0.4009870000000  0.5270470000000 1.0
C      1  0.5397680000000  0.5188680000000  0.4525290000000 1.0
C      1  0.5281370000000  0.5391330000000  0.4095280000000 1.0
C      1  0.4681870000000  0.4325920000000  0.5289150000000 1.0
C      1  0.4266250000000  0.5050760000000  0.5771140000000 1.0
C      1  0.5579700000000  0.4933620000000  0.4457790000000 1.0
C      1  0.4955520000000  0.4742980000000  0.4465400000000 1.0
C      1  0.4515900000000  0.4868180000000  0.5656210000000 1.0
C      1  0.5546030000000  0.4548820000000  0.4553490000000 1.0
C      1  0.5473070000000  0.5352710000000  0.5683470000000 1.0
C      1  0.5151400000000  0.4345650000000  0.4789380000000 1.0
C      1  0.5153420000000  0.4332570000000  0.5715810000000 1.0
C      1  0.4356960000000  0.5004310000000  0.4849460000000 1.0
C      1  0.5098000000000  0.5523670000000  0.4753050000000 1.0
C      1  0.5018090000000  0.5170250000000  0.5365030000000 1.0
C      1  0.5385490000000  0.4151430000000  0.4779580000000 1.0
C      1  0.5447390000000  0.5853980000000  0.4963210000000 1.0
C      1  0.4636840000000  0.4328130000000  0.4454950000000 1.0
C      1  0.5208160000000  0.6074770000000  0.5028300000000 1.0
C      1  0.5430180000000  0.5538520000000  0.5304440000000 1.0
C      1  0.4464530000000  0.5212420000000  0.4409610000000 1.0
C      1  0.4162090000000  0.4504890000000  0.4934110000000 1.0
C      1  0.4594920000000  0.5363020000000  0.5051250000000 1.0
C      1  0.4961390000000  0.5912440000000  0.4260470000000 1.0
C      1  0.4472790000000  0.4588130000000  0.4330450000000 1.0
C      1  0.4957450000000  0.4548690000000  0.4186120000000 1.0
C      1  0.4814140000000  0.4024550000000  0.5350860000000 1.0
C      1  0.4412050000000  0.4371010000000  0.4658010000000 1.0
C      1  0.5290400000000  0.4940150000000  0.5892020000000 1.0
C      1  0.5432450000000  0.5783060000000  0.5490770000000 1.0
C      1  0.3980840000000  0.5147520000000  0.5268160000000 1.0
C      1  0.5643560000000  0.5106140000000  0.4829390000000 1.0
C      1  0.5934280000000  0.4422130000000  0.4902650000000 1.0
C      1  0.4565680000000  0.5687690000000  0.5746680000000 1.0
C      1  0.5209160000000  0.5614660000000  0.3937500000000 1.0
C      1  0.5188080000000  0.4621860000000  0.4957860000000 1.0
C      1  0.5599890000000  0.4157510000000  0.4570180000000 1.0
C      1  0.5073520000000  0.5027530000000  0.4973220000000 1.0
C      1  0.3968740000000  0.5317590000000  0.4541610000000 1.0
C      1  0.5737010000000  0.5146850000000  0.5245910000000 1.0
C      1  0.4188480000000  0.4512140000000  0.5215930000000 1.0
C      1  0.4622020000000  0.5490120000000  0.4365890000000 1.0
C      1  0.3885090000000  0.5062040000000  0.4596560000000 1.0
C      1  0.5797070000000  0.5683780000000  0.5363220000000 1.0
C      1  0.4551850000000  0.5237020000000  0.5804530000000 1.0
C      1  0.4202430000000  0.5547910000000  0.5389010000000 1.0
C      1  0.4785040000000  0.4462750000000  0.5646560000000 1.0
C      1  0.5856520000000  0.4627100000000  0.5727950000000 1.0
C      1  0.5466070000000  0.5398740000000  0.4297940000000 1.0
C      1  0.5781570000000  0.5447500000000  0.5607400000000 1.0
C      1  0.5536410000000  0.4716220000000  0.5821380000000 1.0
C      1  0.4635700000000  0.4343040000000  0.4983950000000 1.0
C      1  0.4963260000000  0.5694650000000  0.4053200000000 1.0
C      1  0.4887200000000  0.4112300000000  0.4539320000000 1.0
C      1  0.4949320000000  0.5630050000000  0.5237080000000 1.0
C      1  0.4678720000000  0.4889990000000  0.3994700000000 1.0
C      1  0.5152830000000  0.4587640000000  0.5510330000000 1.0
C      1  0.5716410000000  0.5401300000000  0.4671640000000 1.0
C      1  0.4387130000000  0.4142190000000  0.4908280000000 1.0
C      1  0.5864710000000  0.5625400000000  0.4864130000000 1.0
C      1  0.4449460000000  0.4141380000000  0.5455260000000 1.0
C      1  0.4341250000000  0.5752190000000  0.5503750000000 1.0
C      1  0.5982810000000  0.5244220000000  0.5545760000000 1.0
C      1  0.4814910000000  0.5021720000000  0.4388600000000 1.0
C      1  0.5175320000000  0.4773080000000  0.4132840000000 1.0
C      1  0.4661550000000  0.5805250000000  0.5449260000000 1.0
C      1  0.5074350000000  0.6016150000000  0.5250740000000 1.0
C      1  0.4924840000000  0.4446450000000  0.4570840000000 1.0
C      1  0.4872440000000  0.5255320000000  0.4567660000000 1.0
C      1  0.5061540000000  0.6076290000000  0.4495010000000 1.0
C      1  0.5826860000000  0.4408260000000  0.4605830000000 1.0
C      1  0.5649310000000  0.5602130000000  0.4403810000000 1.0
C      1  0.4810650000000  0.5216100000000  0.4872030000000 1.0
C      1  0.5076920000000  0.5388690000000  0.5996120000000 1.0
C      1  0.5177420000000  0.5216380000000  0.4709350000000 1.0
C      1  0.4911370000000  0.5300900000000  0.5643610000000 1.0
C      1  0.4828800000000  0.5589670000000  0.4612660000000 1.0
C      1  0.5683010000000  0.5411210000000  0.5224670000000 1.0
C      1  0.5316110000000  0.5238110000000  0.5935470000000 1.0
C      1  0.4171720000000  0.4963340000000  0.5456410000000 1.0
C      1  0.5315310000000  0.5102210000000  0.5515600000000 1.0
C      1  0.4301760000000  0.5671910000000  0.4792670000000 1.0
C      1  0.4880170000000  0.4564970000000  0.5336540000000 1.0
C      1  0.4110930000000  0.5369030000000  0.5165330000000 1.0
C      1  0.4882680000000  0.4185310000000  0.4869510000000 1.0
C      1  0.4678340000000  0.4621260000000  0.4091210000000 1.0
C      1  0.4331620000000  0.4763900000000  0.5310030000000 1.0
C      1  0.4642100000000  0.4604060000000  0.5991060000000 1.0
C      1  0.4806250000000  0.4772330000000  0.5669580000000 1.0
C      1  0.4661880000000  0.5817900000000  0.4284800000000 1.0
C      1  0.5533260000000  0.4410570000000  0.5241510000000 1.0
C      1  0.4597000000000  0.4039930000000  0.5717130000000 1.0
C      1  0.4940270000000  0.5944870000000  0.5475590000000 1.0
C      1  0.4770590000000  0.5485080000000  0.5883600000000 1.0
C      1  0.5287190000000  0.6031830000000  0.4700330000000 1.0
C      1  0.4666540000000  0.4922060000000  0.4963720000000 1.0
C      1  0.5665910000000  0.4804690000000  0.5531620000000 1.0
C      1  0.4851020000000  0.4177070000000  0.5724740000000 1.0
C      1  0.5493960000000  0.4145750000000  0.5262020000000 1.0
C      1  0.5398350000000  0.5097710000000  0.5036270000000 1.0
C      1  0.5218600000000  0.5349320000000  0.5160820000000 1.0
C      1  0.4523740000000  0.5779730000000  0.4909320000000 1.0
C      1  0.4954030000000  0.4960600000000  0.3944030000000 1.0
C      1  0.5973180000000  0.5222220000000  0.4538880000000 1.0
C      1  0.5388550000000  0.4032650000000  0.4397830000000 1.0
C      1  0.4530450000000  0.5135020000000  0.5483950000000 1.0
C      1  0.4276730000000  0.4810990000000  0.4181000000000 1.0
C      1  0.5983980000000  0.4796530000000  0.5085590000000 1.0
C      1  0.4528550000000  0.3984470000000  0.5165110000000 1.0
C      1  0.5180820000000  0.5656600000000  0.5020170000000 1.0
C      1  0.4719290000000  0.5838120000000  0.4728090000000 1.0
C      1  0.5073790000000  0.4271340000000  0.4130600000000 1.0
C      1  0.5313960000000  0.5030150000000  0.4259410000000 1.0
C      1  0.4995960000000  0.5621690000000  0.5568850000000 1.0
C      1  0.5023080000000  0.5184290000000  0.4173980000000 1.0
C      1  0.4295650000000  0.4408050000000  0.5484680000000 1.0
C      1  0.5409350000000  0.5541470000000  0.4712850000000 1.0
C      1  0.5953800000000  0.4687230000000  0.5406680000000 1.0
C      1  0.5121850000000  0.4099070000000  0.4336020000000 1.0
C      1  0.5088170000000  0.4037140000000  0.5553040000000 1.0
C      1  0.5455200000000  0.4663460000000  0.4293010000000 1.0
C      1  0.4996870000000  0.4849960000000  0.5252880000000 1.0
C      1  0.4956870000000  0.3963800000000  0.5058770000000 1.0
C      1  0.4931030000000  0.4774880000000  0.4797660000000 1.0
C      1  0.4243610000000  0.5289630000000  0.5533550000000 1.0
C      1  0.5728420000000  0.4494110000000  0.5084550000000 1.0
C      1  0.6002650000000  0.4698010000000  0.4753670000000 1.0
C      1  0.4773070000000  0.6065370000000  0.4578310000000 1.0
C      1  0.5222960000000  0.4607050000000  0.5904430000000 1.0
C      1  0.4832240000000  0.5091080000000  0.5902710000000 1.0
C      1  0.4557990000000  0.6103330000000  0.4364790000000 1.0
C      1  0.4356040000000  0.4690570000000  0.4718570000000 1.0
C      1  0.4702120000000  0.5130020000000  0.5245920000000 1.0
C      1  0.5491250000000  0.4919270000000  0.5304350000000 1.0
C      1  0.5105910000000  0.4878980000000  0.5635840000000 1.0
C      1  0.4262470000000  0.5382320000000  0.4623440000000 1.0
C      1  0.4826960000000  0.5459220000000  0.4133770000000 1.0
C      1  0.5467120000000  0.5807870000000  0.4567710000000 1.0
C      1  0.5288030000000  0.5610140000000  0.5670320000000 1.0
C      1  0.4641580000000  0.5644380000000  0.5155630000000 1.0
C      1  0.5724310000000  0.5767800000000  0.5052230000000 1.0
C      1  0.4519410000000  0.4885280000000  0.4489510000000 1.0
C      1  0.4314730000000  0.5305310000000  0.4948150000000 1.0
C      1  0.4045370000000  0.4908290000000  0.4755620000000 1.0
C      1  0.4935200000000  0.4776370000000  0.5980580000000 1.0
C      1  0.5453130000000  0.4645900000000  0.4795750000000 1.0
C      1  0.5325930000000  0.4626110000000  0.5252660000000 1.0
C      1  0.5848450000000  0.4939580000000  0.4615020000000 1.0
C      1  0.4452010000000  0.5031750000000  0.4124260000000 1.0
C      1  0.4545060000000  0.4649390000000  0.5100910000000 1.0
C      1  0.5673710000000  0.4799830000000  0.4945960000000 1.0
C      1  0.4473830000000  0.4552280000000  0.5698150000000 1.0
C      1  0.4077590000000  0.4246310000000  0.4827870000000 1.0
END
