TITL C-2848496-4490-215 -2.88739741977913e-05 125000 -1033.66874823091 0 0 189 (C1) n - 1
REM
REM in /home/bkarasulu/work/CARBON/AIRSS/Generating-Clusters/AIREBO/with-SteepDescent/Only-C1/SD-CG-opt/Try1-1.4A-POS3A/HFTN-CG
REM
REM
REM
REM
REM
REM ./C.cell (11c1c37f851c82e70ff6c80c92926a4b)
REM
REM compiler GCC version 9.2.1 20190827 (Red Hat 9.2.1-1)
REM options -cpp -mtune=generic -march=x86-64 -g -O0 -fpre-include=/usr/include/finclude/math-vector-fortran.h
REM seed -1568011762 -1133153022 -1165734160 1271734168 1660669067 1825960879 194198020 -1924286450 13563884 1615657749 -1539854050 78460421 -1444382804 1605653770 1925100980 1700210656 -992325592 -1275952958 966806068 -1579022864 -306968742 -1383970566 1265902515 -982000537 -897080902 539223282 -1876704078 -1798514552 1181838945 687721023 846686275 94884179 -1904463951
REM
CELL 1.54180   50.00000   50.00000   50.00000   90.00000   90.00000   90.00000
LATT -1
SFAC C  
C      1  0.4455590000000  0.4119370000000  0.5186150000000 1.0
C      1  0.4833820000000  0.4296660000000  0.5758360000000 1.0
C      1  0.4116190000000  0.4238760000000  0.5761830000000 1.0
C      1  0.5314700000000  0.5550580000000  0.5638300000000 1.0
C      1  0.5691200000000  0.5078430000000  0.5846890000000 1.0
C      1  0.5532270000000  0.5212310000000  0.4537710000000 1.0
C      1  0.6188380000000  0.5069390000000  0.5070550000000 1.0
C      1  0.4252200000000  0.5203660000000  0.5001170000000 1.0
C      1  0.4611080000000  0.5077750000000  0.3957240000000 1.0
C      1  0.4588710000000  0.5212870000000  0.5072900000000 1.0
C      1  0.5131960000000  0.5266190000000  0.5675480000000 1.0
C      1  0.4617990000000  0.5531890000000  0.4756000000000 1.0
C      1  0.5549900000000  0.6109040000000  0.4939320000000 1.0
C      1  0.4754500000000  0.5801100000000  0.5131250000000 1.0
C      1  0.4703470000000  0.6118730000000  0.4421790000000 1.0
C      1  0.5600270000000  0.4926100000000  0.5043560000000 1.0
C      1  0.4749000000000  0.4319770000000  0.5369650000000 1.0
C      1  0.5289810000000  0.5640150000000  0.5090930000000 1.0
C      1  0.6103000000000  0.5215010000000  0.4566730000000 1.0
C      1  0.4490140000000  0.4469290000000  0.5432450000000 1.0
C      1  0.5005660000000  0.5014130000000  0.6110350000000 1.0
C      1  0.4469150000000  0.4818400000000  0.4632970000000 1.0
C      1  0.4949560000000  0.5374820000000  0.4600040000000 1.0
C      1  0.5184990000000  0.5056090000000  0.4651120000000 1.0
C      1  0.4938130000000  0.5177710000000  0.3996370000000 1.0
C      1  0.4084300000000  0.4960790000000  0.6151730000000 1.0
C      1  0.5314470000000  0.4380520000000  0.5651600000000 1.0
C      1  0.4571930000000  0.5065070000000  0.5925330000000 1.0
C      1  0.5766600000000  0.4329350000000  0.4649880000000 1.0
C      1  0.3994660000000  0.4363820000000  0.4753780000000 1.0
C      1  0.5413970000000  0.5886350000000  0.4637280000000 1.0
C      1  0.5492620000000  0.4153990000000  0.4550190000000 1.0
C      1  0.5990850000000  0.4849630000000  0.5232880000000 1.0
C      1  0.4012050000000  0.4214070000000  0.5010390000000 1.0
C      1  0.4463620000000  0.4400310000000  0.4963870000000 1.0
C      1  0.5441750000000  0.4997450000000  0.3525800000000 1.0
C      1  0.4869320000000  0.5848160000000  0.4460140000000 1.0
C      1  0.4296800000000  0.4276590000000  0.4694050000000 1.0
C      1  0.4756800000000  0.4168560000000  0.5098820000000 1.0
C      1  0.4958630000000  0.4209850000000  0.4627120000000 1.0
C      1  0.5521540000000  0.3951520000000  0.5582990000000 1.0
C      1  0.5465670000000  0.5249430000000  0.6005410000000 1.0
C      1  0.6034780000000  0.4558900000000  0.5080350000000 1.0
C      1  0.3947590000000  0.4896540000000  0.5290370000000 1.0
C      1  0.5532560000000  0.4947000000000  0.5505220000000 1.0
C      1  0.4932660000000  0.5031200000000  0.5528610000000 1.0
C      1  0.4358240000000  0.4288900000000  0.5897770000000 1.0
C      1  0.6037090000000  0.4786500000000  0.5536460000000 1.0
C      1  0.4016030000000  0.4380800000000  0.5241260000000 1.0
C      1  0.4589510000000  0.4161230000000  0.5740210000000 1.0
C      1  0.4905520000000  0.5610700000000  0.4078660000000 1.0
C      1  0.4797130000000  0.5818760000000  0.4791140000000 1.0
C      1  0.5372320000000  0.4912860000000  0.4064020000000 1.0
C      1  0.4204390000000  0.5325510000000  0.5823960000000 1.0
C      1  0.4864550000000  0.4787460000000  0.4683200000000 1.0
C      1  0.6015630000000  0.4530620000000  0.5607550000000 1.0
C      1  0.4379950000000  0.4389300000000  0.4420170000000 1.0
C      1  0.4396170000000  0.4663600000000  0.5169410000000 1.0
C      1  0.3927370000000  0.5144950000000  0.5082810000000 1.0
C      1  0.4625750000000  0.4652830000000  0.4008800000000 1.0
C      1  0.4226540000000  0.4607400000000  0.4313610000000 1.0
C      1  0.6224630000000  0.5303510000000  0.4859290000000 1.0
C      1  0.4904600000000  0.3654350000000  0.4686180000000 1.0
C      1  0.5546120000000  0.5268890000000  0.4048030000000 1.0
C      1  0.5354060000000  0.5146880000000  0.4300720000000 1.0
C      1  0.4888150000000  0.5564010000000  0.5286580000000 1.0
C      1  0.4358670000000  0.4765270000000  0.4101170000000 1.0
C      1  0.5853780000000  0.5051840000000  0.5549330000000 1.0
C      1  0.5685650000000  0.5468840000000  0.4473870000000 1.0
C      1  0.6137910000000  0.4799540000000  0.4867160000000 1.0
C      1  0.4517180000000  0.5743590000000  0.5641420000000 1.0
C      1  0.5234560000000  0.4120900000000  0.4352070000000 1.0
C      1  0.5672140000000  0.4481930000000  0.4377670000000 1.0
C      1  0.4866520000000  0.5456990000000  0.5769180000000 1.0
C      1  0.5376500000000  0.4516810000000  0.4437930000000 1.0
C      1  0.5109430000000  0.4569620000000  0.6032000000000 1.0
C      1  0.4336610000000  0.4809700000000  0.5727620000000 1.0
C      1  0.5316040000000  0.6193140000000  0.4882770000000 1.0
C      1  0.5482740000000  0.4812570000000  0.5808000000000 1.0
C      1  0.4780020000000  0.4353500000000  0.4848080000000 1.0
C      1  0.5371270000000  0.5856980000000  0.4296120000000 1.0
C      1  0.4415460000000  0.5273060000000  0.5358720000000 1.0
C      1  0.3997780000000  0.4937490000000  0.4848910000000 1.0
C      1  0.5311750000000  0.5159360000000  0.5407240000000 1.0
C      1  0.5627420000000  0.5553550000000  0.4177180000000 1.0
C      1  0.5128700000000  0.4743450000000  0.4114670000000 1.0
C      1  0.4352860000000  0.5392950000000  0.4248220000000 1.0
C      1  0.6056680000000  0.4476370000000  0.4749570000000 1.0
C      1  0.4654830000000  0.4435200000000  0.4379330000000 1.0
C      1  0.5076390000000  0.5593200000000  0.4372200000000 1.0
C      1  0.5840820000000  0.5728060000000  0.5144740000000 1.0
C      1  0.3901870000000  0.5132700000000  0.5481040000000 1.0
C      1  0.5867840000000  0.4441620000000  0.4120040000000 1.0
C      1  0.6072280000000  0.5222030000000  0.5351420000000 1.0
C      1  0.4289040000000  0.5506660000000  0.5150960000000 1.0
C      1  0.4789790000000  0.5330480000000  0.5481440000000 1.0
C      1  0.4093610000000  0.4758810000000  0.4510690000000 1.0
C      1  0.5376290000000  0.4084720000000  0.5745950000000 1.0
C      1  0.5086160000000  0.4696440000000  0.4441740000000 1.0
C      1  0.5659390000000  0.4469930000000  0.4940310000000 1.0
C      1  0.5840170000000  0.4364230000000  0.5505150000000 1.0
C      1  0.6070760000000  0.5475740000000  0.5124690000000 1.0
C      1  0.4307690000000  0.3943130000000  0.4731650000000 1.0
C      1  0.5264010000000  0.4382060000000  0.5008980000000 1.0
C      1  0.5373280000000  0.5047610000000  0.3766320000000 1.0
C      1  0.4797960000000  0.4601880000000  0.5899480000000 1.0
C      1  0.5238360000000  0.4332360000000  0.4688640000000 1.0
C      1  0.5157340000000  0.4877340000000  0.4935980000000 1.0
C      1  0.5787270000000  0.5383900000000  0.5760580000000 1.0
C      1  0.5322770000000  0.4591060000000  0.5862400000000 1.0
C      1  0.4825570000000  0.4894130000000  0.4146780000000 1.0
C      1  0.4852100000000  0.5771910000000  0.5710770000000 1.0
C      1  0.5089570000000  0.5383000000000  0.4860230000000 1.0
C      1  0.4307980000000  0.5905840000000  0.5157820000000 1.0
C      1  0.5220870000000  0.5282150000000  0.3949270000000 1.0
C      1  0.4124250000000  0.5513480000000  0.4553590000000 1.0
C      1  0.4939940000000  0.4287260000000  0.4308750000000 1.0
C      1  0.5460600000000  0.5916020000000  0.5574130000000 1.0
C      1  0.4228210000000  0.5035100000000  0.4534380000000 1.0
C      1  0.4393280000000  0.5663050000000  0.4452320000000 1.0
C      1  0.4039230000000  0.5349720000000  0.5592150000000 1.0
C      1  0.4341900000000  0.5103770000000  0.4074980000000 1.0
C      1  0.5473720000000  0.4718730000000  0.5281910000000 1.0
C      1  0.5380450000000  0.5271100000000  0.4827670000000 1.0
C      1  0.4490140000000  0.4548100000000  0.5765400000000 1.0
C      1  0.5882090000000  0.5002300000000  0.4452320000000 1.0
C      1  0.4491560000000  0.5670320000000  0.5001120000000 1.0
C      1  0.4691600000000  0.4738870000000  0.4418960000000 1.0
C      1  0.5120130000000  0.5074120000000  0.5180930000000 1.0
C      1  0.4641970000000  0.5370920000000  0.5945000000000 1.0
C      1  0.4227850000000  0.4031480000000  0.5002330000000 1.0
C      1  0.5855930000000  0.4730540000000  0.4259240000000 1.0
C      1  0.5824500000000  0.4722610000000  0.4782340000000 1.0
C      1  0.4682570000000  0.5607820000000  0.4307900000000 1.0
C      1  0.4200430000000  0.4291260000000  0.5450650000000 1.0
C      1  0.3719540000000  0.5323720000000  0.5074850000000 1.0
C      1  0.4247880000000  0.5032750000000  0.5940940000000 1.0
C      1  0.5039120000000  0.4369080000000  0.5497170000000 1.0
C      1  0.5004390000000  0.4574990000000  0.4903830000000 1.0
C      1  0.4673650000000  0.5246490000000  0.4674110000000 1.0
C      1  0.4408900000000  0.5511270000000  0.5859230000000 1.0
C      1  0.4151130000000  0.5278880000000  0.4693690000000 1.0
C      1  0.5692850000000  0.4989130000000  0.4166430000000 1.0
C      1  0.5297610000000  0.5570000000000  0.4114980000000 1.0
C      1  0.4551950000000  0.5121150000000  0.5602330000000 1.0
C      1  0.5061410000000  0.5181560000000  0.4374180000000 1.0
C      1  0.4429270000000  0.5974720000000  0.5440810000000 1.0
C      1  0.5674660000000  0.4078580000000  0.4860770000000 1.0
C      1  0.5164220000000  0.4575270000000  0.5270560000000 1.0
C      1  0.5707250000000  0.5783040000000  0.5402790000000 1.0
C      1  0.4903980000000  0.4784050000000  0.5666130000000 1.0
C      1  0.4957380000000  0.4810390000000  0.5273190000000 1.0
C      1  0.5207480000000  0.5139800000000  0.5964280000000 1.0
C      1  0.4056560000000  0.4659780000000  0.5186640000000 1.0
C      1  0.5104820000000  0.5691770000000  0.4860560000000 1.0
C      1  0.4728530000000  0.4996760000000  0.4869650000000 1.0
C      1  0.5526440000000  0.4443820000000  0.5431590000000 1.0
C      1  0.4912310000000  0.5294370000000  0.5103290000000 1.0
C      1  0.5911450000000  0.5429690000000  0.4650620000000 1.0
C      1  0.5181230000000  0.5609280000000  0.5331150000000 1.0
C      1  0.4904620000000  0.4509250000000  0.4081050000000 1.0
C      1  0.5804400000000  0.5133310000000  0.5161670000000 1.0
C      1  0.5116110000000  0.6000000000000  0.4755580000000 1.0
C      1  0.5552590000000  0.5483010000000  0.5015010000000 1.0
C      1  0.5623510000000  0.5791600000000  0.4890960000000 1.0
C      1  0.4650850000000  0.6085240000000  0.5232450000000 1.0
C      1  0.5351730000000  0.4789550000000  0.4601210000000 1.0
C      1  0.5676260000000  0.4989630000000  0.4718220000000 1.0
C      1  0.3993850000000  0.4638930000000  0.4792740000000 1.0
C      1  0.4701940000000  0.4804160000000  0.5120570000000 1.0
C      1  0.4942180000000  0.3905750000000  0.4663440000000 1.0
C      1  0.4491380000000  0.6061270000000  0.4932010000000 1.0
C      1  0.4516350000000  0.5925900000000  0.4630160000000 1.0
C      1  0.5138220000000  0.5840920000000  0.5653240000000 1.0
C      1  0.5390870000000  0.5594670000000  0.4501730000000 1.0
C      1  0.5441040000000  0.4712190000000  0.4883680000000 1.0
C      1  0.5511820000000  0.4211750000000  0.5099780000000 1.0
C      1  0.5564020000000  0.5319440000000  0.5313890000000 1.0
C      1  0.5642940000000  0.4133230000000  0.5368240000000 1.0
C      1  0.4767980000000  0.4887000000000  0.6063240000000 1.0
C      1  0.4511030000000  0.5156170000000  0.4430310000000 1.0
C      1  0.5449440000000  0.5523750000000  0.5949100000000 1.0
C      1  0.4389450000000  0.4884060000000  0.5428270000000 1.0
C      1  0.5624110000000  0.5516510000000  0.5535110000000 1.0
C      1  0.4758490000000  0.5289390000000  0.4262580000000 1.0
C      1  0.5840250000000  0.5379100000000  0.4929410000000 1.0
C      1  0.4326020000000  0.4877390000000  0.4914260000000 1.0
C      1  0.4283340000000  0.5552930000000  0.5482060000000 1.0
C      1  0.4458550000000  0.4077010000000  0.5497910000000 1.0
END
