TITL C-2847958-8115-124 -0.000934906930294427 125000 -805.495832581685 0 0 156 (C1) n - 1
REM
REM in /home/bkarasulu/work/CARBON/AIRSS/Generating-Clusters/AIREBO/with-SteepDescent/Only-C1/SD-CG-opt/Try1-1.4A-POS3A/HFTN-CG
REM
REM
REM
REM
REM
REM ./C.cell (11c1c37f851c82e70ff6c80c92926a4b)
REM
REM compiler GCC version 9.2.1 20190827 (Red Hat 9.2.1-1)
REM options -cpp -mtune=generic -march=x86-64 -g -O0 -fpre-include=/usr/include/finclude/math-vector-fortran.h
REM seed -168410623 173199868 677883885 -1317314881 -779711066 1933525486 -2005425269 -1148329104 -2040948251 -962914534 1730925213 58453699 -1971373815 1986071880 1082711241 -1188483692 -2068497683 956267561 1927326777 699295956 -817285819 -1090697272 1687927650 -1184244182 -2098792189 2000271541 1048470937 1375327575 -2032629518 1295487887 861182866 78001835 123721977
REM
CELL 1.54180   50.00000   50.00000   50.00000   90.00000   90.00000   90.00000
LATT -1
SFAC C  
C      1  0.5959440000000  0.4532320000000  0.5219580000000 1.0
C      1  0.4684060000000  0.4934210000000  0.6074340000000 1.0
C      1  0.4747110000000  0.4521340000000  0.4064280000000 1.0
C      1  0.5131310000000  0.4331290000000  0.4762010000000 1.0
C      1  0.5732530000000  0.5452990000000  0.5578270000000 1.0
C      1  0.4692120000000  0.5592020000000  0.5893660000000 1.0
C      1  0.5639970000000  0.4595820000000  0.5121990000000 1.0
C      1  0.5335320000000  0.4530150000000  0.4165520000000 1.0
C      1  0.4896830000000  0.4692430000000  0.5965300000000 1.0
C      1  0.5008800000000  0.5334330000000  0.5016830000000 1.0
C      1  0.4343870000000  0.5109690000000  0.5576460000000 1.0
C      1  0.4708100000000  0.4971120000000  0.4919270000000 1.0
C      1  0.4942830000000  0.5605240000000  0.5352920000000 1.0
C      1  0.4971500000000  0.5667370000000  0.4766000000000 1.0
C      1  0.4698760000000  0.5328690000000  0.5503280000000 1.0
C      1  0.4937170000000  0.4862220000000  0.4759640000000 1.0
C      1  0.5247060000000  0.4898290000000  0.4343830000000 1.0
C      1  0.5045050000000  0.4038600000000  0.4612010000000 1.0
C      1  0.5427100000000  0.5548580000000  0.5211590000000 1.0
C      1  0.5031700000000  0.4443290000000  0.5425380000000 1.0
C      1  0.5378430000000  0.5133570000000  0.4526080000000 1.0
C      1  0.5136770000000  0.5826030000000  0.5487440000000 1.0
C      1  0.5104550000000  0.4923830000000  0.3971580000000 1.0
C      1  0.5310080000000  0.5849570000000  0.4656070000000 1.0
C      1  0.4585650000000  0.4580840000000  0.4727690000000 1.0
C      1  0.4793600000000  0.4422460000000  0.4923140000000 1.0
C      1  0.4649810000000  0.5570180000000  0.4388440000000 1.0
C      1  0.4440600000000  0.4869590000000  0.4766130000000 1.0
C      1  0.5642680000000  0.4218520000000  0.5577400000000 1.0
C      1  0.5597910000000  0.5272340000000  0.5323480000000 1.0
C      1  0.4966320000000  0.5137300000000  0.4561850000000 1.0
C      1  0.4432600000000  0.4250120000000  0.4474890000000 1.0
C      1  0.5777340000000  0.4883600000000  0.4349080000000 1.0
C      1  0.4863880000000  0.4192840000000  0.5164000000000 1.0
C      1  0.4753170000000  0.4442800000000  0.5620400000000 1.0
C      1  0.4636640000000  0.6101490000000  0.4971990000000 1.0
C      1  0.4312610000000  0.4519810000000  0.4555520000000 1.0
C      1  0.4704390000000  0.5308260000000  0.4899420000000 1.0
C      1  0.5276130000000  0.4882050000000  0.5966130000000 1.0
C      1  0.4316470000000  0.5426690000000  0.5448860000000 1.0
C      1  0.5548050000000  0.5609310000000  0.4649280000000 1.0
C      1  0.4425080000000  0.5444440000000  0.5770690000000 1.0
C      1  0.4892420000000  0.4909290000000  0.5462990000000 1.0
C      1  0.4883460000000  0.5144170000000  0.5708980000000 1.0
C      1  0.4091350000000  0.4983220000000  0.5502370000000 1.0
C      1  0.4517260000000  0.5306480000000  0.4371160000000 1.0
C      1  0.4859600000000  0.5925220000000  0.5127980000000 1.0
C      1  0.5127550000000  0.6071440000000  0.4655760000000 1.0
C      1  0.4926230000000  0.5473900000000  0.4535080000000 1.0
C      1  0.5076150000000  0.4504980000000  0.5872860000000 1.0
C      1  0.4046100000000  0.4538620000000  0.4852770000000 1.0
C      1  0.4989780000000  0.4231370000000  0.5742540000000 1.0
C      1  0.6098990000000  0.4807420000000  0.5134490000000 1.0
C      1  0.4569100000000  0.4116310000000  0.5422810000000 1.0
C      1  0.5189150000000  0.5390090000000  0.5395850000000 1.0
C      1  0.5797360000000  0.4649600000000  0.5492160000000 1.0
C      1  0.4631920000000  0.5096370000000  0.4151740000000 1.0
C      1  0.5219020000000  0.4853140000000  0.5540020000000 1.0
C      1  0.5413010000000  0.4791250000000  0.5283040000000 1.0
C      1  0.4079640000000  0.4767310000000  0.4627720000000 1.0
C      1  0.5682650000000  0.5170320000000  0.5018480000000 1.0
C      1  0.5692940000000  0.4462860000000  0.4741980000000 1.0
C      1  0.4671240000000  0.5894010000000  0.5389090000000 1.0
C      1  0.5378830000000  0.4257700000000  0.4616080000000 1.0
C      1  0.5196360000000  0.5116640000000  0.5839100000000 1.0
C      1  0.5219910000000  0.4905660000000  0.5038910000000 1.0
C      1  0.4822830000000  0.4252590000000  0.4527710000000 1.0
C      1  0.4567280000000  0.4855860000000  0.5553320000000 1.0
C      1  0.4300700000000  0.5081930000000  0.4255330000000 1.0
C      1  0.4251520000000  0.4764590000000  0.5002510000000 1.0
C      1  0.4566310000000  0.5141230000000  0.5831870000000 1.0
C      1  0.5567460000000  0.5555400000000  0.4314270000000 1.0
C      1  0.4424240000000  0.5163290000000  0.4653810000000 1.0
C      1  0.5054530000000  0.5115710000000  0.5246710000000 1.0
C      1  0.5587120000000  0.4318090000000  0.5311050000000 1.0
C      1  0.5799400000000  0.5582310000000  0.4850170000000 1.0
C      1  0.4590680000000  0.4128360000000  0.4747270000000 1.0
C      1  0.4887460000000  0.4583700000000  0.4571020000000 1.0
C      1  0.4159960000000  0.4514700000000  0.5384290000000 1.0
C      1  0.4266990000000  0.5899130000000  0.4290870000000 1.0
C      1  0.4826070000000  0.5733000000000  0.4179920000000 1.0
C      1  0.5222210000000  0.5506340000000  0.5713680000000 1.0
C      1  0.4143080000000  0.5263060000000  0.4504500000000 1.0
C      1  0.6012150000000  0.5001440000000  0.5323500000000 1.0
C      1  0.4391850000000  0.5202670000000  0.4981930000000 1.0
C      1  0.4489160000000  0.4306710000000  0.5020770000000 1.0
C      1  0.4655440000000  0.4427450000000  0.5295090000000 1.0
C      1  0.5264830000000  0.5670580000000  0.4938110000000 1.0
C      1  0.4227900000000  0.5564490000000  0.4937040000000 1.0
C      1  0.5866240000000  0.4819540000000  0.4658240000000 1.0
C      1  0.4210820000000  0.4377610000000  0.5093100000000 1.0
C      1  0.4407980000000  0.5735950000000  0.4507530000000 1.0
C      1  0.5467210000000  0.4839080000000  0.4670970000000 1.0
C      1  0.5682530000000  0.5199770000000  0.4393370000000 1.0
C      1  0.5889810000000  0.5311170000000  0.4828590000000 1.0
C      1  0.5195850000000  0.5161670000000  0.4811710000000 1.0
C      1  0.4117270000000  0.5418610000000  0.5172640000000 1.0
C      1  0.4047970000000  0.4903070000000  0.5232500000000 1.0
C      1  0.5478610000000  0.5346030000000  0.4847570000000 1.0
C      1  0.4713110000000  0.5636130000000  0.5577120000000 1.0
C      1  0.4416200000000  0.5728130000000  0.5326030000000 1.0
C      1  0.4887210000000  0.4667540000000  0.5223710000000 1.0
C      1  0.5119080000000  0.3835640000000  0.4406330000000 1.0
C      1  0.4087630000000  0.5128350000000  0.5024520000000 1.0
C      1  0.5453240000000  0.5274860000000  0.4159490000000 1.0
C      1  0.5530290000000  0.4797520000000  0.4185000000000 1.0
C      1  0.4932980000000  0.4987880000000  0.4258130000000 1.0
C      1  0.5676510000000  0.4878190000000  0.4932390000000 1.0
C      1  0.5428800000000  0.4005270000000  0.4999270000000 1.0
C      1  0.4958130000000  0.5451900000000  0.5832940000000 1.0
C      1  0.4019510000000  0.5051390000000  0.4724550000000 1.0
C      1  0.5858380000000  0.5660970000000  0.5366090000000 1.0
C      1  0.5407040000000  0.4590610000000  0.4874740000000 1.0
C      1  0.5199790000000  0.4197260000000  0.5159460000000 1.0
C      1  0.4470490000000  0.4422110000000  0.5788770000000 1.0
C      1  0.5929650000000  0.5252280000000  0.5716550000000 1.0
C      1  0.4659900000000  0.4274670000000  0.4241860000000 1.0
C      1  0.4572140000000  0.4720400000000  0.5106980000000 1.0
C      1  0.4549540000000  0.5268510000000  0.5258270000000 1.0
C      1  0.5622150000000  0.4504200000000  0.5663250000000 1.0
C      1  0.5376120000000  0.5851850000000  0.5356710000000 1.0
C      1  0.5097380000000  0.3971360000000  0.4927720000000 1.0
C      1  0.5060570000000  0.5820550000000  0.4184690000000 1.0
C      1  0.4530280000000  0.5904640000000  0.4728320000000 1.0
C      1  0.5376820000000  0.5154210000000  0.5553390000000 1.0
C      1  0.4516750000000  0.4770930000000  0.4129810000000 1.0
C      1  0.4587960000000  0.4721740000000  0.5849300000000 1.0
C      1  0.5502650000000  0.4501990000000  0.4462320000000 1.0
C      1  0.4868370000000  0.4085320000000  0.5486640000000 1.0
C      1  0.4856000000000  0.5968840000000  0.4711990000000 1.0
C      1  0.4791190000000  0.4717310000000  0.4315840000000 1.0
C      1  0.5215130000000  0.4642840000000  0.4528600000000 1.0
C      1  0.3927830000000  0.4603410000000  0.5164890000000 1.0
C      1  0.5687170000000  0.4948410000000  0.5408860000000 1.0
C      1  0.5358720000000  0.4634600000000  0.5761360000000 1.0
C      1  0.5374200000000  0.6093100000000  0.5174840000000 1.0
C      1  0.5919230000000  0.5144680000000  0.4596230000000 1.0
C      1  0.4211390000000  0.5539460000000  0.4652470000000 1.0
C      1  0.5281240000000  0.5710730000000  0.4371210000000 1.0
C      1  0.6126720000000  0.5144920000000  0.5541530000000 1.0
C      1  0.4792830000000  0.5601370000000  0.5047720000000 1.0
C      1  0.5578900000000  0.4142380000000  0.4798270000000 1.0
C      1  0.5148370000000  0.5955760000000  0.5045990000000 1.0
C      1  0.5964070000000  0.4607220000000  0.4887930000000 1.0
C      1  0.5308230000000  0.4466490000000  0.5302230000000 1.0
C      1  0.4307640000000  0.4795570000000  0.4396850000000 1.0
C      1  0.5073040000000  0.4621870000000  0.4048860000000 1.0
C      1  0.4480030000000  0.5728660000000  0.5007810000000 1.0
C      1  0.5736720000000  0.5649840000000  0.5114210000000 1.0
C      1  0.5214000000000  0.5388770000000  0.4375870000000 1.0
C      1  0.5074860000000  0.4612520000000  0.4945070000000 1.0
C      1  0.4334320000000  0.4606290000000  0.5568330000000 1.0
C      1  0.5665440000000  0.5085080000000  0.5719460000000 1.0
C      1  0.4763550000000  0.3940620000000  0.4959010000000 1.0
C      1  0.5490480000000  0.5538840000000  0.5770440000000 1.0
C      1  0.5383150000000  0.5025940000000  0.3993120000000 1.0
END
