TITL C-2847948-6138-406 0.000928589885237193 125000 -968.575390057455 0 0 177 (C1) n - 1
REM
REM in /home/bkarasulu/work/CARBON/AIRSS/Generating-Clusters/AIREBO/with-SteepDescent/Only-C1/SD-CG-opt/Try1-1.4A-POS3A/HFTN-CG
REM
REM
REM
REM
REM
REM ./C.cell (11c1c37f851c82e70ff6c80c92926a4b)
REM
REM compiler GCC version 9.2.1 20190827 (Red Hat 9.2.1-1)
REM options -cpp -mtune=generic -march=x86-64 -g -O0 -fpre-include=/usr/include/finclude/math-vector-fortran.h
REM seed -1069414594 1442644269 483001727 59165407 880343204 -105984409 68453621 1683953796 -520191177 357107122 1769772912 2066019607 1352628519 -1779341122 484551040 144297928 -466901486 -2004284777 858266969 55959174 1347466525 1446185118 1045672685 1395815271 -1816260289 -943467888 1004095200 1948404550 15162605 307627175 -426235370 -379195499 59406506
REM
CELL 1.54180   50.00000   50.00000   50.00000   90.00000   90.00000   90.00000
LATT -1
SFAC C  
C      1  0.4742830000000  0.4477650000000  0.5481470000000 1.0
C      1  0.4238910000000  0.4523910000000  0.4851720000000 1.0
C      1  0.4994100000000  0.4011910000000  0.5304820000000 1.0
C      1  0.4982770000000  0.4861630000000  0.3886700000000 1.0
C      1  0.4023210000000  0.5240320000000  0.4466770000000 1.0
C      1  0.6044810000000  0.4943590000000  0.5079580000000 1.0
C      1  0.4763750000000  0.5619090000000  0.5263000000000 1.0
C      1  0.5946550000000  0.5228420000000  0.5214040000000 1.0
C      1  0.4738200000000  0.4935600000000  0.4560870000000 1.0
C      1  0.5262610000000  0.4804950000000  0.5564260000000 1.0
C      1  0.5462210000000  0.4250510000000  0.4454520000000 1.0
C      1  0.4420880000000  0.5423280000000  0.4305290000000 1.0
C      1  0.5173740000000  0.5117030000000  0.5665800000000 1.0
C      1  0.4279870000000  0.5289750000000  0.4651060000000 1.0
C      1  0.4696770000000  0.3938800000000  0.4842210000000 1.0
C      1  0.4690800000000  0.4082150000000  0.5456760000000 1.0
C      1  0.5747810000000  0.4266540000000  0.4961270000000 1.0
C      1  0.5049950000000  0.4579600000000  0.5911270000000 1.0
C      1  0.4735060000000  0.4067670000000  0.5119540000000 1.0
C      1  0.4536100000000  0.4446600000000  0.4015670000000 1.0
C      1  0.4474900000000  0.4686890000000  0.4391390000000 1.0
C      1  0.3983990000000  0.4620780000000  0.5027000000000 1.0
C      1  0.5154350000000  0.5685210000000  0.6001400000000 1.0
C      1  0.4637550000000  0.5918710000000  0.5362600000000 1.0
C      1  0.4946190000000  0.3956660000000  0.4720650000000 1.0
C      1  0.4357680000000  0.4272050000000  0.4982200000000 1.0
C      1  0.4552450000000  0.5102080000000  0.5140900000000 1.0
C      1  0.5792860000000  0.5195880000000  0.5497660000000 1.0
C      1  0.5554640000000  0.4648670000000  0.4497080000000 1.0
C      1  0.4944830000000  0.5760950000000  0.5752740000000 1.0
C      1  0.4389980000000  0.4610660000000  0.5607610000000 1.0
C      1  0.5521040000000  0.4659800000000  0.4045870000000 1.0
C      1  0.4013020000000  0.5128800000000  0.5370180000000 1.0
C      1  0.5712530000000  0.4329000000000  0.5448420000000 1.0
C      1  0.4279280000000  0.5153970000000  0.4173150000000 1.0
C      1  0.5167680000000  0.5630750000000  0.4220440000000 1.0
C      1  0.4278360000000  0.5269510000000  0.5764760000000 1.0
C      1  0.4245000000000  0.5658930000000  0.5265340000000 1.0
C      1  0.4917780000000  0.5162890000000  0.4165990000000 1.0
C      1  0.5724360000000  0.4928910000000  0.4471040000000 1.0
C      1  0.4741950000000  0.4329980000000  0.4902450000000 1.0
C      1  0.5477410000000  0.5255640000000  0.5031350000000 1.0
C      1  0.4736190000000  0.5951990000000  0.4420210000000 1.0
C      1  0.4433040000000  0.4992000000000  0.4645440000000 1.0
C      1  0.5680830000000  0.4890710000000  0.4866630000000 1.0
C      1  0.5272080000000  0.4947490000000  0.5177030000000 1.0
C      1  0.5440220000000  0.4303850000000  0.5497090000000 1.0
C      1  0.5014850000000  0.6026030000000  0.4696160000000 1.0
C      1  0.5321080000000  0.5243450000000  0.3941030000000 1.0
C      1  0.4208880000000  0.5348960000000  0.5240340000000 1.0
C      1  0.5411360000000  0.4607760000000  0.5747560000000 1.0
C      1  0.4673610000000  0.5603960000000  0.5872540000000 1.0
C      1  0.5237970000000  0.3907010000000  0.5160140000000 1.0
C      1  0.5150900000000  0.4093800000000  0.4893320000000 1.0
C      1  0.4967780000000  0.5104340000000  0.4737220000000 1.0
C      1  0.5214010000000  0.4427200000000  0.4917960000000 1.0
C      1  0.6110550000000  0.5127520000000  0.4807510000000 1.0
C      1  0.4903920000000  0.4882800000000  0.4277170000000 1.0
C      1  0.4524070000000  0.4944650000000  0.4170440000000 1.0
C      1  0.4470820000000  0.5513320000000  0.5669360000000 1.0
C      1  0.4731780000000  0.6034620000000  0.4832400000000 1.0
C      1  0.5212080000000  0.4800560000000  0.6033710000000 1.0
C      1  0.5746380000000  0.5181030000000  0.4962810000000 1.0
C      1  0.4918470000000  0.5472980000000  0.4046170000000 1.0
C      1  0.5463800000000  0.4677510000000  0.5147920000000 1.0
C      1  0.3855170000000  0.4942470000000  0.4828850000000 1.0
C      1  0.4074280000000  0.4718970000000  0.5260520000000 1.0
C      1  0.3936790000000  0.4988250000000  0.4525530000000 1.0
C      1  0.4130220000000  0.5354340000000  0.4923940000000 1.0
C      1  0.5051710000000  0.4231020000000  0.5539440000000 1.0
C      1  0.5212820000000  0.4818500000000  0.4605550000000 1.0
C      1  0.4259060000000  0.4953460000000  0.5229390000000 1.0
C      1  0.4199830000000  0.4779890000000  0.4529540000000 1.0
C      1  0.4785240000000  0.4549090000000  0.5813180000000 1.0
C      1  0.5331430000000  0.5481580000000  0.4737940000000 1.0
C      1  0.4919160000000  0.5225980000000  0.6089060000000 1.0
C      1  0.5497300000000  0.5092990000000  0.4663930000000 1.0
C      1  0.4690290000000  0.5111660000000  0.5938800000000 1.0
C      1  0.4915650000000  0.4592840000000  0.4931720000000 1.0
C      1  0.4729150000000  0.4702540000000  0.4047850000000 1.0
C      1  0.4315580000000  0.5755310000000  0.5017330000000 1.0
C      1  0.5583700000000  0.5675360000000  0.5555830000000 1.0
C      1  0.4426330000000  0.5070790000000  0.5896300000000 1.0
C      1  0.4677800000000  0.4793680000000  0.5071160000000 1.0
C      1  0.4562610000000  0.4584280000000  0.5965520000000 1.0
C      1  0.5480710000000  0.4060410000000  0.5003310000000 1.0
C      1  0.5162040000000  0.5729810000000  0.4617380000000 1.0
C      1  0.4906730000000  0.5509670000000  0.6058270000000 1.0
C      1  0.5032060000000  0.5909760000000  0.4359840000000 1.0
C      1  0.5583090000000  0.6013140000000  0.5108910000000 1.0
C      1  0.5705680000000  0.4942990000000  0.4099580000000 1.0
C      1  0.5955930000000  0.5428990000000  0.4861760000000 1.0
C      1  0.4826270000000  0.5287140000000  0.5221250000000 1.0
C      1  0.5766660000000  0.4524520000000  0.5184360000000 1.0
C      1  0.5164310000000  0.5087260000000  0.6062340000000 1.0
C      1  0.4872750000000  0.5239670000000  0.5692430000000 1.0
C      1  0.5618600000000  0.5719790000000  0.5217960000000 1.0
C      1  0.5094750000000  0.5566390000000  0.5047810000000 1.0
C      1  0.4571510000000  0.5802540000000  0.4642420000000 1.0
C      1  0.5800930000000  0.4228700000000  0.4448500000000 1.0
C      1  0.5666220000000  0.5177230000000  0.5952920000000 1.0
C      1  0.4636660000000  0.5276870000000  0.4102580000000 1.0
C      1  0.4530780000000  0.4185610000000  0.4477090000000 1.0
C      1  0.5829640000000  0.5503660000000  0.5476100000000 1.0
C      1  0.5246670000000  0.4341270000000  0.5774200000000 1.0
C      1  0.5287170000000  0.4424890000000  0.5250020000000 1.0
C      1  0.4989200000000  0.4512040000000  0.4156190000000 1.0
C      1  0.4476580000000  0.4725570000000  0.4828900000000 1.0
C      1  0.4874740000000  0.5554760000000  0.4561530000000 1.0
C      1  0.5513450000000  0.4999880000000  0.5491220000000 1.0
C      1  0.5625780000000  0.5406740000000  0.4638370000000 1.0
C      1  0.4314310000000  0.4773050000000  0.5868510000000 1.0
C      1  0.5320500000000  0.5013400000000  0.4384610000000 1.0
C      1  0.5708710000000  0.5220370000000  0.4296420000000 1.0
C      1  0.5391920000000  0.6059310000000  0.4916120000000 1.0
C      1  0.3951840000000  0.4639130000000  0.4707710000000 1.0
C      1  0.5020540000000  0.5057750000000  0.5370960000000 1.0
C      1  0.5206180000000  0.5294820000000  0.4256940000000 1.0
C      1  0.4853670000000  0.5500430000000  0.4881100000000 1.0
C      1  0.5379200000000  0.5267160000000  0.5877350000000 1.0
C      1  0.5915990000000  0.5266550000000  0.4565710000000 1.0
C      1  0.5076120000000  0.6067520000000  0.5028200000000 1.0
C      1  0.5241550000000  0.4572240000000  0.4376050000000 1.0
C      1  0.4662000000000  0.4530700000000  0.4628990000000 1.0
C      1  0.5071330000000  0.4557180000000  0.5444410000000 1.0
C      1  0.4688050000000  0.5215640000000  0.4854150000000 1.0
C      1  0.5428120000000  0.5930760000000  0.4666970000000 1.0
C      1  0.4900830000000  0.5513770000000  0.5555920000000 1.0
C      1  0.4465680000000  0.4286260000000  0.5538700000000 1.0
C      1  0.5247760000000  0.4521090000000  0.3981140000000 1.0
C      1  0.5265360000000  0.5685490000000  0.5526590000000 1.0
C      1  0.4704700000000  0.5033800000000  0.5502240000000 1.0
C      1  0.4997880000000  0.3980000000000  0.4457280000000 1.0
C      1  0.4757920000000  0.6105670000000  0.5159430000000 1.0
C      1  0.5916310000000  0.5565680000000  0.5160400000000 1.0
C      1  0.5726360000000  0.4920020000000  0.5889870000000 1.0
C      1  0.4584070000000  0.4424690000000  0.5185250000000 1.0
C      1  0.3951350000000  0.5116010000000  0.5035630000000 1.0
C      1  0.6002960000000  0.4878220000000  0.4602450000000 1.0
C      1  0.4887770000000  0.3988080000000  0.5687630000000 1.0
C      1  0.4824280000000  0.4339090000000  0.4399520000000 1.0
C      1  0.5528990000000  0.4739710000000  0.5978320000000 1.0
C      1  0.5962890000000  0.4748390000000  0.5348900000000 1.0
C      1  0.4240160000000  0.4257540000000  0.5290390000000 1.0
C      1  0.5031620000000  0.5826790000000  0.5234500000000 1.0
C      1  0.5075770000000  0.5945060000000  0.5531060000000 1.0
C      1  0.5456250000000  0.4959970000000  0.3899790000000 1.0
C      1  0.4602200000000  0.4776300000000  0.5399950000000 1.0
C      1  0.4950560000000  0.4689910000000  0.4622790000000 1.0
C      1  0.5476070000000  0.4282260000000  0.4756680000000 1.0
C      1  0.5645870000000  0.4453440000000  0.4252550000000 1.0
C      1  0.5921910000000  0.4320400000000  0.4688410000000 1.0
C      1  0.5151870000000  0.4245090000000  0.4399650000000 1.0
C      1  0.4483510000000  0.5279590000000  0.5422840000000 1.0
C      1  0.4324020000000  0.5651530000000  0.4536520000000 1.0
C      1  0.5560450000000  0.5712050000000  0.4507680000000 1.0
C      1  0.5381160000000  0.5570700000000  0.5813420000000 1.0
C      1  0.5207420000000  0.4899040000000  0.4104480000000 1.0
C      1  0.4039770000000  0.5148230000000  0.5669290000000 1.0
C      1  0.4447180000000  0.4388350000000  0.4276960000000 1.0
C      1  0.4167150000000  0.5643780000000  0.4795680000000 1.0
C      1  0.5370570000000  0.5238090000000  0.5324280000000 1.0
C      1  0.5237310000000  0.5101080000000  0.4882900000000 1.0
C      1  0.4409670000000  0.5747510000000  0.5470030000000 1.0
C      1  0.4019460000000  0.4911390000000  0.5818310000000 1.0
C      1  0.5905410000000  0.4704660000000  0.4947920000000 1.0
C      1  0.5819440000000  0.4883070000000  0.5582610000000 1.0
C      1  0.6034950000000  0.4577850000000  0.4700620000000 1.0
C      1  0.5106250000000  0.5337000000000  0.4574160000000 1.0
C      1  0.4630220000000  0.5724460000000  0.4968240000000 1.0
C      1  0.5424330000000  0.4674790000000  0.4810180000000 1.0
C      1  0.5163630000000  0.5460000000000  0.5346990000000 1.0
C      1  0.4477430000000  0.4085050000000  0.4732440000000 1.0
C      1  0.4160970000000  0.4517310000000  0.5428030000000 1.0
C      1  0.4596660000000  0.5392450000000  0.4594780000000 1.0
C      1  0.5489860000000  0.5481900000000  0.4270310000000 1.0
C      1  0.5419230000000  0.5559850000000  0.5048450000000 1.0
END
