TITL C-2848500-1637-479 -0.00107353381476509 125000 -1073.29607017511 0 0 194 (C1) n - 1
REM
REM in /home/bkarasulu/work/CARBON/AIRSS/Generating-Clusters/AIREBO/with-SteepDescent/Only-C1/SD-CG-opt/Try1-1.4A-POS3A/HFTN-CG
REM
REM
REM
REM
REM
REM ./C.cell (11c1c37f851c82e70ff6c80c92926a4b)
REM
REM compiler GCC version 9.2.1 20190827 (Red Hat 9.2.1-1)
REM options -cpp -mtune=generic -march=x86-64 -g -O0 -fpre-include=/usr/include/finclude/math-vector-fortran.h
REM seed 831115607 -259566333 -1691750047 776183383 906429816 1121111145 -1166805908 57949676 1648991054 -1173380658 -615158981 -1797171739 -604801813 -1760007858 -254612570 -174952453 1865566687 393852317 2012338105 -1580183497 1068431282 1674373413 278305885 -1264392383 -179147186 1709087353 -410868656 344633546 742175842 -2060719514 -1391707467 1939780676 471582454
REM
CELL 1.54180   50.00000   50.00000   50.00000   90.00000   90.00000   90.00000
LATT -1
SFAC C  
C      1  0.4958360000000  0.4964430000000  0.5473290000000 1.0
C      1  0.6110140000000  0.4906910000000  0.5047540000000 1.0
C      1  0.4668750000000  0.4388700000000  0.4710170000000 1.0
C      1  0.5178040000000  0.4564670000000  0.4835320000000 1.0
C      1  0.5310720000000  0.4607190000000  0.4102700000000 1.0
C      1  0.5438280000000  0.5948900000000  0.4979320000000 1.0
C      1  0.4509150000000  0.5936630000000  0.4737310000000 1.0
C      1  0.5496770000000  0.4521760000000  0.5883570000000 1.0
C      1  0.5312360000000  0.4856740000000  0.4544990000000 1.0
C      1  0.6212980000000  0.5088020000000  0.4825950000000 1.0
C      1  0.4873340000000  0.6076860000000  0.5404550000000 1.0
C      1  0.3944190000000  0.4797510000000  0.4519190000000 1.0
C      1  0.4619780000000  0.4668760000000  0.5644920000000 1.0
C      1  0.4485400000000  0.4672380000000  0.3930380000000 1.0
C      1  0.5565380000000  0.4316300000000  0.4390120000000 1.0
C      1  0.4759440000000  0.4491760000000  0.5970600000000 1.0
C      1  0.4082700000000  0.4513380000000  0.4593130000000 1.0
C      1  0.4437970000000  0.4576220000000  0.5065940000000 1.0
C      1  0.5219930000000  0.5223780000000  0.5978960000000 1.0
C      1  0.5974020000000  0.4523070000000  0.5416190000000 1.0
C      1  0.4508220000000  0.5067170000000  0.4803200000000 1.0
C      1  0.5263360000000  0.4757860000000  0.5957050000000 1.0
C      1  0.4946500000000  0.5203620000000  0.3870890000000 1.0
C      1  0.5125940000000  0.4773880000000  0.5669380000000 1.0
C      1  0.4204400000000  0.5356200000000  0.5547310000000 1.0
C      1  0.5226560000000  0.5536840000000  0.4594740000000 1.0
C      1  0.4520510000000  0.4793730000000  0.4666550000000 1.0
C      1  0.4792920000000  0.5075310000000  0.5198690000000 1.0
C      1  0.4365950000000  0.4035320000000  0.4725800000000 1.0
C      1  0.4640550000000  0.5342610000000  0.4552560000000 1.0
C      1  0.4906290000000  0.4647800000000  0.5360200000000 1.0
C      1  0.5229720000000  0.4819270000000  0.3923160000000 1.0
C      1  0.5233120000000  0.5666340000000  0.5426730000000 1.0
C      1  0.5846370000000  0.5268280000000  0.5584330000000 1.0
C      1  0.5977230000000  0.4576140000000  0.4871170000000 1.0
C      1  0.5772300000000  0.5641250000000  0.4679680000000 1.0
C      1  0.5372820000000  0.5402890000000  0.5263240000000 1.0
C      1  0.5285030000000  0.4081280000000  0.5711190000000 1.0
C      1  0.4725170000000  0.5324010000000  0.5996880000000 1.0
C      1  0.5202910000000  0.6213200000000  0.5519280000000 1.0
C      1  0.4439600000000  0.5225360000000  0.4234810000000 1.0
C      1  0.5052410000000  0.4900980000000  0.6177890000000 1.0
C      1  0.5207550000000  0.6132500000000  0.4398640000000 1.0
C      1  0.5252780000000  0.5132030000000  0.5440250000000 1.0
C      1  0.4688040000000  0.4389910000000  0.4223680000000 1.0
C      1  0.5295250000000  0.4650950000000  0.5448030000000 1.0
C      1  0.4799340000000  0.5000220000000  0.6076520000000 1.0
C      1  0.4226720000000  0.4593740000000  0.5631140000000 1.0
C      1  0.5901730000000  0.5184650000000  0.4419180000000 1.0
C      1  0.5743720000000  0.5531490000000  0.5566020000000 1.0
C      1  0.5582090000000  0.4949810000000  0.4695210000000 1.0
C      1  0.3903960000000  0.5468210000000  0.4868150000000 1.0
C      1  0.4220940000000  0.5836680000000  0.4579620000000 1.0
C      1  0.4708140000000  0.5696160000000  0.4724150000000 1.0
C      1  0.5289350000000  0.5233420000000  0.4980450000000 1.0
C      1  0.4937730000000  0.4904400000000  0.3978230000000 1.0
C      1  0.5793220000000  0.4383870000000  0.4202030000000 1.0
C      1  0.5378650000000  0.5340210000000  0.4048030000000 1.0
C      1  0.5433770000000  0.4688750000000  0.4334130000000 1.0
C      1  0.4020240000000  0.5251750000000  0.4739570000000 1.0
C      1  0.5522280000000  0.5320760000000  0.6004740000000 1.0
C      1  0.5758660000000  0.4665520000000  0.4389420000000 1.0
C      1  0.5131400000000  0.3885820000000  0.5548640000000 1.0
C      1  0.4171180000000  0.4287130000000  0.5125000000000 1.0
C      1  0.5284950000000  0.5584890000000  0.4917030000000 1.0
C      1  0.4763750000000  0.5659120000000  0.5385340000000 1.0
C      1  0.4476410000000  0.5050460000000  0.5097680000000 1.0
C      1  0.4854160000000  0.4122580000000  0.4628130000000 1.0
C      1  0.4931110000000  0.4169510000000  0.5234910000000 1.0
C      1  0.5035350000000  0.5716330000000  0.4107150000000 1.0
C      1  0.5667810000000  0.5461310000000  0.5180310000000 1.0
C      1  0.5026570000000  0.4840690000000  0.4728690000000 1.0
C      1  0.5749620000000  0.4708320000000  0.5847530000000 1.0
C      1  0.4746500000000  0.5379180000000  0.5275980000000 1.0
C      1  0.5526230000000  0.5762990000000  0.4756630000000 1.0
C      1  0.4454420000000  0.4436920000000  0.5830680000000 1.0
C      1  0.4785480000000  0.6064760000000  0.4888940000000 1.0
C      1  0.4666290000000  0.6035660000000  0.5206860000000 1.0
C      1  0.5700030000000  0.4959730000000  0.5623890000000 1.0
C      1  0.4905030000000  0.5518360000000  0.4548520000000 1.0
C      1  0.4297450000000  0.4713920000000  0.4184830000000 1.0
C      1  0.3972880000000  0.5346050000000  0.5359640000000 1.0
C      1  0.5170920000000  0.4271750000000  0.5453600000000 1.0
C      1  0.4758730000000  0.4646820000000  0.3922980000000 1.0
C      1  0.5564810000000  0.5054280000000  0.5074080000000 1.0
C      1  0.5203420000000  0.5399130000000  0.5623650000000 1.0
C      1  0.4750060000000  0.5192160000000  0.4269710000000 1.0
C      1  0.4221510000000  0.5934560000000  0.4887280000000 1.0
C      1  0.5129610000000  0.6083570000000  0.4930430000000 1.0
C      1  0.4814810000000  0.5383240000000  0.4947000000000 1.0
C      1  0.4282770000000  0.4661090000000  0.4812890000000 1.0
C      1  0.5072880000000  0.4475910000000  0.5927740000000 1.0
C      1  0.4458540000000  0.4259080000000  0.4945070000000 1.0
C      1  0.5529760000000  0.5508430000000  0.4208140000000 1.0
C      1  0.5525110000000  0.3863450000000  0.5203450000000 1.0
C      1  0.4596870000000  0.4785110000000  0.5964130000000 1.0
C      1  0.5466650000000  0.5015280000000  0.5866170000000 1.0
C      1  0.4085270000000  0.4945490000000  0.4315400000000 1.0
C      1  0.4210130000000  0.5808000000000  0.5132910000000 1.0
C      1  0.4457160000000  0.4251180000000  0.4312780000000 1.0
C      1  0.4474860000000  0.5218660000000  0.5393560000000 1.0
C      1  0.4761020000000  0.4568920000000  0.4436120000000 1.0
C      1  0.4322230000000  0.5428100000000  0.5173450000000 1.0
C      1  0.6127980000000  0.4947830000000  0.5320110000000 1.0
C      1  0.5159000000000  0.4370960000000  0.4128970000000 1.0
C      1  0.3874150000000  0.4993450000000  0.4751200000000 1.0
C      1  0.4589600000000  0.5717420000000  0.4405800000000 1.0
C      1  0.4397410000000  0.4125590000000  0.5528600000000 1.0
C      1  0.4321450000000  0.4875440000000  0.5803000000000 1.0
C      1  0.3999800000000  0.4395960000000  0.4906540000000 1.0
C      1  0.5529470000000  0.5767010000000  0.5474180000000 1.0
C      1  0.5417840000000  0.5535100000000  0.5824330000000 1.0
C      1  0.5383170000000  0.5070100000000  0.4193450000000 1.0
C      1  0.4626290000000  0.4074030000000  0.5138480000000 1.0
C      1  0.6109160000000  0.4483180000000  0.5160930000000 1.0
C      1  0.4486910000000  0.4908830000000  0.4350120000000 1.0
C      1  0.5663140000000  0.5254340000000  0.4629180000000 1.0
C      1  0.5893040000000  0.5524110000000  0.4446840000000 1.0
C      1  0.5605580000000  0.5919280000000  0.5203540000000 1.0
C      1  0.5455090000000  0.4414640000000  0.5575120000000 1.0
C      1  0.5310570000000  0.4250130000000  0.5933530000000 1.0
C      1  0.4857530000000  0.4014070000000  0.5528250000000 1.0
C      1  0.5856140000000  0.5709710000000  0.5298320000000 1.0
C      1  0.5137380000000  0.5427420000000  0.3956770000000 1.0
C      1  0.4806380000000  0.5699160000000  0.5049690000000 1.0
C      1  0.4828840000000  0.4874920000000  0.4299220000000 1.0
C      1  0.4130440000000  0.5526270000000  0.4474180000000 1.0
C      1  0.4742420000000  0.5613410000000  0.5721760000000 1.0
C      1  0.5060270000000  0.3942670000000  0.4802960000000 1.0
C      1  0.4480500000000  0.3945100000000  0.5328290000000 1.0
C      1  0.6103500000000  0.5249410000000  0.5379420000000 1.0
C      1  0.3963980000000  0.4720540000000  0.4910980000000 1.0
C      1  0.4630060000000  0.4990430000000  0.5558710000000 1.0
C      1  0.5825870000000  0.5178420000000  0.5198670000000 1.0
C      1  0.4332210000000  0.5300590000000  0.4629130000000 1.0
C      1  0.5150780000000  0.4291430000000  0.4639300000000 1.0
C      1  0.5088990000000  0.5007810000000  0.5099160000000 1.0
C      1  0.5142170000000  0.5813280000000  0.4415470000000 1.0
C      1  0.4273180000000  0.4699320000000  0.5327270000000 1.0
C      1  0.4935300000000  0.4426680000000  0.5617280000000 1.0
C      1  0.4834790000000  0.5105180000000  0.5772530000000 1.0
C      1  0.6083510000000  0.5303840000000  0.5024430000000 1.0
C      1  0.4314720000000  0.5136680000000  0.5757490000000 1.0
C      1  0.5545130000000  0.4897140000000  0.3959870000000 1.0
C      1  0.5703780000000  0.4972120000000  0.4252750000000 1.0
C      1  0.3788050000000  0.4955880000000  0.5066660000000 1.0
C      1  0.4748840000000  0.5857440000000  0.4224280000000 1.0
C      1  0.5810800000000  0.4866470000000  0.4932630000000 1.0
C      1  0.4237160000000  0.4433840000000  0.4333810000000 1.0
C      1  0.5011850000000  0.6037900000000  0.4636330000000 1.0
C      1  0.5490930000000  0.4901650000000  0.5360280000000 1.0
C      1  0.5075450000000  0.3931790000000  0.5089760000000 1.0
C      1  0.4476100000000  0.5428920000000  0.5825150000000 1.0
C      1  0.5114340000000  0.5732210000000  0.5117300000000 1.0
C      1  0.5649580000000  0.4484220000000  0.4661060000000 1.0
C      1  0.5338520000000  0.5794430000000  0.5868860000000 1.0
C      1  0.4391080000000  0.5519170000000  0.4299560000000 1.0
C      1  0.5291360000000  0.4268140000000  0.4366540000000 1.0
C      1  0.4056290000000  0.5222470000000  0.4339940000000 1.0
C      1  0.5597960000000  0.4377710000000  0.5204460000000 1.0
C      1  0.5551330000000  0.4647410000000  0.5142400000000 1.0
C      1  0.5141650000000  0.5217380000000  0.4674510000000 1.0
C      1  0.4666260000000  0.4236870000000  0.5673520000000 1.0
C      1  0.4788990000000  0.4655050000000  0.4822820000000 1.0
C      1  0.4863630000000  0.5477220000000  0.4241820000000 1.0
C      1  0.6102270000000  0.5006890000000  0.4579920000000 1.0
C      1  0.5001660000000  0.5449780000000  0.5872500000000 1.0
C      1  0.5110050000000  0.5041270000000  0.4393930000000 1.0
C      1  0.5145840000000  0.5912740000000  0.5644200000000 1.0
C      1  0.5493030000000  0.5451640000000  0.4469390000000 1.0
C      1  0.4845360000000  0.5112040000000  0.4803870000000 1.0
C      1  0.4368240000000  0.5650980000000  0.5590860000000 1.0
C      1  0.5475930000000  0.4667310000000  0.4852880000000 1.0
C      1  0.6015170000000  0.4735360000000  0.4584520000000 1.0
C      1  0.4833280000000  0.5915180000000  0.5680410000000 1.0
C      1  0.5965320000000  0.4795150000000  0.5488560000000 1.0
C      1  0.3952970000000  0.5087140000000  0.5250720000000 1.0
C      1  0.4539130000000  0.4066470000000  0.4512930000000 1.0
C      1  0.4204180000000  0.4969380000000  0.5240530000000 1.0
C      1  0.5746050000000  0.4360690000000  0.5452670000000 1.0
C      1  0.4590800000000  0.4665210000000  0.5330430000000 1.0
C      1  0.5158820000000  0.4711780000000  0.5141520000000 1.0
C      1  0.5336300000000  0.4095840000000  0.4835180000000 1.0
C      1  0.4739780000000  0.5404360000000  0.3933630000000 1.0
C      1  0.4020570000000  0.5558680000000  0.5136630000000 1.0
C      1  0.5798350000000  0.4291820000000  0.4860560000000 1.0
C      1  0.5251570000000  0.3828600000000  0.5286260000000 1.0
C      1  0.4215370000000  0.4320240000000  0.5427900000000 1.0
C      1  0.4463180000000  0.5799610000000  0.5310530000000 1.0
C      1  0.5806850000000  0.5415910000000  0.4883190000000 1.0
C      1  0.5580620000000  0.4122660000000  0.5017660000000 1.0
C      1  0.4856740000000  0.4462310000000  0.5079560000000 1.0
C      1  0.5155450000000  0.6026190000000  0.5251140000000 1.0
C      1  0.4895930000000  0.4389320000000  0.4017440000000 1.0
END
