TITL C-2848497-6229-655 0.00142277625773714 125000 -849.398367180728 0 0 157 (C1) n - 1
REM
REM in /home/bkarasulu/work/CARBON/AIRSS/Generating-Clusters/AIREBO/with-SteepDescent/Only-C1/SD-CG-opt/Try1-1.4A-POS3A/HFTN-CG
REM
REM
REM
REM
REM
REM ./C.cell (11c1c37f851c82e70ff6c80c92926a4b)
REM
REM compiler GCC version 9.2.1 20190827 (Red Hat 9.2.1-1)
REM options -cpp -mtune=generic -march=x86-64 -g -O0 -fpre-include=/usr/include/finclude/math-vector-fortran.h
REM seed 1758595580 1458819096 -2020824391 1746238473 1979479755 554564051 -1486251754 -108885967 -653838200 1279855627 792428245 1759903367 323012005 -8021562 -488946737 1982333798 547008187 -992861584 -2092984550 -1917781167 -1129373581 -1266339521 335781269 158369559 -686274573 371401915 -1374119940 1944144502 1615544645 923939376 -948153561 -1985303629 1155994796
REM
CELL 1.54180   50.00000   50.00000   50.00000   90.00000   90.00000   90.00000
LATT -1
SFAC C  
C      1  0.5429890000000  0.4622010000000  0.5060300000000 1.0
C      1  0.4822950000000  0.4908730000000  0.4776480000000 1.0
C      1  0.4926250000000  0.6091090000000  0.5369870000000 1.0
C      1  0.4934340000000  0.5277720000000  0.4881980000000 1.0
C      1  0.4868630000000  0.5441010000000  0.4239100000000 1.0
C      1  0.5964060000000  0.5257880000000  0.5141030000000 1.0
C      1  0.5146120000000  0.5305080000000  0.4095520000000 1.0
C      1  0.4745250000000  0.4789270000000  0.6075060000000 1.0
C      1  0.5495380000000  0.5830940000000  0.5238720000000 1.0
C      1  0.4180280000000  0.4390110000000  0.4729980000000 1.0
C      1  0.5816140000000  0.4858560000000  0.5515080000000 1.0
C      1  0.5312850000000  0.5327110000000  0.5394660000000 1.0
C      1  0.4922820000000  0.4799840000000  0.5721990000000 1.0
C      1  0.5334710000000  0.4425430000000  0.5839150000000 1.0
C      1  0.4918290000000  0.5310590000000  0.5454150000000 1.0
C      1  0.4908280000000  0.4490980000000  0.5184990000000 1.0
C      1  0.4560530000000  0.5337620000000  0.4137300000000 1.0
C      1  0.4617510000000  0.4267530000000  0.5671190000000 1.0
C      1  0.4523840000000  0.5137230000000  0.5763080000000 1.0
C      1  0.3987870000000  0.4841180000000  0.5111070000000 1.0
C      1  0.5703790000000  0.4491150000000  0.5211820000000 1.0
C      1  0.4721210000000  0.4547970000000  0.5836490000000 1.0
C      1  0.5748150000000  0.5482040000000  0.5400590000000 1.0
C      1  0.5084070000000  0.4741380000000  0.4222060000000 1.0
C      1  0.5076410000000  0.5772120000000  0.5180010000000 1.0
C      1  0.4687480000000  0.4571900000000  0.4941130000000 1.0
C      1  0.5647880000000  0.5632620000000  0.4287850000000 1.0
C      1  0.6176000000000  0.4890310000000  0.4869390000000 1.0
C      1  0.4997070000000  0.4813580000000  0.5244300000000 1.0
C      1  0.4738500000000  0.5059970000000  0.5979870000000 1.0
C      1  0.5420890000000  0.5123060000000  0.4187190000000 1.0
C      1  0.5199810000000  0.6078320000000  0.4801950000000 1.0
C      1  0.5291850000000  0.4872080000000  0.5141320000000 1.0
C      1  0.5471150000000  0.4857510000000  0.5917960000000 1.0
C      1  0.5209310000000  0.4487400000000  0.5608000000000 1.0
C      1  0.4292500000000  0.5504270000000  0.5401730000000 1.0
C      1  0.4202200000000  0.5112040000000  0.5823600000000 1.0
C      1  0.4784220000000  0.5626750000000  0.5192740000000 1.0
C      1  0.5680630000000  0.4231150000000  0.4993880000000 1.0
C      1  0.4432250000000  0.4187380000000  0.4793880000000 1.0
C      1  0.4382140000000  0.5750960000000  0.5169990000000 1.0
C      1  0.5482930000000  0.5113800000000  0.6007910000000 1.0
C      1  0.4433240000000  0.4553240000000  0.5678600000000 1.0
C      1  0.5057190000000  0.6074130000000  0.5071900000000 1.0
C      1  0.4661670000000  0.4278870000000  0.4274860000000 1.0
C      1  0.5105660000000  0.4995970000000  0.4906180000000 1.0
C      1  0.4635340000000  0.4886440000000  0.5562250000000 1.0
C      1  0.5444970000000  0.5876230000000  0.4923740000000 1.0
C      1  0.5513180000000  0.5161010000000  0.4708100000000 1.0
C      1  0.4073730000000  0.5116490000000  0.4996260000000 1.0
C      1  0.5649530000000  0.5272100000000  0.5187580000000 1.0
C      1  0.4272660000000  0.4792680000000  0.4229110000000 1.0
C      1  0.6103460000000  0.5202830000000  0.5369420000000 1.0
C      1  0.5115550000000  0.5920950000000  0.4355300000000 1.0
C      1  0.5749350000000  0.5331300000000  0.5640280000000 1.0
C      1  0.4184230000000  0.4156470000000  0.5359900000000 1.0
C      1  0.5157580000000  0.4024360000000  0.4445040000000 1.0
C      1  0.4730660000000  0.5683760000000  0.5705840000000 1.0
C      1  0.5335900000000  0.5496810000000  0.4292390000000 1.0
C      1  0.5711000000000  0.4957480000000  0.4255190000000 1.0
C      1  0.5781610000000  0.5024720000000  0.4716890000000 1.0
C      1  0.4989900000000  0.5525490000000  0.5783710000000 1.0
C      1  0.5741240000000  0.5748600000000  0.5321740000000 1.0
C      1  0.4626550000000  0.4663370000000  0.4649010000000 1.0
C      1  0.5682170000000  0.5736170000000  0.4771750000000 1.0
C      1  0.4488900000000  0.4319610000000  0.5360610000000 1.0
C      1  0.4248200000000  0.5475370000000  0.5085060000000 1.0
C      1  0.4881410000000  0.5710130000000  0.4738790000000 1.0
C      1  0.5060800000000  0.3867440000000  0.5260290000000 1.0
C      1  0.4318990000000  0.4787830000000  0.4718040000000 1.0
C      1  0.5379730000000  0.5788190000000  0.4424820000000 1.0
C      1  0.4457920000000  0.5763410000000  0.4672360000000 1.0
C      1  0.5312070000000  0.4644890000000  0.6015340000000 1.0
C      1  0.4631590000000  0.3696480000000  0.4871580000000 1.0
C      1  0.5931960000000  0.5110870000000  0.5583010000000 1.0
C      1  0.4928310000000  0.4145860000000  0.4380310000000 1.0
C      1  0.5189450000000  0.4991100000000  0.4357890000000 1.0
C      1  0.4442280000000  0.5256460000000  0.4939700000000 1.0
C      1  0.5805400000000  0.4728840000000  0.4385130000000 1.0
C      1  0.5010950000000  0.4798210000000  0.3916770000000 1.0
C      1  0.5520110000000  0.4843440000000  0.5602570000000 1.0
C      1  0.5402780000000  0.4359770000000  0.5249470000000 1.0
C      1  0.5263260000000  0.4419940000000  0.3883380000000 1.0
C      1  0.3974390000000  0.5435150000000  0.4926030000000 1.0
C      1  0.5475620000000  0.5322430000000  0.5770910000000 1.0
C      1  0.5612320000000  0.5459260000000  0.4578290000000 1.0
C      1  0.5367160000000  0.4228420000000  0.4551300000000 1.0
C      1  0.5193760000000  0.5610610000000  0.4647390000000 1.0
C      1  0.4183330000000  0.5274410000000  0.4715930000000 1.0
C      1  0.5678850000000  0.5289740000000  0.4291090000000 1.0
C      1  0.5037440000000  0.4702680000000  0.6027080000000 1.0
C      1  0.4228190000000  0.5260470000000  0.5523590000000 1.0
C      1  0.4208880000000  0.4476810000000  0.5248540000000 1.0
C      1  0.4704190000000  0.5338130000000  0.5098010000000 1.0
C      1  0.4629700000000  0.5387080000000  0.5616940000000 1.0
C      1  0.4468380000000  0.4559570000000  0.4254870000000 1.0
C      1  0.3970350000000  0.4823480000000  0.5397250000000 1.0
C      1  0.4945910000000  0.5759590000000  0.4210390000000 1.0
C      1  0.4581580000000  0.4300980000000  0.5053910000000 1.0
C      1  0.5280060000000  0.4509150000000  0.4144280000000 1.0
C      1  0.5274930000000  0.5586370000000  0.4975630000000 1.0
C      1  0.4233170000000  0.4673010000000  0.5499700000000 1.0
C      1  0.4646290000000  0.3983910000000  0.4948340000000 1.0
C      1  0.5104570000000  0.4300110000000  0.4983150000000 1.0
C      1  0.5189770000000  0.4816760000000  0.5525890000000 1.0
C      1  0.5015150000000  0.6051500000000  0.4580670000000 1.0
C      1  0.4132390000000  0.4799880000000  0.4465640000000 1.0
C      1  0.4856800000000  0.5411610000000  0.4577830000000 1.0
C      1  0.4726850000000  0.5099010000000  0.5313010000000 1.0
C      1  0.5098910000000  0.4295600000000  0.5387910000000 1.0
C      1  0.5284640000000  0.5665500000000  0.5399720000000 1.0
C      1  0.4477410000000  0.5758310000000  0.5490930000000 1.0
C      1  0.4824300000000  0.4123940000000  0.5454510000000 1.0
C      1  0.5053710000000  0.4711520000000  0.4632250000000 1.0
C      1  0.4365610000000  0.4983180000000  0.5112790000000 1.0
C      1  0.5092480000000  0.5373690000000  0.5168380000000 1.0
C      1  0.5458910000000  0.5040210000000  0.5332090000000 1.0
C      1  0.4673530000000  0.4829690000000  0.5136960000000 1.0
C      1  0.5888400000000  0.4747260000000  0.5265140000000 1.0
C      1  0.6022480000000  0.5175770000000  0.4843910000000 1.0
C      1  0.5498380000000  0.3927190000000  0.5579610000000 1.0
C      1  0.5955900000000  0.4319670000000  0.4954310000000 1.0
C      1  0.5862640000000  0.5450310000000  0.4808260000000 1.0
C      1  0.5351050000000  0.4070700000000  0.5427980000000 1.0
C      1  0.4158730000000  0.4613620000000  0.4962260000000 1.0
C      1  0.4639280000000  0.5808940000000  0.4956380000000 1.0
C      1  0.4734780000000  0.6091520000000  0.5018880000000 1.0
C      1  0.4785930000000  0.5860330000000  0.5439940000000 1.0
C      1  0.5223200000000  0.5134970000000  0.5640960000000 1.0
C      1  0.5289360000000  0.4957970000000  0.4653270000000 1.0
C      1  0.4658230000000  0.4959080000000  0.4179790000000 1.0
C      1  0.4537990000000  0.5501630000000  0.4500810000000 1.0
C      1  0.4355880000000  0.5064910000000  0.4118730000000 1.0
C      1  0.5979960000000  0.4629930000000  0.4958630000000 1.0
C      1  0.5498610000000  0.5362830000000  0.4948950000000 1.0
C      1  0.4769660000000  0.4691140000000  0.4341730000000 1.0
C      1  0.4148170000000  0.5670780000000  0.4753000000000 1.0
C      1  0.4341170000000  0.4969290000000  0.5413950000000 1.0
C      1  0.5167520000000  0.5302410000000  0.4493140000000 1.0
C      1  0.5266810000000  0.5571940000000  0.5705860000000 1.0
C      1  0.5470200000000  0.4391540000000  0.4313450000000 1.0
C      1  0.4717800000000  0.5976050000000  0.4604030000000 1.0
C      1  0.5792860000000  0.4726040000000  0.4698080000000 1.0
C      1  0.4791830000000  0.4925050000000  0.3900630000000 1.0
C      1  0.4433880000000  0.4343310000000  0.4508200000000 1.0
C      1  0.4250320000000  0.5396370000000  0.4474900000000 1.0
C      1  0.4913490000000  0.4430920000000  0.4500000000000 1.0
C      1  0.4947880000000  0.5213170000000  0.5778810000000 1.0
C      1  0.5530340000000  0.4593510000000  0.4767970000000 1.0
C      1  0.4542190000000  0.5045360000000  0.4702220000000 1.0
C      1  0.3978530000000  0.5043430000000  0.5579650000000 1.0
C      1  0.5227660000000  0.4473820000000  0.4740880000000 1.0
C      1  0.4897970000000  0.4070690000000  0.5125930000000 1.0
C      1  0.4698220000000  0.4576010000000  0.5438510000000 1.0
C      1  0.5435850000000  0.4178460000000  0.4880620000000 1.0
C      1  0.5734810000000  0.4476790000000  0.4281880000000 1.0
C      1  0.4575630000000  0.5170510000000  0.4433060000000 1.0
END
