TITL C-2847956-8218-123 0.00185766417612707 125000 -773.070265467592 0 0 145 (C1) n - 1
REM
REM in /home/bkarasulu/work/CARBON/AIRSS/Generating-Clusters/AIREBO/with-SteepDescent/Only-C1/SD-CG-opt/Try1-1.4A-POS3A/HFTN-CG
REM
REM
REM
REM
REM
REM ./C.cell (11c1c37f851c82e70ff6c80c92926a4b)
REM
REM compiler GCC version 9.2.1 20190827 (Red Hat 9.2.1-1)
REM options -cpp -mtune=generic -march=x86-64 -g -O0 -fpre-include=/usr/include/finclude/math-vector-fortran.h
REM seed -521519526 255300890 739159625 805331558 -856596343 1463812153 -1777018471 -1512328583 -1841543286 -1226885109 1087918513 -1224994943 689663166 -1004261392 -1032579071 -787212784 -1929252016 -250075995 798219454 -1688951614 -1061476966 916080647 1744473693 847227618 -276825831 1652369954 1379656390 145849318 519531984 1765495694 -450923311 748718570 -215549332
REM
CELL 1.54180   50.00000   50.00000   50.00000   90.00000   90.00000   90.00000
LATT -1
SFAC C  
C      1  0.5023830000000  0.4792520000000  0.5787190000000 1.0
C      1  0.4254750000000  0.5225840000000  0.5331630000000 1.0
C      1  0.4704440000000  0.5399840000000  0.4617740000000 1.0
C      1  0.4039160000000  0.5392380000000  0.4802570000000 1.0
C      1  0.5322280000000  0.5269110000000  0.4893120000000 1.0
C      1  0.5444960000000  0.4216890000000  0.4974030000000 1.0
C      1  0.5514750000000  0.4724630000000  0.4111060000000 1.0
C      1  0.4324440000000  0.5280870000000  0.4943040000000 1.0
C      1  0.5132640000000  0.5703130000000  0.4952780000000 1.0
C      1  0.4835360000000  0.4627530000000  0.5359260000000 1.0
C      1  0.5682710000000  0.5995450000000  0.5272940000000 1.0
C      1  0.5186360000000  0.3995550000000  0.4961620000000 1.0
C      1  0.4864340000000  0.5201740000000  0.4099980000000 1.0
C      1  0.5293390000000  0.5684040000000  0.4260330000000 1.0
C      1  0.5206430000000  0.5458770000000  0.5690870000000 1.0
C      1  0.5242160000000  0.5421710000000  0.4191270000000 1.0
C      1  0.4645930000000  0.5652200000000  0.4313620000000 1.0
C      1  0.4451870000000  0.5458270000000  0.5190810000000 1.0
C      1  0.4646180000000  0.4883180000000  0.5479540000000 1.0
C      1  0.5503650000000  0.5192440000000  0.5713870000000 1.0
C      1  0.5761050000000  0.5245460000000  0.4698810000000 1.0
C      1  0.4799570000000  0.3940530000000  0.5314660000000 1.0
C      1  0.4750990000000  0.5013960000000  0.4978180000000 1.0
C      1  0.4811550000000  0.5629970000000  0.5392910000000 1.0
C      1  0.5464350000000  0.5543790000000  0.5280040000000 1.0
C      1  0.4883250000000  0.5917730000000  0.4628360000000 1.0
C      1  0.5652530000000  0.4567410000000  0.5473330000000 1.0
C      1  0.4679090000000  0.4376550000000  0.4561030000000 1.0
C      1  0.4564270000000  0.5140520000000  0.4464690000000 1.0
C      1  0.4062690000000  0.4837860000000  0.5538320000000 1.0
C      1  0.4925880000000  0.4065590000000  0.4516260000000 1.0
C      1  0.5111250000000  0.4790740000000  0.5458540000000 1.0
C      1  0.4731110000000  0.5910260000000  0.4390670000000 1.0
C      1  0.5854940000000  0.4947190000000  0.5476800000000 1.0
C      1  0.5729070000000  0.4789970000000  0.4359840000000 1.0
C      1  0.4907560000000  0.5844180000000  0.5634120000000 1.0
C      1  0.4123490000000  0.4579690000000  0.4679460000000 1.0
C      1  0.5244140000000  0.4881830000000  0.4250170000000 1.0
C      1  0.5309160000000  0.5276920000000  0.5200750000000 1.0
C      1  0.5825690000000  0.5175230000000  0.5244090000000 1.0
C      1  0.5758180000000  0.5053030000000  0.4974990000000 1.0
C      1  0.4999510000000  0.5377670000000  0.5521840000000 1.0
C      1  0.5135760000000  0.4990210000000  0.6017690000000 1.0
C      1  0.5221510000000  0.4905820000000  0.3912980000000 1.0
C      1  0.4448530000000  0.4607590000000  0.4656550000000 1.0
C      1  0.5330090000000  0.5106740000000  0.4433710000000 1.0
C      1  0.4669190000000  0.4281930000000  0.5480130000000 1.0
C      1  0.5153840000000  0.4213400000000  0.4702480000000 1.0
C      1  0.6046300000000  0.4844740000000  0.4745070000000 1.0
C      1  0.4087320000000  0.5350830000000  0.4494920000000 1.0
C      1  0.4506620000000  0.5102380000000  0.4794890000000 1.0
C      1  0.4911520000000  0.4317230000000  0.5242950000000 1.0
C      1  0.4387430000000  0.5653110000000  0.4765850000000 1.0
C      1  0.6028300000000  0.4738640000000  0.4490580000000 1.0
C      1  0.4368900000000  0.4915680000000  0.5369110000000 1.0
C      1  0.4553310000000  0.4738120000000  0.4952540000000 1.0
C      1  0.5491800000000  0.5734290000000  0.4603060000000 1.0
C      1  0.4429260000000  0.5557040000000  0.4494440000000 1.0
C      1  0.4274280000000  0.5597230000000  0.5521980000000 1.0
C      1  0.5727770000000  0.4927420000000  0.3984540000000 1.0
C      1  0.4048270000000  0.4542690000000  0.4956590000000 1.0
C      1  0.4261590000000  0.4877220000000  0.5059240000000 1.0
C      1  0.5300050000000  0.3963680000000  0.5244660000000 1.0
C      1  0.4998970000000  0.5540480000000  0.4685660000000 1.0
C      1  0.4880010000000  0.6062000000000  0.5237790000000 1.0
C      1  0.4819660000000  0.4595790000000  0.4796110000000 1.0
C      1  0.4437770000000  0.4423120000000  0.5008770000000 1.0
C      1  0.5052790000000  0.5303390000000  0.4447810000000 1.0
C      1  0.5386430000000  0.4537160000000  0.4681400000000 1.0
C      1  0.4982720000000  0.5204030000000  0.5139200000000 1.0
C      1  0.4575050000000  0.5439130000000  0.5509660000000 1.0
C      1  0.5062470000000  0.5120030000000  0.4734090000000 1.0
C      1  0.4630330000000  0.5851760000000  0.5209220000000 1.0
C      1  0.5138990000000  0.5183790000000  0.4011060000000 1.0
C      1  0.4521940000000  0.4514130000000  0.5303030000000 1.0
C      1  0.4673200000000  0.4656500000000  0.4201370000000 1.0
C      1  0.4472520000000  0.4791350000000  0.6038690000000 1.0
C      1  0.5289540000000  0.4760290000000  0.5170370000000 1.0
C      1  0.5094190000000  0.5994060000000  0.5084890000000 1.0
C      1  0.4203700000000  0.4413720000000  0.5234960000000 1.0
C      1  0.4933620000000  0.4834500000000  0.4644490000000 1.0
C      1  0.4921560000000  0.4084420000000  0.5566580000000 1.0
C      1  0.4973850000000  0.4752380000000  0.4347340000000 1.0
C      1  0.4209060000000  0.4472090000000  0.4368390000000 1.0
C      1  0.5487440000000  0.4215570000000  0.4636690000000 1.0
C      1  0.5549810000000  0.4689340000000  0.5761870000000 1.0
C      1  0.5187760000000  0.4189930000000  0.5417780000000 1.0
C      1  0.5278100000000  0.5264260000000  0.5916330000000 1.0
C      1  0.5687530000000  0.4958540000000  0.5720090000000 1.0
C      1  0.5723150000000  0.4361450000000  0.4842420000000 1.0
C      1  0.5483500000000  0.4314050000000  0.5358640000000 1.0
C      1  0.4729310000000  0.5345830000000  0.6039150000000 1.0
C      1  0.4985790000000  0.5271120000000  0.6087880000000 1.0
C      1  0.5528670000000  0.5162130000000  0.5396450000000 1.0
C      1  0.4563260000000  0.5247900000000  0.5791790000000 1.0
C      1  0.5687690000000  0.4553130000000  0.4566490000000 1.0
C      1  0.5087710000000  0.4417230000000  0.4162690000000 1.0
C      1  0.4447380000000  0.4203680000000  0.4838940000000 1.0
C      1  0.4610380000000  0.4933480000000  0.5788360000000 1.0
C      1  0.5272900000000  0.4448070000000  0.5127740000000 1.0
C      1  0.5606840000000  0.5932740000000  0.5011760000000 1.0
C      1  0.5665080000000  0.5117250000000  0.4430190000000 1.0
C      1  0.5816410000000  0.4734600000000  0.4950520000000 1.0
C      1  0.4730610000000  0.4111520000000  0.4767900000000 1.0
C      1  0.4322900000000  0.4893620000000  0.4664720000000 1.0
C      1  0.5127160000000  0.4484730000000  0.4490450000000 1.0
C      1  0.4303370000000  0.5761260000000  0.5232640000000 1.0
C      1  0.4483970000000  0.4453590000000  0.4293190000000 1.0
C      1  0.5434100000000  0.5662730000000  0.4991220000000 1.0
C      1  0.4924250000000  0.6097670000000  0.5517890000000 1.0
C      1  0.5301680000000  0.4713910000000  0.5974710000000 1.0
C      1  0.5234710000000  0.4577900000000  0.3993800000000 1.0
C      1  0.5668880000000  0.4502480000000  0.5139950000000 1.0
C      1  0.4052160000000  0.4699530000000  0.5258260000000 1.0
C      1  0.5553130000000  0.5464580000000  0.4762800000000 1.0
C      1  0.4986160000000  0.4391530000000  0.5697790000000 1.0
C      1  0.5564590000000  0.4847480000000  0.5318200000000 1.0
C      1  0.4653220000000  0.5562230000000  0.4937060000000 1.0
C      1  0.5795150000000  0.5119460000000  0.4136930000000 1.0
C      1  0.5676840000000  0.5905080000000  0.4534430000000 1.0
C      1  0.6069360000000  0.5124270000000  0.4742360000000 1.0
C      1  0.6021870000000  0.5371630000000  0.5242050000000 1.0
C      1  0.4099770000000  0.5125060000000  0.5577170000000 1.0
C      1  0.4590850000000  0.4386540000000  0.5746820000000 1.0
C      1  0.5611510000000  0.5793210000000  0.5453780000000 1.0
C      1  0.4041240000000  0.5106290000000  0.4973050000000 1.0
C      1  0.4861910000000  0.4260700000000  0.4296140000000 1.0
C      1  0.5280660000000  0.4541350000000  0.5615990000000 1.0
C      1  0.5076180000000  0.4910300000000  0.5001450000000 1.0
C      1  0.4922510000000  0.5076580000000  0.5436420000000 1.0
C      1  0.4262060000000  0.5211460000000  0.4379860000000 1.0
C      1  0.4739640000000  0.4984240000000  0.4263260000000 1.0
C      1  0.5018750000000  0.4419550000000  0.4936800000000 1.0
C      1  0.5231600000000  0.4395890000000  0.5919570000000 1.0
C      1  0.4918600000000  0.5503170000000  0.5100430000000 1.0
C      1  0.4162640000000  0.5670630000000  0.4953100000000 1.0
C      1  0.4760820000000  0.5882240000000  0.4895940000000 1.0
C      1  0.4250960000000  0.5342570000000  0.5713280000000 1.0
C      1  0.5182840000000  0.5786320000000  0.4564830000000 1.0
C      1  0.4875780000000  0.4051790000000  0.5033270000000 1.0
C      1  0.5393010000000  0.5614880000000  0.5584740000000 1.0
C      1  0.4827410000000  0.5454520000000  0.4242490000000 1.0
C      1  0.4756500000000  0.4627080000000  0.5811940000000 1.0
C      1  0.5440120000000  0.5010200000000  0.4737060000000 1.0
C      1  0.5482840000000  0.4757670000000  0.4890540000000 1.0
END
