TITL C-2848506-1665-343 -0.00275257445027857 125000 -278.735394580365 0 0 48 (C1) n - 1
REM
REM in /home/bkarasulu/work/CARBON/AIRSS/Generating-Clusters/AIREBO/with-SteepDescent/Only-C1/SD-CG-opt/Try1-1.4A-POS3A/HFTN-CG
REM
REM
REM
REM
REM
REM ./C.cell (11c1c37f851c82e70ff6c80c92926a4b)
REM
REM compiler GCC version 9.2.1 20190827 (Red Hat 9.2.1-1)
REM options -cpp -mtune=generic -march=x86-64 -g -O0 -fpre-include=/usr/include/finclude/math-vector-fortran.h
REM seed 744319960 640145207 818066033 47670700 821694720 -159697722 -1379798272 1907360858 -2068646212 1897214115 772932923 -1351378395 -1984305584 -1332309879 -1966812793 -771421533 166222113 -391534748 -1460919332 -1881149400 327896185 -1170978350 1367530901 -887432493 -110251949 -691174110 29250699 2013370808 10659215 -2101160075 2010526846 -1072570202 732264689
REM
CELL 1.54180   50.00000   50.00000   50.00000   90.00000   90.00000   90.00000
LATT -1
SFAC C  
C      1  0.4361030000000  0.5615420000000  0.4850640000000 1.0
C      1  0.4709950000000  0.4566460000000  0.5108170000000 1.0
C      1  0.5517050000000  0.5229490000000  0.5105030000000 1.0
C      1  0.4824720000000  0.5296650000000  0.4464500000000 1.0
C      1  0.5219910000000  0.4216650000000  0.5520620000000 1.0
C      1  0.5531090000000  0.5301960000000  0.4837920000000 1.0
C      1  0.5043170000000  0.5132250000000  0.5607180000000 1.0
C      1  0.4935730000000  0.5273140000000  0.4183690000000 1.0
C      1  0.4375570000000  0.5703730000000  0.5115290000000 1.0
C      1  0.5173230000000  0.4078540000000  0.5280840000000 1.0
C      1  0.5693780000000  0.5160940000000  0.4416530000000 1.0
C      1  0.5993570000000  0.5224540000000  0.4774040000000 1.0
C      1  0.5457420000000  0.5125760000000  0.5356710000000 1.0
C      1  0.5646840000000  0.4197160000000  0.5084360000000 1.0
C      1  0.5035680000000  0.5229920000000  0.3952880000000 1.0
C      1  0.4564150000000  0.5685750000000  0.4669830000000 1.0
C      1  0.5345380000000  0.5787070000000  0.4687440000000 1.0
C      1  0.4406170000000  0.4865780000000  0.4876300000000 1.0
C      1  0.5393420000000  0.4000010000000  0.5134840000000 1.0
C      1  0.4914630000000  0.4100190000000  0.5175020000000 1.0
C      1  0.4161000000000  0.5055280000000  0.4809710000000 1.0
C      1  0.4558180000000  0.4949600000000  0.5336480000000 1.0
C      1  0.4962210000000  0.5159610000000  0.4928690000000 1.0
C      1  0.4323550000000  0.5215790000000  0.4546660000000 1.0
C      1  0.4908410000000  0.5016830000000  0.5155400000000 1.0
C      1  0.4939200000000  0.4737040000000  0.5150870000000 1.0
C      1  0.4489260000000  0.5593210000000  0.5334530000000 1.0
C      1  0.4811210000000  0.5591140000000  0.4587130000000 1.0
C      1  0.5114270000000  0.4892430000000  0.5735280000000 1.0
C      1  0.4759440000000  0.4296940000000  0.5070140000000 1.0
C      1  0.4597680000000  0.4878400000000  0.4660830000000 1.0
C      1  0.5037710000000  0.5285970000000  0.4708040000000 1.0
C      1  0.5274540000000  0.5270680000000  0.5520650000000 1.0
C      1  0.3906900000000  0.4959160000000  0.4849470000000 1.0
C      1  0.4805210000000  0.5151710000000  0.5423340000000 1.0
C      1  0.5675830000000  0.4460270000000  0.5142430000000 1.0
C      1  0.5742570000000  0.5228340000000  0.4673750000000 1.0
C      1  0.5670260000000  0.4680400000000  0.5298060000000 1.0
C      1  0.5648400000000  0.3898280000000  0.4962900000000 1.0
C      1  0.5305050000000  0.5451360000000  0.4723150000000 1.0
C      1  0.4681540000000  0.5433450000000  0.5427540000000 1.0
C      1  0.5314950000000  0.4730990000000  0.5616120000000 1.0
C      1  0.5498510000000  0.4855060000000  0.5433590000000 1.0
C      1  0.4502220000000  0.4770470000000  0.5121960000000 1.0
C      1  0.5053940000000  0.5684180000000  0.4655050000000 1.0
C      1  0.4226560000000  0.5385430000000  0.4787510000000 1.0
C      1  0.5303750000000  0.4452950000000  0.5619390000000 1.0
C      1  0.4585180000000  0.5123680000000  0.4519530000000 1.0
END
