TITL C-2848501-3133-647 0.00254403539124528 125000 -343.429685357223 0 0 70 (C1) n - 1
REM
REM in /home/bkarasulu/work/CARBON/AIRSS/Generating-Clusters/AIREBO/with-SteepDescent/Only-C1/SD-CG-opt/Try1-1.4A-POS3A/HFTN-CG
REM
REM
REM
REM
REM
REM ./C.cell (11c1c37f851c82e70ff6c80c92926a4b)
REM
REM compiler GCC version 9.2.1 20190827 (Red Hat 9.2.1-1)
REM options -cpp -mtune=generic -march=x86-64 -g -O0 -fpre-include=/usr/include/finclude/math-vector-fortran.h
REM seed -944325693 571596971 1756602842 -1909287986 1347151290 -2087026883 440111048 -379770203 -793999221 -68258181 783253631 1783580137 -1970827079 624093739 -2129269121 1851436750 -2013357738 1638840753 1908729357 1798522407 481676054 -555486960 824868990 828153050 -475872414 120293053 -1566767870 1500048372 472123298 1813762362 -391554421 -1947941229 472619098
REM
CELL 1.54180   50.00000   50.00000   50.00000   90.00000   90.00000   90.00000
LATT -1
SFAC C  
C      1  0.5583040000000  0.4689280000000  0.4696550000000 1.0
C      1  0.5705530000000  0.4962580000000  0.5445320000000 1.0
C      1  0.4936370000000  0.4885130000000  0.5798890000000 1.0
C      1  0.4950740000000  0.5404970000000  0.5637010000000 1.0
C      1  0.4767520000000  0.5118010000000  0.5663990000000 1.0
C      1  0.4817720000000  0.4521070000000  0.4513680000000 1.0
C      1  0.4786780000000  0.4650820000000  0.5720510000000 1.0
C      1  0.4856220000000  0.5517710000000  0.4473270000000 1.0
C      1  0.5146900000000  0.5582160000000  0.4408570000000 1.0
C      1  0.4722680000000  0.5470830000000  0.4928830000000 1.0
C      1  0.4328820000000  0.4850280000000  0.4962970000000 1.0
C      1  0.5170730000000  0.4631990000000  0.5404600000000 1.0
C      1  0.5248380000000  0.5077300000000  0.5458580000000 1.0
C      1  0.5208250000000  0.4882050000000  0.5711460000000 1.0
C      1  0.4984060000000  0.4904650000000  0.5015910000000 1.0
C      1  0.4460890000000  0.5240460000000  0.4577300000000 1.0
C      1  0.4659140000000  0.4923930000000  0.4270270000000 1.0
C      1  0.5114920000000  0.4605720000000  0.4443720000000 1.0
C      1  0.5376070000000  0.4468140000000  0.5048860000000 1.0
C      1  0.4982630000000  0.5023270000000  0.4303230000000 1.0
C      1  0.5311950000000  0.5512490000000  0.4629680000000 1.0
C      1  0.4726310000000  0.5218250000000  0.4415030000000 1.0
C      1  0.4295290000000  0.4527170000000  0.5335670000000 1.0
C      1  0.4353380000000  0.5350630000000  0.5081620000000 1.0
C      1  0.5147460000000  0.5375450000000  0.5001270000000 1.0
C      1  0.5341430000000  0.4450630000000  0.4645070000000 1.0
C      1  0.5034360000000  0.5014180000000  0.4635020000000 1.0
C      1  0.4751480000000  0.4672800000000  0.5447260000000 1.0
C      1  0.4933230000000  0.5694270000000  0.4782390000000 1.0
C      1  0.5256710000000  0.5738540000000  0.4877620000000 1.0
C      1  0.5280300000000  0.4877030000000  0.4321070000000 1.0
C      1  0.4852730000000  0.4235940000000  0.5108030000000 1.0
C      1  0.5655580000000  0.4344850000000  0.5166700000000 1.0
C      1  0.5259510000000  0.4770980000000  0.4703320000000 1.0
C      1  0.4581400000000  0.5563160000000  0.5221370000000 1.0
C      1  0.5583990000000  0.4649340000000  0.5232630000000 1.0
C      1  0.5159240000000  0.4294320000000  0.4852970000000 1.0
C      1  0.5324320000000  0.5185510000000  0.4681800000000 1.0
C      1  0.4500910000000  0.4980840000000  0.5484100000000 1.0
C      1  0.4487200000000  0.4739870000000  0.5244130000000 1.0
C      1  0.5471480000000  0.5032220000000  0.5222210000000 1.0
C      1  0.5625630000000  0.4854040000000  0.4977030000000 1.0
C      1  0.4968040000000  0.5476150000000  0.5243880000000 1.0
C      1  0.4473780000000  0.5283440000000  0.5377010000000 1.0
C      1  0.4927960000000  0.4070730000000  0.4835230000000 1.0
C      1  0.5052730000000  0.4571690000000  0.5028560000000 1.0
C      1  0.5017040000000  0.4383400000000  0.5309520000000 1.0
C      1  0.5214220000000  0.5363340000000  0.5536000000000 1.0
C      1  0.5350010000000  0.5526860000000  0.5347280000000 1.0
C      1  0.5478540000000  0.5352840000000  0.5109250000000 1.0
C      1  0.4951100000000  0.5316060000000  0.4730050000000 1.0
C      1  0.4778450000000  0.5614660000000  0.5489800000000 1.0
C      1  0.4443510000000  0.5127400000000  0.4880760000000 1.0
C      1  0.4799410000000  0.5195040000000  0.5334210000000 1.0
C      1  0.5240290000000  0.5062340000000  0.4974680000000 1.0
C      1  0.4734820000000  0.5141440000000  0.5013530000000 1.0
C      1  0.4714390000000  0.4607160000000  0.5028270000000 1.0
C      1  0.4576550000000  0.4714520000000  0.4446170000000 1.0
C      1  0.5699630000000  0.5067790000000  0.4723070000000 1.0
C      1  0.4406360000000  0.4745580000000  0.4657530000000 1.0
C      1  0.4772240000000  0.4370230000000  0.4794300000000 1.0
C      1  0.5534430000000  0.4928750000000  0.4460080000000 1.0
C      1  0.5590570000000  0.5726170000000  0.4814140000000 1.0
C      1  0.5583320000000  0.5380970000000  0.4787010000000 1.0
C      1  0.5457160000000  0.4743500000000  0.5522680000000 1.0
C      1  0.4466790000000  0.5495410000000  0.4727460000000 1.0
C      1  0.4835220000000  0.4761680000000  0.4745670000000 1.0
C      1  0.5189100000000  0.5727080000000  0.5182270000000 1.0
C      1  0.4025480000000  0.4847390000000  0.5006470000000 1.0
C      1  0.4977550000000  0.4905520000000  0.5345610000000 1.0
END
