TITL C-2848496-4490-265 -0.00376515390861509 125000 -783.335478331845 0 0 141 (C1) n - 1
REM
REM in /home/bkarasulu/work/CARBON/AIRSS/Generating-Clusters/AIREBO/with-SteepDescent/Only-C1/SD-CG-opt/Try1-1.4A-POS3A/HFTN-CG
REM
REM
REM
REM
REM
REM ./C.cell (11c1c37f851c82e70ff6c80c92926a4b)
REM
REM compiler GCC version 9.2.1 20190827 (Red Hat 9.2.1-1)
REM options -cpp -mtune=generic -march=x86-64 -g -O0 -fpre-include=/usr/include/finclude/math-vector-fortran.h
REM seed -46106717 955063596 -1023582617 129783915 -426216633 -778467277 -1975809501 -1330246566 372783764 -1676736525 1395270898 -1261974267 -2057756161 -569527200 -1472618840 181861603 1371959942 -181090700 -1403292322 47348334 -1042188013 -476788389 1242808726 -1770768163 2120487723 -1450128603 103837639 101676709 916177435 -44535101 1337483261 1058916570 425066954
REM
CELL 1.54180   50.00000   50.00000   50.00000   90.00000   90.00000   90.00000
LATT -1
SFAC C  
C      1  0.4429000000000  0.5843680000000  0.4797760000000 1.0
C      1  0.5934830000000  0.5441940000000  0.5340010000000 1.0
C      1  0.4251810000000  0.5327010000000  0.4454900000000 1.0
C      1  0.4632440000000  0.4908960000000  0.5538190000000 1.0
C      1  0.5822120000000  0.5377550000000  0.4828780000000 1.0
C      1  0.5300450000000  0.4598320000000  0.4899620000000 1.0
C      1  0.4626040000000  0.5497890000000  0.4817450000000 1.0
C      1  0.5050310000000  0.5461900000000  0.3887240000000 1.0
C      1  0.4418840000000  0.5297490000000  0.4231470000000 1.0
C      1  0.5214500000000  0.5672830000000  0.4463930000000 1.0
C      1  0.4066550000000  0.4802490000000  0.5204820000000 1.0
C      1  0.4909150000000  0.5050470000000  0.5446630000000 1.0
C      1  0.5849660000000  0.5160910000000  0.4661970000000 1.0
C      1  0.5656600000000  0.5794250000000  0.5139670000000 1.0
C      1  0.5286880000000  0.4549420000000  0.5694370000000 1.0
C      1  0.5014120000000  0.4666840000000  0.4729260000000 1.0
C      1  0.4485540000000  0.4818260000000  0.4145060000000 1.0
C      1  0.4361770000000  0.5684880000000  0.5576600000000 1.0
C      1  0.4919240000000  0.5317710000000  0.5236440000000 1.0
C      1  0.5494740000000  0.4876960000000  0.4884160000000 1.0
C      1  0.4436660000000  0.4552240000000  0.5805090000000 1.0
C      1  0.4288300000000  0.4235940000000  0.4599310000000 1.0
C      1  0.4428970000000  0.5785870000000  0.5076070000000 1.0
C      1  0.4774090000000  0.4191720000000  0.4832340000000 1.0
C      1  0.5514280000000  0.3968710000000  0.5326510000000 1.0
C      1  0.4708320000000  0.5011450000000  0.6021930000000 1.0
C      1  0.5151870000000  0.5023330000000  0.5669470000000 1.0
C      1  0.5674630000000  0.4628600000000  0.5031650000000 1.0
C      1  0.5449980000000  0.5250910000000  0.5939950000000 1.0
C      1  0.4554170000000  0.4083720000000  0.4983780000000 1.0
C      1  0.5330370000000  0.4105070000000  0.4579880000000 1.0
C      1  0.4707370000000  0.5374460000000  0.4269790000000 1.0
C      1  0.5399350000000  0.5358210000000  0.5266360000000 1.0
C      1  0.4484280000000  0.4863260000000  0.5813460000000 1.0
C      1  0.4347990000000  0.5575040000000  0.4636920000000 1.0
C      1  0.4387910000000  0.5070080000000  0.4067800000000 1.0
C      1  0.4504510000000  0.4418910000000  0.4454300000000 1.0
C      1  0.5990100000000  0.4448180000000  0.4652210000000 1.0
C      1  0.5159400000000  0.5341940000000  0.5788180000000 1.0
C      1  0.4871290000000  0.5182010000000  0.4812670000000 1.0
C      1  0.5553630000000  0.5661240000000  0.4670250000000 1.0
C      1  0.4868550000000  0.5680360000000  0.4664520000000 1.0
C      1  0.4323350000000  0.4908410000000  0.5030900000000 1.0
C      1  0.5170410000000  0.5776500000000  0.4998740000000 1.0
C      1  0.4423910000000  0.5126140000000  0.4833940000000 1.0
C      1  0.5747750000000  0.5585320000000  0.5585130000000 1.0
C      1  0.5677060000000  0.5041350000000  0.5797790000000 1.0
C      1  0.4453240000000  0.4513770000000  0.5045900000000 1.0
C      1  0.4547670000000  0.5219470000000  0.5428570000000 1.0
C      1  0.5780320000000  0.5770550000000  0.4850850000000 1.0
C      1  0.5088380000000  0.4180040000000  0.5539130000000 1.0
C      1  0.5065870000000  0.4954520000000  0.4897800000000 1.0
C      1  0.4856160000000  0.5303800000000  0.5937950000000 1.0
C      1  0.5474230000000  0.4589770000000  0.4607410000000 1.0
C      1  0.4783390000000  0.4372220000000  0.4349590000000 1.0
C      1  0.5776130000000  0.4999500000000  0.5138360000000 1.0
C      1  0.4873260000000  0.4227910000000  0.5732870000000 1.0
C      1  0.5980840000000  0.5125770000000  0.5272800000000 1.0
C      1  0.5327280000000  0.4816040000000  0.4031310000000 1.0
C      1  0.5094020000000  0.4776570000000  0.5836010000000 1.0
C      1  0.4598780000000  0.4060090000000  0.5250660000000 1.0
C      1  0.5336380000000  0.5082750000000  0.4204640000000 1.0
C      1  0.4015440000000  0.4703880000000  0.4883370000000 1.0
C      1  0.5217850000000  0.4451420000000  0.5380200000000 1.0
C      1  0.4795820000000  0.6107820000000  0.5204960000000 1.0
C      1  0.5669780000000  0.4470220000000  0.5254350000000 1.0
C      1  0.4050630000000  0.5000600000000  0.5454720000000 1.0
C      1  0.4297810000000  0.4242320000000  0.4912580000000 1.0
C      1  0.5579920000000  0.3727690000000  0.5378680000000 1.0
C      1  0.4758770000000  0.4523320000000  0.4901930000000 1.0
C      1  0.5482680000000  0.5028170000000  0.5254170000000 1.0
C      1  0.4255260000000  0.5364450000000  0.4852540000000 1.0
C      1  0.4590410000000  0.4368690000000  0.5688130000000 1.0
C      1  0.5329730000000  0.4726070000000  0.5213630000000 1.0
C      1  0.4868370000000  0.5569670000000  0.4050570000000 1.0
C      1  0.4715620000000  0.4311630000000  0.5376930000000 1.0
C      1  0.5311990000000  0.5117290000000  0.4745830000000 1.0
C      1  0.4120920000000  0.5108270000000  0.4576280000000 1.0
C      1  0.5499930000000  0.5705520000000  0.5562200000000 1.0
C      1  0.5029440000000  0.4370100000000  0.4563990000000 1.0
C      1  0.4583500000000  0.5540370000000  0.5768090000000 1.0
C      1  0.4950470000000  0.4536510000000  0.5663140000000 1.0
C      1  0.5767440000000  0.5106740000000  0.4392080000000 1.0
C      1  0.4674160000000  0.5930530000000  0.4706460000000 1.0
C      1  0.4782530000000  0.4765780000000  0.4161630000000 1.0
C      1  0.5158050000000  0.5356470000000  0.5448460000000 1.0
C      1  0.5099580000000  0.4931270000000  0.5193220000000 1.0
C      1  0.5764390000000  0.4545100000000  0.5511300000000 1.0
C      1  0.4946870000000  0.4433110000000  0.5170590000000 1.0
C      1  0.5566240000000  0.5486200000000  0.5027340000000 1.0
C      1  0.5470100000000  0.5521670000000  0.4376850000000 1.0
C      1  0.5732860000000  0.4801380000000  0.4322080000000 1.0
C      1  0.5816580000000  0.4915820000000  0.4823440000000 1.0
C      1  0.4545430000000  0.5370840000000  0.5123940000000 1.0
C      1  0.4852710000000  0.4811310000000  0.4467160000000 1.0
C      1  0.4934770000000  0.4838120000000  0.6065270000000 1.0
C      1  0.5784280000000  0.4666740000000  0.4622850000000 1.0
C      1  0.4700350000000  0.5720570000000  0.5521690000000 1.0
C      1  0.4601890000000  0.4778560000000  0.5166300000000 1.0
C      1  0.5442470000000  0.5103000000000  0.5568860000000 1.0
C      1  0.4719850000000  0.5080220000000  0.5096690000000 1.0
C      1  0.4638590000000  0.4986770000000  0.4664560000000 1.0
C      1  0.4309030000000  0.5104440000000  0.5649820000000 1.0
C      1  0.4228320000000  0.4785650000000  0.4630380000000 1.0
C      1  0.4509370000000  0.5252400000000  0.5881360000000 1.0
C      1  0.5033990000000  0.5774470000000  0.5492540000000 1.0
C      1  0.5254180000000  0.5807210000000  0.4737620000000 1.0
C      1  0.5197680000000  0.5249020000000  0.3962510000000 1.0
C      1  0.5776940000000  0.4766030000000  0.5764030000000 1.0
C      1  0.4043550000000  0.5030120000000  0.4879160000000 1.0
C      1  0.5745320000000  0.5260390000000  0.5564260000000 1.0
C      1  0.5232260000000  0.5660730000000  0.5694650000000 1.0
C      1  0.4134280000000  0.4485370000000  0.5086790000000 1.0
C      1  0.4918810000000  0.5622740000000  0.4365980000000 1.0
C      1  0.5958230000000  0.5559840000000  0.5049860000000 1.0
C      1  0.5430600000000  0.4388820000000  0.4186660000000 1.0
C      1  0.4907570000000  0.5618570000000  0.5104620000000 1.0
C      1  0.4746790000000  0.4643690000000  0.5443040000000 1.0
C      1  0.5132820000000  0.5094890000000  0.4476700000000 1.0
C      1  0.4798490000000  0.5324800000000  0.5616680000000 1.0
C      1  0.5451690000000  0.4248510000000  0.5239600000000 1.0
C      1  0.4848480000000  0.5141380000000  0.4385640000000 1.0
C      1  0.4008840000000  0.5298700000000  0.5474170000000 1.0
C      1  0.4343920000000  0.4673710000000  0.4339430000000 1.0
C      1  0.4261050000000  0.5528500000000  0.5140110000000 1.0
C      1  0.5110900000000  0.4323670000000  0.4239660000000 1.0
C      1  0.4702240000000  0.5815170000000  0.5220060000000 1.0
C      1  0.5301850000000  0.5683880000000  0.5286270000000 1.0
C      1  0.5064260000000  0.4743310000000  0.3971590000000 1.0
C      1  0.4892840000000  0.4469010000000  0.4042430000000 1.0
C      1  0.5558640000000  0.5273600000000  0.4298150000000 1.0
C      1  0.5437550000000  0.4324790000000  0.4469320000000 1.0
C      1  0.5358260000000  0.4842310000000  0.4447780000000 1.0
C      1  0.4546190000000  0.4669630000000  0.4680310000000 1.0
C      1  0.5345520000000  0.5423770000000  0.4797290000000 1.0
C      1  0.4176560000000  0.5523200000000  0.5422820000000 1.0
C      1  0.5216100000000  0.4297170000000  0.5013540000000 1.0
C      1  0.5564920000000  0.4537140000000  0.5762260000000 1.0
C      1  0.5020530000000  0.5445820000000  0.4834420000000 1.0
C      1  0.5533140000000  0.4652880000000  0.4139360000000 1.0
C      1  0.5085740000000  0.4138940000000  0.4780940000000 1.0
END
