TITL C-2848499-1157-185 0.000104441540175263 125000 -249.689954706969 0 0 47 (C1) n - 1
REM
REM in /home/bkarasulu/work/CARBON/AIRSS/Generating-Clusters/AIREBO/with-SteepDescent/Only-C1/SD-CG-opt/Try1-1.4A-POS3A/HFTN-CG
REM
REM
REM
REM
REM
REM ./C.cell (11c1c37f851c82e70ff6c80c92926a4b)
REM
REM compiler GCC version 9.2.1 20190827 (Red Hat 9.2.1-1)
REM options -cpp -mtune=generic -march=x86-64 -g -O0 -fpre-include=/usr/include/finclude/math-vector-fortran.h
REM seed -233938202 -2019587868 -2013047556 1436072413 767088024 -796364727 845556315 1687603118 1284460476 1134441710 165552921 2043536417 1400901846 -1402657437 -1119426711 392984229 -548391709 -692187633 -1784068357 -1044397772 651962163 -1460292684 -1651584986 3418751 736867585 1118404056 -2090260014 -2007588338 1044252560 1132290992 -791294801 -1013300900 -950733985
REM
CELL 1.54180   50.00000   50.00000   50.00000   90.00000   90.00000   90.00000
LATT -1
SFAC C  
C      1  0.5589420000000  0.4716780000000  0.5029640000000 1.0
C      1  0.5193040000000  0.5288150000000  0.5730560000000 1.0
C      1  0.5179430000000  0.5117680000000  0.4778080000000 1.0
C      1  0.4509860000000  0.4857730000000  0.5321630000000 1.0
C      1  0.5225630000000  0.5127500000000  0.4308390000000 1.0
C      1  0.4582310000000  0.4648830000000  0.4659080000000 1.0
C      1  0.4806170000000  0.5255010000000  0.4606770000000 1.0
C      1  0.5257030000000  0.5199890000000  0.5442620000000 1.0
C      1  0.4761530000000  0.5419660000000  0.5380640000000 1.0
C      1  0.4727110000000  0.5481100000000  0.5079080000000 1.0
C      1  0.4783610000000  0.4358600000000  0.5305710000000 1.0
C      1  0.4372950000000  0.4827710000000  0.4688320000000 1.0
C      1  0.5061310000000  0.4403730000000  0.5372850000000 1.0
C      1  0.5068860000000  0.5337950000000  0.4440020000000 1.0
C      1  0.4433820000000  0.5052970000000  0.5134920000000 1.0
C      1  0.4545450000000  0.4586770000000  0.5268360000000 1.0
C      1  0.5257860000000  0.4871920000000  0.5422420000000 1.0
C      1  0.4873420000000  0.4727800000000  0.5682730000000 1.0
C      1  0.4954170000000  0.5061690000000  0.5026610000000 1.0
C      1  0.4836850000000  0.4723660000000  0.4708730000000 1.0
C      1  0.5660000000000  0.4963120000000  0.4929240000000 1.0
C      1  0.4445410000000  0.5100220000000  0.4678530000000 1.0
C      1  0.5152990000000  0.5590800000000  0.4541340000000 1.0
C      1  0.4540660000000  0.5191770000000  0.4407970000000 1.0
C      1  0.4696980000000  0.4964160000000  0.5538950000000 1.0
C      1  0.5410410000000  0.5355630000000  0.4854550000000 1.0
C      1  0.5740920000000  0.5261780000000  0.4822340000000 1.0
C      1  0.4971040000000  0.4723970000000  0.4990290000000 1.0
C      1  0.5474050000000  0.4998940000000  0.4694270000000 1.0
C      1  0.5212120000000  0.5579790000000  0.4818780000000 1.0
C      1  0.4969060000000  0.4959840000000  0.4562390000000 1.0
C      1  0.5248400000000  0.4337250000000  0.5161250000000 1.0
C      1  0.5536600000000  0.5309850000000  0.5363050000000 1.0
C      1  0.5236670000000  0.4823560000000  0.4426960000000 1.0
C      1  0.5607360000000  0.5314830000000  0.5111730000000 1.0
C      1  0.4660950000000  0.5268700000000  0.5580320000000 1.0
C      1  0.5269780000000  0.4733980000000  0.5136560000000 1.0
C      1  0.5337260000000  0.4619770000000  0.4580600000000 1.0
C      1  0.4947920000000  0.4940570000000  0.5344300000000 1.0
C      1  0.4176900000000  0.5151270000000  0.5124770000000 1.0
C      1  0.5049970000000  0.5311270000000  0.5236900000000 1.0
C      1  0.4744260000000  0.4512130000000  0.5034190000000 1.0
C      1  0.4759750000000  0.5012580000000  0.4294100000000 1.0
C      1  0.5019440000000  0.5571090000000  0.5016210000000 1.0
C      1  0.5091960000000  0.4627870000000  0.5546070000000 1.0
C      1  0.5360170000000  0.4513310000000  0.4892390000000 1.0
C      1  0.4659140000000  0.5196830000000  0.4924780000000 1.0
END
