TITL C-2847946-5639-503 -0.000572054030601516 125000 -700.569723146591 0 0 132 (C1) n - 1
REM
REM in /home/bkarasulu/work/CARBON/AIRSS/Generating-Clusters/AIREBO/with-SteepDescent/Only-C1/SD-CG-opt/Try1-1.4A-POS3A/HFTN-CG
REM
REM
REM
REM
REM
REM ./C.cell (11c1c37f851c82e70ff6c80c92926a4b)
REM
REM compiler GCC version 9.2.1 20190827 (Red Hat 9.2.1-1)
REM options -cpp -mtune=generic -march=x86-64 -g -O0 -fpre-include=/usr/include/finclude/math-vector-fortran.h
REM seed 1929652607 -652939860 1919180674 265058039 383541379 -1439429128 -807597507 482661101 -2138653380 -803039630 -767331038 1431401519 1300517318 -1709177040 -202117531 -1479610412 -1400912136 1552215961 -141061051 -761914051 -1333483213 1399150855 1122955830 220554726 -1742369322 -35783893 -892507549 1134856497 2059205388 -253670531 -1017039515 -2128913761 1908784756
REM
CELL 1.54180   50.00000   50.00000   50.00000   90.00000   90.00000   90.00000
LATT -1
SFAC C  
C      1  0.4953400000000  0.4152680000000  0.5377010000000 1.0
C      1  0.4875990000000  0.6031540000000  0.5173350000000 1.0
C      1  0.5118790000000  0.5649580000000  0.4346710000000 1.0
C      1  0.5040180000000  0.4852050000000  0.6028150000000 1.0
C      1  0.5770330000000  0.4853260000000  0.5469980000000 1.0
C      1  0.5087050000000  0.5499520000000  0.5702970000000 1.0
C      1  0.4610860000000  0.4306270000000  0.5243380000000 1.0
C      1  0.4192800000000  0.4784820000000  0.4799420000000 1.0
C      1  0.4160660000000  0.4959850000000  0.5050980000000 1.0
C      1  0.5265240000000  0.5217810000000  0.5635100000000 1.0
C      1  0.4991530000000  0.5206350000000  0.5077610000000 1.0
C      1  0.4962780000000  0.4709890000000  0.3995830000000 1.0
C      1  0.5206470000000  0.4828340000000  0.4009760000000 1.0
C      1  0.4950500000000  0.5361250000000  0.5440970000000 1.0
C      1  0.5624560000000  0.5172070000000  0.4179400000000 1.0
C      1  0.4156080000000  0.4342850000000  0.5045950000000 1.0
C      1  0.5292210000000  0.4929120000000  0.5812850000000 1.0
C      1  0.5480180000000  0.5292290000000  0.5380950000000 1.0
C      1  0.4545630000000  0.5055390000000  0.4107660000000 1.0
C      1  0.4304260000000  0.5506700000000  0.5784580000000 1.0
C      1  0.5639050000000  0.4264100000000  0.4992190000000 1.0
C      1  0.4508170000000  0.5137610000000  0.5491550000000 1.0
C      1  0.5668750000000  0.5399670000000  0.4428190000000 1.0
C      1  0.5009500000000  0.4759560000000  0.5313630000000 1.0
C      1  0.6064120000000  0.5022180000000  0.5442100000000 1.0
C      1  0.5408910000000  0.5582150000000  0.5712600000000 1.0
C      1  0.5206810000000  0.4507880000000  0.5029660000000 1.0
C      1  0.4623690000000  0.5815610000000  0.5651160000000 1.0
C      1  0.4760300000000  0.5566800000000  0.5717820000000 1.0
C      1  0.5112730000000  0.4441600000000  0.5368040000000 1.0
C      1  0.5524490000000  0.4977100000000  0.5261240000000 1.0
C      1  0.5603920000000  0.4725030000000  0.5742060000000 1.0
C      1  0.4461480000000  0.5778540000000  0.4826380000000 1.0
C      1  0.5536870000000  0.5170240000000  0.4567200000000 1.0
C      1  0.5917750000000  0.5049340000000  0.4553040000000 1.0
C      1  0.4392310000000  0.4531930000000  0.4885550000000 1.0
C      1  0.4440780000000  0.4641190000000  0.5535710000000 1.0
C      1  0.5324340000000  0.4804450000000  0.4911240000000 1.0
C      1  0.5840510000000  0.4645660000000  0.4884660000000 1.0
C      1  0.4543600000000  0.5360190000000  0.5699200000000 1.0
C      1  0.5040130000000  0.5102030000000  0.4245680000000 1.0
C      1  0.4492740000000  0.4610310000000  0.5200970000000 1.0
C      1  0.4694540000000  0.4864490000000  0.5548450000000 1.0
C      1  0.5233060000000  0.5068860000000  0.4592090000000 1.0
C      1  0.5412770000000  0.4305380000000  0.5145960000000 1.0
C      1  0.4736400000000  0.4827680000000  0.5152950000000 1.0
C      1  0.5495430000000  0.5361180000000  0.5042600000000 1.0
C      1  0.5836990000000  0.4445660000000  0.5080640000000 1.0
C      1  0.4185840000000  0.5321180000000  0.4881420000000 1.0
C      1  0.5718210000000  0.5610030000000  0.4615950000000 1.0
C      1  0.5848760000000  0.4546410000000  0.5346030000000 1.0
C      1  0.4363630000000  0.4318860000000  0.5551120000000 1.0
C      1  0.5630080000000  0.4487510000000  0.5546300000000 1.0
C      1  0.5187850000000  0.5701970000000  0.5099980000000 1.0
C      1  0.4612450000000  0.4719790000000  0.5821280000000 1.0
C      1  0.5720670000000  0.5170990000000  0.5580570000000 1.0
C      1  0.4512290000000  0.5405100000000  0.5149350000000 1.0
C      1  0.4306230000000  0.4160940000000  0.5251650000000 1.0
C      1  0.4669990000000  0.4171380000000  0.5549880000000 1.0
C      1  0.4633090000000  0.5225850000000  0.4630300000000 1.0
C      1  0.5830320000000  0.5195890000000  0.4831240000000 1.0
C      1  0.5551020000000  0.4711850000000  0.4422810000000 1.0
C      1  0.4297220000000  0.5212270000000  0.4579190000000 1.0
C      1  0.5041180000000  0.4216490000000  0.5689660000000 1.0
C      1  0.4759010000000  0.4747650000000  0.4229670000000 1.0
C      1  0.5570770000000  0.5616640000000  0.5428150000000 1.0
C      1  0.4986530000000  0.5310150000000  0.4792110000000 1.0
C      1  0.4451100000000  0.4485570000000  0.4332910000000 1.0
C      1  0.4827430000000  0.4003750000000  0.4761260000000 1.0
C      1  0.5316130000000  0.5290820000000  0.4259270000000 1.0
C      1  0.4696210000000  0.5154440000000  0.5214390000000 1.0
C      1  0.4727040000000  0.4467490000000  0.4898370000000 1.0
C      1  0.5820350000000  0.5080150000000  0.5131900000000 1.0
C      1  0.5161910000000  0.5795600000000  0.4638040000000 1.0
C      1  0.5067020000000  0.4756720000000  0.5638790000000 1.0
C      1  0.4568230000000  0.3997060000000  0.5108460000000 1.0
C      1  0.4888370000000  0.5471970000000  0.4235130000000 1.0
C      1  0.4615190000000  0.4708080000000  0.4698580000000 1.0
C      1  0.5419440000000  0.4350610000000  0.5438030000000 1.0
C      1  0.4492450000000  0.5461170000000  0.4836800000000 1.0
C      1  0.5601970000000  0.4259720000000  0.4706940000000 1.0
C      1  0.5195470000000  0.4975730000000  0.5175170000000 1.0
C      1  0.5765440000000  0.4940830000000  0.4337300000000 1.0
C      1  0.4799930000000  0.5254380000000  0.4059340000000 1.0
C      1  0.3930260000000  0.5427450000000  0.4960240000000 1.0
C      1  0.4618770000000  0.4111330000000  0.4605320000000 1.0
C      1  0.4355760000000  0.5786070000000  0.5759910000000 1.0
C      1  0.5511850000000  0.5086330000000  0.4878170000000 1.0
C      1  0.5151800000000  0.6005590000000  0.5243450000000 1.0
C      1  0.4420600000000  0.5081420000000  0.4936250000000 1.0
C      1  0.4197590000000  0.5065140000000  0.5372290000000 1.0
C      1  0.4693440000000  0.5678080000000  0.5136300000000 1.0
C      1  0.4729930000000  0.4987490000000  0.4852800000000 1.0
C      1  0.5299760000000  0.4897630000000  0.4328460000000 1.0
C      1  0.4153830000000  0.4601070000000  0.5227480000000 1.0
C      1  0.5454310000000  0.4396980000000  0.4502540000000 1.0
C      1  0.4825550000000  0.5477420000000  0.4550950000000 1.0
C      1  0.5041430000000  0.4892310000000  0.4744170000000 1.0
C      1  0.4956080000000  0.4436700000000  0.4383420000000 1.0
C      1  0.4963580000000  0.5526610000000  0.5188540000000 1.0
C      1  0.4709100000000  0.4295720000000  0.4347810000000 1.0
C      1  0.5407770000000  0.5831540000000  0.5303670000000 1.0
C      1  0.4982610000000  0.4335300000000  0.4917550000000 1.0
C      1  0.5218830000000  0.5407460000000  0.4563600000000 1.0
C      1  0.5325070000000  0.5579450000000  0.4843820000000 1.0
C      1  0.5999190000000  0.5285470000000  0.5316460000000 1.0
C      1  0.4356980000000  0.5506740000000  0.4435090000000 1.0
C      1  0.5363800000000  0.5088380000000  0.3985630000000 1.0
C      1  0.5188660000000  0.4301710000000  0.4474250000000 1.0
C      1  0.4432790000000  0.4801990000000  0.4309100000000 1.0
C      1  0.4444400000000  0.5906210000000  0.5096070000000 1.0
C      1  0.4504880000000  0.5714450000000  0.4527810000000 1.0
C      1  0.4949770000000  0.5066530000000  0.5561720000000 1.0
C      1  0.4891130000000  0.4707150000000  0.4531630000000 1.0
C      1  0.5099930000000  0.4141020000000  0.4689720000000 1.0
C      1  0.4834690000000  0.5889480000000  0.4910490000000 1.0
C      1  0.4049690000000  0.4786000000000  0.5391630000000 1.0
C      1  0.4821650000000  0.5786410000000  0.4628500000000 1.0
C      1  0.4648580000000  0.5914470000000  0.5376940000000 1.0
C      1  0.4409490000000  0.4342560000000  0.4603620000000 1.0
C      1  0.5430050000000  0.5226820000000  0.5932410000000 1.0
C      1  0.4895100000000  0.4073640000000  0.5088480000000 1.0
C      1  0.5775560000000  0.5483260000000  0.5191740000000 1.0
C      1  0.4736850000000  0.5047080000000  0.4389250000000 1.0
C      1  0.5993780000000  0.4863000000000  0.4967990000000 1.0
C      1  0.4251970000000  0.4913420000000  0.4544280000000 1.0
C      1  0.5503960000000  0.5800880000000  0.4657680000000 1.0
C      1  0.4999500000000  0.4459270000000  0.5784770000000 1.0
C      1  0.4848590000000  0.4649610000000  0.5955230000000 1.0
C      1  0.4244370000000  0.5362610000000  0.5255530000000 1.0
C      1  0.5824780000000  0.5505040000000  0.4854890000000 1.0
C      1  0.5593500000000  0.4686650000000  0.4739880000000 1.0
END
