TITL C-2847959-7740-510 -0.00215355275332895 125000 -666.330493068499 0 0 119 (C1) n - 1
REM
REM in /home/bkarasulu/work/CARBON/AIRSS/Generating-Clusters/AIREBO/with-SteepDescent/Only-C1/SD-CG-opt/Try1-1.4A-POS3A/HFTN-CG
REM
REM
REM
REM
REM
REM ./C.cell (11c1c37f851c82e70ff6c80c92926a4b)
REM
REM compiler GCC version 9.2.1 20190827 (Red Hat 9.2.1-1)
REM options -cpp -mtune=generic -march=x86-64 -g -O0 -fpre-include=/usr/include/finclude/math-vector-fortran.h
REM seed 1919836523 1011822798 -2103462642 1262796643 1881428615 2028411771 -1232924822 -1740352183 284040745 368852271 645571403 574911535 -291719945 -265515281 -1036989061 1095232740 700680990 122509540 -1975394425 -1832393498 -943286383 -787257417 953229568 -22139543 1986465223 -860716636 1289012776 -37202848 1224047310 -399369907 2118658652 -2010601670 1606970417
REM
CELL 1.54180   50.00000   50.00000   50.00000   90.00000   90.00000   90.00000
LATT -1
SFAC C  
C      1  0.5433950000000  0.4936780000000  0.5792900000000 1.0
C      1  0.5294700000000  0.4645380000000  0.5000950000000 1.0
C      1  0.5885480000000  0.5226580000000  0.4797110000000 1.0
C      1  0.5541920000000  0.5167870000000  0.4992920000000 1.0
C      1  0.5844150000000  0.5120050000000  0.5375960000000 1.0
C      1  0.4130070000000  0.4614280000000  0.4481140000000 1.0
C      1  0.5265920000000  0.5334430000000  0.4593370000000 1.0
C      1  0.5524640000000  0.5124480000000  0.4661690000000 1.0
C      1  0.5728620000000  0.5462370000000  0.4780650000000 1.0
C      1  0.4979060000000  0.5675390000000  0.4780420000000 1.0
C      1  0.4886150000000  0.4855800000000  0.4806650000000 1.0
C      1  0.5865020000000  0.5167150000000  0.5099220000000 1.0
C      1  0.5196470000000  0.4785040000000  0.5805670000000 1.0
C      1  0.5012730000000  0.4326760000000  0.5689120000000 1.0
C      1  0.4883480000000  0.4628400000000  0.4268800000000 1.0
C      1  0.4810430000000  0.4500270000000  0.5141810000000 1.0
C      1  0.5196790000000  0.5641570000000  0.5431000000000 1.0
C      1  0.4759440000000  0.5264810000000  0.5388280000000 1.0
C      1  0.5258120000000  0.5286970000000  0.5715100000000 1.0
C      1  0.4035810000000  0.5187510000000  0.5000970000000 1.0
C      1  0.4961440000000  0.4194990000000  0.5132960000000 1.0
C      1  0.5822970000000  0.5036440000000  0.4522230000000 1.0
C      1  0.5222610000000  0.5161310000000  0.5054580000000 1.0
C      1  0.4341410000000  0.4341630000000  0.5086680000000 1.0
C      1  0.5337520000000  0.4904360000000  0.4539060000000 1.0
C      1  0.4461170000000  0.4472260000000  0.4885150000000 1.0
C      1  0.5588180000000  0.4944740000000  0.5487330000000 1.0
C      1  0.4269820000000  0.4945850000000  0.5663600000000 1.0
C      1  0.4839350000000  0.5103480000000  0.5777320000000 1.0
C      1  0.5226410000000  0.4076380000000  0.4723030000000 1.0
C      1  0.5266350000000  0.4839870000000  0.4068090000000 1.0
C      1  0.4638040000000  0.4616180000000  0.5718070000000 1.0
C      1  0.5191770000000  0.4561840000000  0.5578630000000 1.0
C      1  0.4763340000000  0.6159320000000  0.5022310000000 1.0
C      1  0.4962710000000  0.5645850000000  0.4303630000000 1.0
C      1  0.5866800000000  0.4732630000000  0.4910590000000 1.0
C      1  0.4163900000000  0.5180400000000  0.5494310000000 1.0
C      1  0.5903220000000  0.4536410000000  0.5443390000000 1.0
C      1  0.5416030000000  0.5776370000000  0.5015950000000 1.0
C      1  0.5095480000000  0.5507690000000  0.5673470000000 1.0
C      1  0.4871190000000  0.5736260000000  0.4054250000000 1.0
C      1  0.5718240000000  0.4866320000000  0.4283680000000 1.0
C      1  0.4883740000000  0.4786110000000  0.5884720000000 1.0
C      1  0.4769670000000  0.4175050000000  0.4629430000000 1.0
C      1  0.5028130000000  0.5343350000000  0.4834860000000 1.0
C      1  0.4419980000000  0.4887540000000  0.4509880000000 1.0
C      1  0.4322040000000  0.5633010000000  0.4753700000000 1.0
C      1  0.4465470000000  0.4854710000000  0.5150780000000 1.0
C      1  0.4490710000000  0.5155780000000  0.4796420000000 1.0
C      1  0.5555470000000  0.4853600000000  0.4027600000000 1.0
C      1  0.5513040000000  0.4677630000000  0.4394060000000 1.0
C      1  0.4588210000000  0.4195260000000  0.5486000000000 1.0
C      1  0.4233500000000  0.5451670000000  0.5530980000000 1.0
C      1  0.4190090000000  0.5636270000000  0.4999880000000 1.0
C      1  0.5559670000000  0.5241540000000  0.5753270000000 1.0
C      1  0.5254420000000  0.4290090000000  0.4512220000000 1.0
C      1  0.4419820000000  0.4386880000000  0.5353410000000 1.0
C      1  0.5664370000000  0.5562580000000  0.5378130000000 1.0
C      1  0.5140120000000  0.5353440000000  0.5307900000000 1.0
C      1  0.5179530000000  0.4761980000000  0.4735630000000 1.0
C      1  0.3968770000000  0.5460540000000  0.5013120000000 1.0
C      1  0.4159210000000  0.5085350000000  0.4764970000000 1.0
C      1  0.4622500000000  0.4658070000000  0.5380590000000 1.0
C      1  0.5095960000000  0.5332990000000  0.4298860000000 1.0
C      1  0.4391590000000  0.4770150000000  0.4829770000000 1.0
C      1  0.4531790000000  0.5608670000000  0.5575750000000 1.0
C      1  0.5289030000000  0.5082110000000  0.5451210000000 1.0
C      1  0.5427820000000  0.5748040000000  0.5318340000000 1.0
C      1  0.5539860000000  0.5511700000000  0.4565060000000 1.0
C      1  0.4785700000000  0.4533310000000  0.4804160000000 1.0
C      1  0.5406380000000  0.4446120000000  0.5406300000000 1.0
C      1  0.4740860000000  0.4328320000000  0.5682630000000 1.0
C      1  0.5350740000000  0.5441740000000  0.4101900000000 1.0
C      1  0.4953160000000  0.4093390000000  0.4815420000000 1.0
C      1  0.4858990000000  0.5941610000000  0.4929350000000 1.0
C      1  0.4808860000000  0.4892660000000  0.4252920000000 1.0
C      1  0.4861360000000  0.5413510000000  0.5122740000000 1.0
C      1  0.4460150000000  0.5458150000000  0.5859270000000 1.0
C      1  0.4791600000000  0.5204100000000  0.4385800000000 1.0
C      1  0.4425590000000  0.4583580000000  0.4427300000000 1.0
C      1  0.4529270000000  0.5193450000000  0.5834810000000 1.0
C      1  0.5178660000000  0.4011810000000  0.5319870000000 1.0
C      1  0.5125660000000  0.5847550000000  0.4456460000000 1.0
C      1  0.4798460000000  0.5123130000000  0.4714000000000 1.0
C      1  0.5616880000000  0.4537090000000  0.4985590000000 1.0
C      1  0.5102470000000  0.4831690000000  0.5420380000000 1.0
C      1  0.4341990000000  0.4718690000000  0.5797250000000 1.0
C      1  0.5384750000000  0.4118890000000  0.5423680000000 1.0
C      1  0.5138130000000  0.4579470000000  0.4142250000000 1.0
C      1  0.4456000000000  0.5151620000000  0.4401070000000 1.0
C      1  0.6002350000000  0.4854100000000  0.4714630000000 1.0
C      1  0.4501220000000  0.5244080000000  0.5086040000000 1.0
C      1  0.4356740000000  0.5653500000000  0.5286450000000 1.0
C      1  0.5721740000000  0.5336500000000  0.5535960000000 1.0
C      1  0.5628730000000  0.4646860000000  0.5369430000000 1.0
C      1  0.5538760000000  0.5588770000000  0.4243900000000 1.0
C      1  0.4540950000000  0.5061250000000  0.5521700000000 1.0
C      1  0.5590770000000  0.5499030000000  0.5053750000000 1.0
C      1  0.5402880000000  0.4129220000000  0.4938370000000 1.0
C      1  0.5450070000000  0.5818040000000  0.4467680000000 1.0
C      1  0.5059290000000  0.4877660000000  0.5098540000000 1.0
C      1  0.4082530000000  0.4802130000000  0.4700330000000 1.0
C      1  0.4703020000000  0.4473030000000  0.4479770000000 1.0
C      1  0.5199460000000  0.5016520000000  0.4282600000000 1.0
C      1  0.5348050000000  0.4459200000000  0.4307850000000 1.0
C      1  0.5277230000000  0.5810240000000  0.4760390000000 1.0
C      1  0.4574490000000  0.5549870000000  0.5065220000000 1.0
C      1  0.5619200000000  0.4854470000000  0.5100230000000 1.0
C      1  0.5653330000000  0.4245180000000  0.4913810000000 1.0
C      1  0.4234330000000  0.5098190000000  0.5216510000000 1.0
C      1  0.4365940000000  0.5382930000000  0.4601280000000 1.0
C      1  0.5265340000000  0.4347010000000  0.5119100000000 1.0
C      1  0.4757750000000  0.5028500000000  0.5143740000000 1.0
C      1  0.4831450000000  0.4893540000000  0.5509360000000 1.0
C      1  0.4640190000000  0.5654860000000  0.4761810000000 1.0
C      1  0.4805000000000  0.5424340000000  0.5660700000000 1.0
C      1  0.4727690000000  0.4029440000000  0.5303900000000 1.0
C      1  0.4746510000000  0.5523130000000  0.4494400000000 1.0
C      1  0.5093900000000  0.4451940000000  0.4700810000000 1.0
END
