TITL C-2847952-8118-410 0.00121981263772803 125000 -1040.47298718402 0 0 192 (C1) n - 1
REM
REM in /home/bkarasulu/work/CARBON/AIRSS/Generating-Clusters/AIREBO/with-SteepDescent/Only-C1/SD-CG-opt/Try1-1.4A-POS3A/HFTN-CG
REM
REM
REM
REM
REM
REM ./C.cell (11c1c37f851c82e70ff6c80c92926a4b)
REM
REM compiler GCC version 9.2.1 20190827 (Red Hat 9.2.1-1)
REM options -cpp -mtune=generic -march=x86-64 -g -O0 -fpre-include=/usr/include/finclude/math-vector-fortran.h
REM seed 800208319 -1250621897 1007445109 1197758280 -889504065 -1569188751 -601459191 46341324 2146231199 -1494460050 577344687 -1909030708 -475548543 158600066 -117575620 -804071979 942330597 -2143053692 515603534 -549628373 1221496136 -835780946 -1828600684 520326088 -422574835 -49855013 -208708588 1151159453 -202450219 -1453053142 -1553659309 -32160069 -457662861
REM
CELL 1.54180   50.00000   50.00000   50.00000   90.00000   90.00000   90.00000
LATT -1
SFAC C  
C      1  0.5288520000000  0.4329630000000  0.4586460000000 1.0
C      1  0.4485460000000  0.4710660000000  0.3956180000000 1.0
C      1  0.5749680000000  0.5561350000000  0.5074190000000 1.0
C      1  0.5281530000000  0.6026360000000  0.4720520000000 1.0
C      1  0.4991770000000  0.5002950000000  0.6101180000000 1.0
C      1  0.5936210000000  0.5418480000000  0.4505940000000 1.0
C      1  0.4520100000000  0.4424400000000  0.4117530000000 1.0
C      1  0.4527300000000  0.5700370000000  0.5018700000000 1.0
C      1  0.5471600000000  0.5741090000000  0.5823290000000 1.0
C      1  0.5375510000000  0.4608060000000  0.5952410000000 1.0
C      1  0.6006640000000  0.4550720000000  0.4578380000000 1.0
C      1  0.4590540000000  0.5476950000000  0.4402140000000 1.0
C      1  0.4076760000000  0.4456990000000  0.4813280000000 1.0
C      1  0.4932520000000  0.4141680000000  0.5688370000000 1.0
C      1  0.4486080000000  0.4954250000000  0.6079280000000 1.0
C      1  0.5076750000000  0.5865220000000  0.4616640000000 1.0
C      1  0.4624920000000  0.4873550000000  0.4827880000000 1.0
C      1  0.5865060000000  0.5885650000000  0.4884120000000 1.0
C      1  0.4435330000000  0.5071010000000  0.5701530000000 1.0
C      1  0.4554590000000  0.5283300000000  0.3916630000000 1.0
C      1  0.4271690000000  0.5677840000000  0.5278030000000 1.0
C      1  0.3831010000000  0.4996610000000  0.5019940000000 1.0
C      1  0.4444730000000  0.5268360000000  0.5978240000000 1.0
C      1  0.5007050000000  0.6213500000000  0.5042400000000 1.0
C      1  0.5873750000000  0.4671400000000  0.5506200000000 1.0
C      1  0.5913140000000  0.5426480000000  0.5412460000000 1.0
C      1  0.5159980000000  0.4317290000000  0.5506230000000 1.0
C      1  0.5210790000000  0.5541890000000  0.5603530000000 1.0
C      1  0.4648620000000  0.3976240000000  0.5692510000000 1.0
C      1  0.5753420000000  0.5685030000000  0.5390980000000 1.0
C      1  0.5023420000000  0.5275890000000  0.4019770000000 1.0
C      1  0.5180860000000  0.5089240000000  0.5324390000000 1.0
C      1  0.4753570000000  0.5390310000000  0.4673490000000 1.0
C      1  0.5499640000000  0.5129900000000  0.5626780000000 1.0
C      1  0.4572600000000  0.5133090000000  0.4614550000000 1.0
C      1  0.4269360000000  0.4736310000000  0.5245550000000 1.0
C      1  0.5767560000000  0.4876570000000  0.4346210000000 1.0
C      1  0.5871830000000  0.4324830000000  0.5107610000000 1.0
C      1  0.5287540000000  0.5550140000000  0.5110060000000 1.0
C      1  0.4388720000000  0.5285750000000  0.4206110000000 1.0
C      1  0.3987190000000  0.4710690000000  0.4602310000000 1.0
C      1  0.5370830000000  0.6206350000000  0.5230080000000 1.0
C      1  0.5615670000000  0.4143070000000  0.4707030000000 1.0
C      1  0.4743690000000  0.5290720000000  0.5574710000000 1.0
C      1  0.4718850000000  0.4916850000000  0.6226900000000 1.0
C      1  0.5896810000000  0.4647830000000  0.5004080000000 1.0
C      1  0.4442200000000  0.4125190000000  0.5573800000000 1.0
C      1  0.5589430000000  0.4170820000000  0.5217790000000 1.0
C      1  0.5071020000000  0.5580390000000  0.5890690000000 1.0
C      1  0.5180820000000  0.6266340000000  0.4833610000000 1.0
C      1  0.4655840000000  0.4072110000000  0.4744000000000 1.0
C      1  0.4371590000000  0.4978440000000  0.5029550000000 1.0
C      1  0.4009940000000  0.5054170000000  0.5440740000000 1.0
C      1  0.4686960000000  0.5750960000000  0.4276660000000 1.0
C      1  0.4248300000000  0.5520260000000  0.5578840000000 1.0
C      1  0.4078690000000  0.4479690000000  0.5388780000000 1.0
C      1  0.4985930000000  0.3941590000000  0.5265190000000 1.0
C      1  0.4527820000000  0.4973460000000  0.3999000000000 1.0
C      1  0.4707420000000  0.4872890000000  0.5696840000000 1.0
C      1  0.4861230000000  0.5663740000000  0.4964640000000 1.0
C      1  0.5688890000000  0.4466450000000  0.4804390000000 1.0
C      1  0.5764270000000  0.4351790000000  0.5518630000000 1.0
C      1  0.5167770000000  0.5015790000000  0.4992640000000 1.0
C      1  0.4898660000000  0.4682950000000  0.5210140000000 1.0
C      1  0.5814940000000  0.4333020000000  0.4518120000000 1.0
C      1  0.5485820000000  0.5804280000000  0.5481470000000 1.0
C      1  0.4610760000000  0.5053700000000  0.4317960000000 1.0
C      1  0.4786870000000  0.5314600000000  0.4990530000000 1.0
C      1  0.5300700000000  0.5128770000000  0.6034870000000 1.0
C      1  0.4364190000000  0.5813350000000  0.4757490000000 1.0
C      1  0.5095160000000  0.4600910000000  0.5810020000000 1.0
C      1  0.5680650000000  0.5130160000000  0.5095840000000 1.0
C      1  0.4401830000000  0.5030220000000  0.5364280000000 1.0
C      1  0.4890140000000  0.4391880000000  0.5871480000000 1.0
C      1  0.4225790000000  0.4205460000000  0.5323860000000 1.0
C      1  0.5654070000000  0.4690480000000  0.4085040000000 1.0
C      1  0.4907940000000  0.5941880000000  0.5707670000000 1.0
C      1  0.4262230000000  0.5199400000000  0.4711540000000 1.0
C      1  0.4362510000000  0.3997440000000  0.4833950000000 1.0
C      1  0.5051910000000  0.5550030000000  0.4707110000000 1.0
C      1  0.5193560000000  0.3979840000000  0.5532080000000 1.0
C      1  0.5159300000000  0.4565060000000  0.5026170000000 1.0
C      1  0.4979730000000  0.4713680000000  0.4186170000000 1.0
C      1  0.4148810000000  0.5214590000000  0.5628560000000 1.0
C      1  0.5192890000000  0.4734380000000  0.4442450000000 1.0
C      1  0.4695720000000  0.5803980000000  0.5500500000000 1.0
C      1  0.4540740000000  0.4195660000000  0.5195920000000 1.0
C      1  0.5507070000000  0.4910360000000  0.5874240000000 1.0
C      1  0.5852490000000  0.4788080000000  0.4632210000000 1.0
C      1  0.5124280000000  0.4948120000000  0.4687170000000 1.0
C      1  0.4795990000000  0.5428760000000  0.3927820000000 1.0
C      1  0.5362720000000  0.5148430000000  0.4228490000000 1.0
C      1  0.4124260000000  0.5446880000000  0.4313800000000 1.0
C      1  0.6045580000000  0.5602760000000  0.4955550000000 1.0
C      1  0.4091770000000  0.5497810000000  0.5078010000000 1.0
C      1  0.5014990000000  0.5893230000000  0.5122380000000 1.0
C      1  0.4206210000000  0.5000090000000  0.4233270000000 1.0
C      1  0.5088560000000  0.4638830000000  0.5480050000000 1.0
C      1  0.4749840000000  0.5693090000000  0.5878630000000 1.0
C      1  0.5168590000000  0.4061510000000  0.5022350000000 1.0
C      1  0.5128850000000  0.3978900000000  0.4492880000000 1.0
C      1  0.4958880000000  0.4466830000000  0.3753080000000 1.0
C      1  0.4900720000000  0.5028240000000  0.4209490000000 1.0
C      1  0.4838450000000  0.5945050000000  0.4499330000000 1.0
C      1  0.4203660000000  0.4193380000000  0.4982430000000 1.0
C      1  0.5142270000000  0.4964880000000  0.3778020000000 1.0
C      1  0.5346790000000  0.4794840000000  0.5365050000000 1.0
C      1  0.5206710000000  0.5876890000000  0.5661630000000 1.0
C      1  0.5340460000000  0.5425140000000  0.4827460000000 1.0
C      1  0.4009640000000  0.4777210000000  0.5538250000000 1.0
C      1  0.4267750000000  0.4345540000000  0.4281580000000 1.0
C      1  0.5856590000000  0.4951320000000  0.5644820000000 1.0
C      1  0.6152220000000  0.5156630000000  0.4826970000000 1.0
C      1  0.5526830000000  0.5400360000000  0.5229620000000 1.0
C      1  0.4339350000000  0.4703280000000  0.5576900000000 1.0
C      1  0.5196720000000  0.5024560000000  0.5649310000000 1.0
C      1  0.5591470000000  0.5614010000000  0.4779520000000 1.0
C      1  0.4862540000000  0.4109470000000  0.4978550000000 1.0
C      1  0.5835100000000  0.5172640000000  0.4435180000000 1.0
C      1  0.5911790000000  0.4972050000000  0.4902350000000 1.0
C      1  0.4858050000000  0.5543660000000  0.5418870000000 1.0
C      1  0.5276680000000  0.4302030000000  0.5193640000000 1.0
C      1  0.4439410000000  0.5339480000000  0.5391340000000 1.0
C      1  0.6170820000000  0.5080320000000  0.5223560000000 1.0
C      1  0.5122240000000  0.4552020000000  0.4708030000000 1.0
C      1  0.5091110000000  0.5120460000000  0.4431100000000 1.0
C      1  0.5442550000000  0.4832270000000  0.4300580000000 1.0
C      1  0.5525290000000  0.5905330000000  0.4886950000000 1.0
C      1  0.4278620000000  0.4446680000000  0.4546480000000 1.0
C      1  0.4213250000000  0.4825280000000  0.4439970000000 1.0
C      1  0.4993290000000  0.4889520000000  0.5814810000000 1.0
C      1  0.4103340000000  0.5161470000000  0.5131730000000 1.0
C      1  0.4710750000000  0.4596330000000  0.4320800000000 1.0
C      1  0.6033770000000  0.4833810000000  0.5253880000000 1.0
C      1  0.4383130000000  0.4468930000000  0.5068900000000 1.0
C      1  0.5423220000000  0.4399380000000  0.5705260000000 1.0
C      1  0.6108970000000  0.5382450000000  0.5207990000000 1.0
C      1  0.4521730000000  0.5880870000000  0.4545580000000 1.0
C      1  0.4646140000000  0.5459010000000  0.5226610000000 1.0
C      1  0.5549260000000  0.4698720000000  0.5604560000000 1.0
C      1  0.5116320000000  0.5425920000000  0.4433790000000 1.0
C      1  0.4630420000000  0.5993970000000  0.5156080000000 1.0
C      1  0.4429350000000  0.5583840000000  0.5842600000000 1.0
C      1  0.5505980000000  0.4120650000000  0.5533160000000 1.0
C      1  0.5131360000000  0.5400460000000  0.5329720000000 1.0
C      1  0.4976080000000  0.4262470000000  0.3977860000000 1.0
C      1  0.4746280000000  0.5353160000000  0.5868040000000 1.0
C      1  0.5769980000000  0.5153590000000  0.5424910000000 1.0
C      1  0.4765260000000  0.4213070000000  0.4158940000000 1.0
C      1  0.5181670000000  0.4459560000000  0.4084590000000 1.0
C      1  0.5552440000000  0.5607870000000  0.4282550000000 1.0
C      1  0.4850040000000  0.4110300000000  0.4466600000000 1.0
C      1  0.5457910000000  0.5105910000000  0.4840000000000 1.0
C      1  0.5480190000000  0.5408270000000  0.5523290000000 1.0
C      1  0.5012750000000  0.5316930000000  0.6064540000000 1.0
C      1  0.5350190000000  0.5877480000000  0.5177330000000 1.0
C      1  0.5109860000000  0.5738110000000  0.4026320000000 1.0
C      1  0.4773090000000  0.4400930000000  0.5067640000000 1.0
C      1  0.4117830000000  0.5450230000000  0.4584600000000 1.0
C      1  0.4381840000000  0.5404020000000  0.4936610000000 1.0
C      1  0.5452840000000  0.4470600000000  0.4130510000000 1.0
C      1  0.5524560000000  0.4322990000000  0.4366660000000 1.0
C      1  0.5834780000000  0.4958310000000  0.5940160000000 1.0
C      1  0.5618740000000  0.4505080000000  0.5252230000000 1.0
C      1  0.4118620000000  0.5655780000000  0.4776280000000 1.0
C      1  0.4493380000000  0.4710010000000  0.4560130000000 1.0
C      1  0.4832940000000  0.5696440000000  0.4021400000000 1.0
C      1  0.5009720000000  0.4731290000000  0.3847870000000 1.0
C      1  0.5375170000000  0.5459270000000  0.5982790000000 1.0
C      1  0.5715450000000  0.5597770000000  0.4505370000000 1.0
C      1  0.5544070000000  0.5160690000000  0.4515350000000 1.0
C      1  0.6104140000000  0.5409040000000  0.4730210000000 1.0
C      1  0.4040520000000  0.4730050000000  0.4994070000000 1.0
C      1  0.4417880000000  0.5862710000000  0.5472990000000 1.0
C      1  0.4734140000000  0.5012810000000  0.5388080000000 1.0
C      1  0.4759900000000  0.4412000000000  0.4564840000000 1.0
C      1  0.4492070000000  0.4369190000000  0.4768750000000 1.0
C      1  0.4870320000000  0.6042510000000  0.5377000000000 1.0
C      1  0.5358520000000  0.5070690000000  0.3905040000000 1.0
C      1  0.4616000000000  0.4631560000000  0.5392230000000 1.0
C      1  0.4681200000000  0.3954140000000  0.5295930000000 1.0
C      1  0.4637540000000  0.4562920000000  0.5802420000000 1.0
C      1  0.5268550000000  0.5468260000000  0.4156550000000 1.0
C      1  0.5301640000000  0.4060440000000  0.4774430000000 1.0
C      1  0.4562940000000  0.4378510000000  0.5567800000000 1.0
C      1  0.5449240000000  0.4008120000000  0.4415690000000 1.0
C      1  0.4817130000000  0.4592980000000  0.4823650000000 1.0
C      1  0.4840360000000  0.4985660000000  0.5066210000000 1.0
C      1  0.5570140000000  0.4785330000000  0.4821730000000 1.0
C      1  0.5440790000000  0.4680620000000  0.5087760000000 1.0
C      1  0.4065860000000  0.4987780000000  0.4773740000000 1.0
C      1  0.4389050000000  0.4737890000000  0.5912150000000 1.0
END
