TITL C-2848508-1660-33 -0.000481240011477955 125000 -626.539132539227 0 0 118 (C1) n - 1
REM
REM in /home/bkarasulu/work/CARBON/AIRSS/Generating-Clusters/AIREBO/with-SteepDescent/Only-C1/SD-CG-opt/Try1-1.4A-POS3A/HFTN-CG
REM
REM
REM
REM
REM
REM ./C.cell (11c1c37f851c82e70ff6c80c92926a4b)
REM
REM compiler GCC version 9.2.1 20190827 (Red Hat 9.2.1-1)
REM options -cpp -mtune=generic -march=x86-64 -g -O0 -fpre-include=/usr/include/finclude/math-vector-fortran.h
REM seed 392044102 1970332206 -2142430940 880061220 -1530041709 1539764417 1788146885 677362846 -94252779 -823651364 -1746059048 -1729595628 600222041 -1854209630 1176259273 -291421357 1156587512 1156606558 1111939617 -542891061 -1777720772 -1920552482 1177646471 -885662732 -730352344 -681674702 1713176643 1847751782 912102057 433627273 -1261485077 1955171078 -1501513932
REM
CELL 1.54180   50.00000   50.00000   50.00000   90.00000   90.00000   90.00000
LATT -1
SFAC C  
C      1  0.4359620000000  0.4828300000000  0.4857520000000 1.0
C      1  0.5221190000000  0.4757140000000  0.6169890000000 1.0
C      1  0.4591550000000  0.4049200000000  0.4525470000000 1.0
C      1  0.4999780000000  0.5495480000000  0.5409170000000 1.0
C      1  0.4890720000000  0.5498730000000  0.4178220000000 1.0
C      1  0.4028490000000  0.4884590000000  0.5423600000000 1.0
C      1  0.4318650000000  0.4702710000000  0.5806980000000 1.0
C      1  0.5321420000000  0.4324790000000  0.5345580000000 1.0
C      1  0.5272870000000  0.4188280000000  0.5085040000000 1.0
C      1  0.5407450000000  0.5540400000000  0.5758960000000 1.0
C      1  0.4859900000000  0.5028830000000  0.4176880000000 1.0
C      1  0.5333870000000  0.4831850000000  0.5153890000000 1.0
C      1  0.5194050000000  0.5304100000000  0.4843550000000 1.0
C      1  0.4869370000000  0.5902420000000  0.4474610000000 1.0
C      1  0.5655700000000  0.5047680000000  0.5303100000000 1.0
C      1  0.4651790000000  0.5225090000000  0.5378030000000 1.0
C      1  0.4804050000000  0.5948300000000  0.4783120000000 1.0
C      1  0.4841880000000  0.5156790000000  0.4955090000000 1.0
C      1  0.4050790000000  0.4952110000000  0.4908240000000 1.0
C      1  0.4724500000000  0.5345350000000  0.4383050000000 1.0
C      1  0.5853250000000  0.5291230000000  0.4694330000000 1.0
C      1  0.5487300000000  0.5623040000000  0.4537760000000 1.0
C      1  0.5697610000000  0.5156100000000  0.4423920000000 1.0
C      1  0.5438420000000  0.4437740000000  0.4407410000000 1.0
C      1  0.5705730000000  0.5344470000000  0.5453560000000 1.0
C      1  0.4543960000000  0.5911290000000  0.4985250000000 1.0
C      1  0.4779300000000  0.4913530000000  0.5333880000000 1.0
C      1  0.5271990000000  0.5660090000000  0.5486350000000 1.0
C      1  0.5340180000000  0.4456460000000  0.4082290000000 1.0
C      1  0.4341290000000  0.5104700000000  0.4684720000000 1.0
C      1  0.4528280000000  0.5646110000000  0.5197550000000 1.0
C      1  0.4784920000000  0.5427150000000  0.5154270000000 1.0
C      1  0.4785460000000  0.5549780000000  0.5627580000000 1.0
C      1  0.5127700000000  0.5594780000000  0.4951760000000 1.0
C      1  0.5372930000000  0.5254700000000  0.5734810000000 1.0
C      1  0.4827160000000  0.5646940000000  0.4898650000000 1.0
C      1  0.4493260000000  0.4776770000000  0.5457080000000 1.0
C      1  0.5785840000000  0.4581070000000  0.5295940000000 1.0
C      1  0.4422820000000  0.4317930000000  0.5166320000000 1.0
C      1  0.4441120000000  0.5068510000000  0.5189770000000 1.0
C      1  0.4310250000000  0.5358500000000  0.4884290000000 1.0
C      1  0.5460920000000  0.4595430000000  0.5322410000000 1.0
C      1  0.5832890000000  0.4911450000000  0.5076290000000 1.0
C      1  0.5207440000000  0.4857530000000  0.5930230000000 1.0
C      1  0.5512300000000  0.5002710000000  0.5608100000000 1.0
C      1  0.5416490000000  0.5695740000000  0.4813090000000 1.0
C      1  0.4965700000000  0.4415920000000  0.4740880000000 1.0
C      1  0.5095690000000  0.5202470000000  0.4349860000000 1.0
C      1  0.4359140000000  0.4081270000000  0.5238460000000 1.0
C      1  0.5304910000000  0.5761730000000  0.5189840000000 1.0
C      1  0.5115150000000  0.4406390000000  0.4295620000000 1.0
C      1  0.4601830000000  0.5280650000000  0.5700510000000 1.0
C      1  0.5277440000000  0.4732570000000  0.4460100000000 1.0
C      1  0.4976110000000  0.4964450000000  0.5606420000000 1.0
C      1  0.5517850000000  0.5289030000000  0.4755420000000 1.0
C      1  0.5507710000000  0.5312240000000  0.4287480000000 1.0
C      1  0.4601020000000  0.4605470000000  0.4521360000000 1.0
C      1  0.5750370000000  0.4423900000000  0.4809160000000 1.0
C      1  0.4336500000000  0.4996370000000  0.5665040000000 1.0
C      1  0.4807310000000  0.4789920000000  0.4719080000000 1.0
C      1  0.4657810000000  0.4562930000000  0.5146220000000 1.0
C      1  0.5043220000000  0.4906520000000  0.4508980000000 1.0
C      1  0.5092670000000  0.5150950000000  0.5858690000000 1.0
C      1  0.4599390000000  0.5069300000000  0.4287220000000 1.0
C      1  0.4162310000000  0.5138910000000  0.5334780000000 1.0
C      1  0.5397630000000  0.5234570000000  0.5224350000000 1.0
C      1  0.4930220000000  0.5261480000000  0.4641160000000 1.0
C      1  0.4094340000000  0.5199330000000  0.5039400000000 1.0
C      1  0.5553020000000  0.4804510000000  0.4935950000000 1.0
C      1  0.5008400000000  0.5732700000000  0.4320250000000 1.0
C      1  0.5321280000000  0.4728690000000  0.5671620000000 1.0
C      1  0.4615330000000  0.4602110000000  0.5713410000000 1.0
C      1  0.5144410000000  0.4217500000000  0.5620700000000 1.0
C      1  0.4901220000000  0.4460870000000  0.4452920000000 1.0
C      1  0.4828210000000  0.4801570000000  0.5824730000000 1.0
C      1  0.4960150000000  0.4141930000000  0.5145370000000 1.0
C      1  0.5551470000000  0.4230700000000  0.4890280000000 1.0
C      1  0.5706660000000  0.4525840000000  0.4548360000000 1.0
C      1  0.4658500000000  0.4875980000000  0.5012670000000 1.0
C      1  0.4761940000000  0.4309140000000  0.4955890000000 1.0
C      1  0.5043270000000  0.6111150000000  0.4892050000000 1.0
C      1  0.5044750000000  0.4681920000000  0.4923300000000 1.0
C      1  0.5138600000000  0.5082490000000  0.5085360000000 1.0
C      1  0.4480870000000  0.5589160000000  0.5490930000000 1.0
C      1  0.5508280000000  0.5455600000000  0.5035720000000 1.0
C      1  0.4865140000000  0.5348080000000  0.5890110000000 1.0
C      1  0.4537140000000  0.5559510000000  0.4492880000000 1.0
C      1  0.5663350000000  0.4855410000000  0.4162550000000 1.0
C      1  0.4287520000000  0.5689570000000  0.4958960000000 1.0
C      1  0.5081420000000  0.5326710000000  0.4033370000000 1.0
C      1  0.4269060000000  0.4559710000000  0.5015250000000 1.0
C      1  0.5587800000000  0.5581660000000  0.5405850000000 1.0
C      1  0.5105170000000  0.4534380000000  0.5503540000000 1.0
C      1  0.4586800000000  0.4306180000000  0.4682510000000 1.0
C      1  0.4539560000000  0.5571940000000  0.4774590000000 1.0
C      1  0.5415830000000  0.4744120000000  0.4154040000000 1.0
C      1  0.5035540000000  0.4725430000000  0.5232380000000 1.0
C      1  0.5995160000000  0.5110650000000  0.4897460000000 1.0
C      1  0.4313660000000  0.4481370000000  0.4705410000000 1.0
C      1  0.5164720000000  0.5215730000000  0.5471440000000 1.0
C      1  0.5873160000000  0.4579720000000  0.5012860000000 1.0
C      1  0.5271020000000  0.5972860000000  0.4942590000000 1.0
C      1  0.4107860000000  0.4641390000000  0.5616340000000 1.0
C      1  0.5261610000000  0.4362060000000  0.4821740000000 1.0
C      1  0.4902740000000  0.4200300000000  0.5421200000000 1.0
C      1  0.5650380000000  0.4697130000000  0.5580750000000 1.0
C      1  0.5749440000000  0.5543970000000  0.4505810000000 1.0
C      1  0.5606130000000  0.4979200000000  0.4694340000000 1.0
C      1  0.5331810000000  0.4662940000000  0.4762360000000 1.0
C      1  0.4481020000000  0.4922040000000  0.4488120000000 1.0
C      1  0.4291360000000  0.5318080000000  0.5569740000000 1.0
C      1  0.4328040000000  0.4452220000000  0.4019180000000 1.0
C      1  0.4445270000000  0.4517790000000  0.4236130000000 1.0
C      1  0.5778600000000  0.4821320000000  0.4458570000000 1.0
C      1  0.4230060000000  0.4639160000000  0.5303890000000 1.0
C      1  0.5242910000000  0.5508730000000  0.4365710000000 1.0
C      1  0.4769890000000  0.4488670000000  0.5458570000000 1.0
C      1  0.5643700000000  0.5747840000000  0.5144630000000 1.0
END
