TITL C-2847947-6848-251 0.0015495239175787 125000 -592.950855224598 0 0 106 (C1) n - 1
REM
REM in /home/bkarasulu/work/CARBON/AIRSS/Generating-Clusters/AIREBO/with-SteepDescent/Only-C1/SD-CG-opt/Try1-1.4A-POS3A/HFTN-CG
REM
REM
REM
REM
REM
REM ./C.cell (11c1c37f851c82e70ff6c80c92926a4b)
REM
REM compiler GCC version 9.2.1 20190827 (Red Hat 9.2.1-1)
REM options -cpp -mtune=generic -march=x86-64 -g -O0 -fpre-include=/usr/include/finclude/math-vector-fortran.h
REM seed 95920602 1878717580 -970459840 1006885974 -2145050874 1014202712 1380652693 1463614718 1284189067 392368386 -1831331984 1107611854 -218056218 -356599321 529197805 1475945953 1474504565 -1333235002 -84571378 -1293184443 1615816175 668298260 -817160490 2027108490 140597324 872278416 1392872760 -50066409 -1922045817 -207167368 -879988328 -725778814 -2013139994
REM
CELL 1.54180   50.00000   50.00000   50.00000   90.00000   90.00000   90.00000
LATT -1
SFAC C  
C      1  0.5112480000000  0.4587330000000  0.4204530000000 1.0
C      1  0.4382390000000  0.4979550000000  0.5051850000000 1.0
C      1  0.4340620000000  0.5566870000000  0.4901160000000 1.0
C      1  0.5488350000000  0.4299360000000  0.4500330000000 1.0
C      1  0.5776510000000  0.5394000000000  0.4715290000000 1.0
C      1  0.4303970000000  0.5261480000000  0.5603310000000 1.0
C      1  0.4611080000000  0.5877500000000  0.4818040000000 1.0
C      1  0.4958780000000  0.5502940000000  0.4176770000000 1.0
C      1  0.5632820000000  0.5676270000000  0.5168200000000 1.0
C      1  0.4141760000000  0.4979630000000  0.5252470000000 1.0
C      1  0.4837920000000  0.5313060000000  0.5954190000000 1.0
C      1  0.4357830000000  0.4488750000000  0.5071770000000 1.0
C      1  0.4692770000000  0.4336920000000  0.4330220000000 1.0
C      1  0.5570170000000  0.4594150000000  0.4648790000000 1.0
C      1  0.5586970000000  0.4776130000000  0.5625480000000 1.0
C      1  0.4794450000000  0.5284830000000  0.4236320000000 1.0
C      1  0.5023410000000  0.4994200000000  0.5463930000000 1.0
C      1  0.5671550000000  0.5340870000000  0.4026140000000 1.0
C      1  0.4661090000000  0.4438140000000  0.5064980000000 1.0
C      1  0.4654770000000  0.4263230000000  0.5589460000000 1.0
C      1  0.5716170000000  0.5353530000000  0.5195560000000 1.0
C      1  0.4945530000000  0.4216840000000  0.5442440000000 1.0
C      1  0.4681470000000  0.5209180000000  0.5464950000000 1.0
C      1  0.5837290000000  0.4625280000000  0.4963600000000 1.0
C      1  0.5296880000000  0.5147490000000  0.5596830000000 1.0
C      1  0.5696730000000  0.4856130000000  0.5153070000000 1.0
C      1  0.4916250000000  0.4242350000000  0.5146220000000 1.0
C      1  0.5498870000000  0.5339090000000  0.5530840000000 1.0
C      1  0.4638440000000  0.4366380000000  0.4595470000000 1.0
C      1  0.5397080000000  0.4933560000000  0.5766390000000 1.0
C      1  0.5403500000000  0.4948810000000  0.5007950000000 1.0
C      1  0.5493950000000  0.4281630000000  0.4982410000000 1.0
C      1  0.4935210000000  0.3979660000000  0.4998660000000 1.0
C      1  0.5448300000000  0.4972820000000  0.4674160000000 1.0
C      1  0.5182590000000  0.4821650000000  0.5915010000000 1.0
C      1  0.4250110000000  0.4576080000000  0.4765970000000 1.0
C      1  0.4996080000000  0.5321650000000  0.5401740000000 1.0
C      1  0.5558180000000  0.5727840000000  0.4904660000000 1.0
C      1  0.4897460000000  0.4820400000000  0.5199990000000 1.0
C      1  0.4699730000000  0.5350220000000  0.4873620000000 1.0
C      1  0.5091630000000  0.4981420000000  0.5000900000000 1.0
C      1  0.4153500000000  0.4750690000000  0.5422150000000 1.0
C      1  0.4024230000000  0.4454260000000  0.4989300000000 1.0
C      1  0.4328130000000  0.5145100000000  0.4283860000000 1.0
C      1  0.5116660000000  0.5410600000000  0.5148250000000 1.0
C      1  0.4923740000000  0.4806530000000  0.5731650000000 1.0
C      1  0.4891830000000  0.5604080000000  0.4996830000000 1.0
C      1  0.5315660000000  0.4296030000000  0.4745780000000 1.0
C      1  0.4396140000000  0.4789610000000  0.5567330000000 1.0
C      1  0.4497550000000  0.4178230000000  0.5798330000000 1.0
C      1  0.5000880000000  0.5903210000000  0.4896530000000 1.0
C      1  0.4627820000000  0.4880080000000  0.5398470000000 1.0
C      1  0.5286760000000  0.5830800000000  0.4494570000000 1.0
C      1  0.4749620000000  0.5909360000000  0.5124380000000 1.0
C      1  0.5119920000000  0.5973090000000  0.4672490000000 1.0
C      1  0.5736020000000  0.4922420000000  0.5436470000000 1.0
C      1  0.4785870000000  0.4542690000000  0.4793020000000 1.0
C      1  0.5901810000000  0.4955450000000  0.4912900000000 1.0
C      1  0.5876730000000  0.5256140000000  0.4938760000000 1.0
C      1  0.4493390000000  0.5483360000000  0.5536610000000 1.0
C      1  0.4406310000000  0.4274810000000  0.4740400000000 1.0
C      1  0.5096250000000  0.4536830000000  0.4753000000000 1.0
C      1  0.4550260000000  0.5198940000000  0.4131060000000 1.0
C      1  0.5023470000000  0.5246450000000  0.4879990000000 1.0
C      1  0.5492270000000  0.4528250000000  0.5545860000000 1.0
C      1  0.5184570000000  0.4409420000000  0.5530820000000 1.0
C      1  0.5755040000000  0.4855340000000  0.4635820000000 1.0
C      1  0.4667280000000  0.4820310000000  0.4949720000000 1.0
C      1  0.4121000000000  0.4514720000000  0.5290000000000 1.0
C      1  0.4454640000000  0.5517310000000  0.5141650000000 1.0
C      1  0.5558100000000  0.5403450000000  0.4266540000000 1.0
C      1  0.5754730000000  0.5197420000000  0.5466120000000 1.0
C      1  0.4693450000000  0.5734040000000  0.4630090000000 1.0
C      1  0.5051350000000  0.4536360000000  0.5091180000000 1.0
C      1  0.4542400000000  0.4199220000000  0.5274980000000 1.0
C      1  0.5421140000000  0.5283930000000  0.5062990000000 1.0
C      1  0.4740260000000  0.5078600000000  0.5773430000000 1.0
C      1  0.4563610000000  0.5223070000000  0.5146330000000 1.0
C      1  0.4730890000000  0.4329780000000  0.4071040000000 1.0
C      1  0.4408840000000  0.5362740000000  0.4697800000000 1.0
C      1  0.5183160000000  0.5395820000000  0.4639230000000 1.0
C      1  0.4659100000000  0.4947160000000  0.4634290000000 1.0
C      1  0.5170630000000  0.4713140000000  0.4502560000000 1.0
C      1  0.4871970000000  0.5132790000000  0.4503530000000 1.0
C      1  0.4446860000000  0.4110350000000  0.4987720000000 1.0
C      1  0.4896330000000  0.5536650000000  0.5845150000000 1.0
C      1  0.5779600000000  0.4368200000000  0.4995210000000 1.0
C      1  0.5437730000000  0.4615450000000  0.4950070000000 1.0
C      1  0.5929460000000  0.4883380000000  0.4390900000000 1.0
C      1  0.4852280000000  0.5460930000000  0.4590600000000 1.0
C      1  0.4428450000000  0.5039140000000  0.5723300000000 1.0
C      1  0.4101040000000  0.5210720000000  0.5411590000000 1.0
C      1  0.5546130000000  0.5777780000000  0.4597520000000 1.0
C      1  0.5524220000000  0.5612570000000  0.5445140000000 1.0
C      1  0.5180040000000  0.5023320000000  0.4499150000000 1.0
C      1  0.4316740000000  0.5140620000000  0.4563040000000 1.0
C      1  0.5181580000000  0.5637820000000  0.4322220000000 1.0
C      1  0.5678820000000  0.5548160000000  0.4478600000000 1.0
C      1  0.5446660000000  0.5439890000000  0.4785160000000 1.0
C      1  0.4341300000000  0.4872870000000  0.4730420000000 1.0
C      1  0.5269070000000  0.5309590000000  0.4338380000000 1.0
C      1  0.5422620000000  0.4569130000000  0.4340350000000 1.0
C      1  0.4641180000000  0.5698180000000  0.5318400000000 1.0
C      1  0.4888520000000  0.4506110000000  0.5652700000000 1.0
C      1  0.5332600000000  0.4519110000000  0.5253910000000 1.0
C      1  0.4850620000000  0.5561180000000  0.5550650000000 1.0
END
