TITL C-2847955-7945-462 -0.000623788129488643 125000 -563.710345203604 0 0 108 (C1) n - 1
REM
REM in /home/bkarasulu/work/CARBON/AIRSS/Generating-Clusters/AIREBO/with-SteepDescent/Only-C1/SD-CG-opt/Try1-1.4A-POS3A/HFTN-CG
REM
REM
REM
REM
REM
REM ./C.cell (11c1c37f851c82e70ff6c80c92926a4b)
REM
REM compiler GCC version 9.2.1 20190827 (Red Hat 9.2.1-1)
REM options -cpp -mtune=generic -march=x86-64 -g -O0 -fpre-include=/usr/include/finclude/math-vector-fortran.h
REM seed -812108969 -1466065827 313716349 -1514548900 -210281641 1282833196 -1181299548 -1065677187 -279650049 -191088300 1312440555 2109303113 993655092 -1142942987 667001224 394109996 1032331090 66169956 2018834137 -1288086562 -1765028764 -910478576 -1799879297 680211893 227286485 1714133250 -1211514812 557968681 -790470661 685991296 1301843613 1565109191 -543265891
REM
CELL 1.54180   50.00000   50.00000   50.00000   90.00000   90.00000   90.00000
LATT -1
SFAC C  
C      1  0.4543020000000  0.5589760000000  0.5538380000000 1.0
C      1  0.4750350000000  0.5348350000000  0.5075060000000 1.0
C      1  0.4115650000000  0.4854400000000  0.4536370000000 1.0
C      1  0.5549840000000  0.4398050000000  0.5252970000000 1.0
C      1  0.4402530000000  0.4528980000000  0.4768670000000 1.0
C      1  0.4885640000000  0.4573270000000  0.5813090000000 1.0
C      1  0.5260930000000  0.5264450000000  0.5180710000000 1.0
C      1  0.5526600000000  0.5144260000000  0.5005580000000 1.0
C      1  0.4349810000000  0.4346060000000  0.5219610000000 1.0
C      1  0.5567810000000  0.5546710000000  0.4534590000000 1.0
C      1  0.5258580000000  0.4376620000000  0.4459360000000 1.0
C      1  0.5453960000000  0.5271010000000  0.4698550000000 1.0
C      1  0.5190180000000  0.4931580000000  0.4526910000000 1.0
C      1  0.4934790000000  0.4707630000000  0.4511140000000 1.0
C      1  0.5012220000000  0.5506020000000  0.5824250000000 1.0
C      1  0.5384440000000  0.4838530000000  0.5049490000000 1.0
C      1  0.4652590000000  0.4621960000000  0.6016470000000 1.0
C      1  0.4813430000000  0.5437060000000  0.4752930000000 1.0
C      1  0.5054690000000  0.5092430000000  0.5810740000000 1.0
C      1  0.4732440000000  0.4965640000000  0.3789550000000 1.0
C      1  0.4869830000000  0.5224040000000  0.4503060000000 1.0
C      1  0.4809330000000  0.5014900000000  0.4072350000000 1.0
C      1  0.4497810000000  0.5431680000000  0.4652010000000 1.0
C      1  0.4731600000000  0.4566950000000  0.4839060000000 1.0
C      1  0.5446400000000  0.5549120000000  0.5194880000000 1.0
C      1  0.4844700000000  0.5569960000000  0.5277920000000 1.0
C      1  0.5608140000000  0.5148180000000  0.5886290000000 1.0
C      1  0.4490440000000  0.4286330000000  0.4987970000000 1.0
C      1  0.4691200000000  0.4682830000000  0.5157190000000 1.0
C      1  0.5097050000000  0.5303300000000  0.4884720000000 1.0
C      1  0.5540150000000  0.5202460000000  0.4173940000000 1.0
C      1  0.5489580000000  0.4937470000000  0.5345060000000 1.0
C      1  0.4814030000000  0.4173950000000  0.5518290000000 1.0
C      1  0.5060220000000  0.4280090000000  0.5037600000000 1.0
C      1  0.4618460000000  0.4414900000000  0.5627230000000 1.0
C      1  0.4697310000000  0.5022950000000  0.5158480000000 1.0
C      1  0.5246640000000  0.5322420000000  0.5973130000000 1.0
C      1  0.5057620000000  0.4554300000000  0.4755300000000 1.0
C      1  0.5190950000000  0.5329100000000  0.4496570000000 1.0
C      1  0.5241310000000  0.5592560000000  0.4957720000000 1.0
C      1  0.5489140000000  0.5496630000000  0.4242430000000 1.0
C      1  0.5354110000000  0.5731750000000  0.4673350000000 1.0
C      1  0.5089650000000  0.4906800000000  0.4202910000000 1.0
C      1  0.5127960000000  0.4572180000000  0.4266320000000 1.0
C      1  0.4144010000000  0.5301430000000  0.5307530000000 1.0
C      1  0.5152100000000  0.5948720000000  0.4811300000000 1.0
C      1  0.5427180000000  0.5419530000000  0.5506860000000 1.0
C      1  0.5136540000000  0.4778000000000  0.5859590000000 1.0
C      1  0.5238480000000  0.5616310000000  0.4193470000000 1.0
C      1  0.4717990000000  0.5297220000000  0.4219220000000 1.0
C      1  0.5830100000000  0.5361290000000  0.4609040000000 1.0
C      1  0.4491110000000  0.4572980000000  0.5376510000000 1.0
C      1  0.5078770000000  0.4835700000000  0.5034530000000 1.0
C      1  0.4840650000000  0.5770790000000  0.4693380000000 1.0
C      1  0.5994140000000  0.4782590000000  0.5135350000000 1.0
C      1  0.4697680000000  0.4463990000000  0.4515470000000 1.0
C      1  0.4687070000000  0.5797340000000  0.4995650000000 1.0
C      1  0.5797050000000  0.4527070000000  0.4728380000000 1.0
C      1  0.5742380000000  0.4576410000000  0.5036820000000 1.0
C      1  0.5200550000000  0.4768210000000  0.5403670000000 1.0
C      1  0.4919790000000  0.5287750000000  0.6054210000000 1.0
C      1  0.5728440000000  0.5072500000000  0.4668970000000 1.0
C      1  0.4154580000000  0.4722550000000  0.4789400000000 1.0
C      1  0.5393290000000  0.4934230000000  0.5974980000000 1.0
C      1  0.4915330000000  0.5437710000000  0.5541760000000 1.0
C      1  0.4390770000000  0.5083470000000  0.4909650000000 1.0
C      1  0.5155050000000  0.3961290000000  0.5255200000000 1.0
C      1  0.5098160000000  0.4235660000000  0.4702330000000 1.0
C      1  0.4590770000000  0.4642330000000  0.4285040000000 1.0
C      1  0.4905280000000  0.5549510000000  0.4204690000000 1.0
C      1  0.5513070000000  0.4980870000000  0.4430660000000 1.0
C      1  0.4936830000000  0.4978080000000  0.5395750000000 1.0
C      1  0.5339480000000  0.4643400000000  0.4807070000000 1.0
C      1  0.4337700000000  0.5038570000000  0.4441760000000 1.0
C      1  0.5506620000000  0.4495490000000  0.4591790000000 1.0
C      1  0.5005160000000  0.5000780000000  0.4804550000000 1.0
C      1  0.4514600000000  0.4705700000000  0.5751520000000 1.0
C      1  0.5773610000000  0.5323870000000  0.5155080000000 1.0
C      1  0.4288780000000  0.5484210000000  0.5113430000000 1.0
C      1  0.4518020000000  0.5647180000000  0.5218750000000 1.0
C      1  0.4159150000000  0.4972040000000  0.5288710000000 1.0
C      1  0.5001930000000  0.4425510000000  0.5532110000000 1.0
C      1  0.5761610000000  0.4905780000000  0.4939400000000 1.0
C      1  0.4654690000000  0.4966410000000  0.5584840000000 1.0
C      1  0.4347320000000  0.4844940000000  0.5494360000000 1.0
C      1  0.4193910000000  0.4904340000000  0.5001430000000 1.0
C      1  0.5761590000000  0.5612900000000  0.5118960000000 1.0
C      1  0.5462360000000  0.4561610000000  0.5470300000000 1.0
C      1  0.5625870000000  0.5221320000000  0.5384800000000 1.0
C      1  0.4740070000000  0.4161990000000  0.5034060000000 1.0
C      1  0.5007290000000  0.5784680000000  0.5070600000000 1.0
C      1  0.5162300000000  0.5206250000000  0.5508660000000 1.0
C      1  0.4624510000000  0.5293030000000  0.5588880000000 1.0
C      1  0.4722270000000  0.4937700000000  0.4393990000000 1.0
C      1  0.4455050000000  0.5190640000000  0.5328160000000 1.0
C      1  0.4699360000000  0.5969100000000  0.4527650000000 1.0
C      1  0.5698670000000  0.4726660000000  0.4471070000000 1.0
C      1  0.5259100000000  0.4512400000000  0.5699670000000 1.0
C      1  0.5078510000000  0.5649940000000  0.4491740000000 1.0
C      1  0.4341240000000  0.5355180000000  0.4872090000000 1.0
C      1  0.5239410000000  0.5185100000000  0.4226050000000 1.0
C      1  0.4870730000000  0.4030130000000  0.5284580000000 1.0
C      1  0.4464290000000  0.5284890000000  0.4412320000000 1.0
C      1  0.4506840000000  0.4822570000000  0.4630750000000 1.0
C      1  0.5353420000000  0.4197880000000  0.5188880000000 1.0
C      1  0.4694690000000  0.5001300000000  0.4819120000000 1.0
C      1  0.5407600000000  0.5013770000000  0.5644800000000 1.0
C      1  0.5001970000000  0.4561540000000  0.5220460000000 1.0
END
