TITL C-2848500-1637-443 0.000779721100319458 125000 -788.324081831472 0 0 149 (C1) n - 1
REM
REM in /home/bkarasulu/work/CARBON/AIRSS/Generating-Clusters/AIREBO/with-SteepDescent/Only-C1/SD-CG-opt/Try1-1.4A-POS3A/HFTN-CG
REM
REM
REM
REM
REM
REM ./C.cell (11c1c37f851c82e70ff6c80c92926a4b)
REM
REM compiler GCC version 9.2.1 20190827 (Red Hat 9.2.1-1)
REM options -cpp -mtune=generic -march=x86-64 -g -O0 -fpre-include=/usr/include/finclude/math-vector-fortran.h
REM seed -618586255 380467915 -363817172 1121947759 621873637 -1068369785 1879702853 -139758861 -58199364 1137722671 2108444927 879890907 -1206574284 -1109082532 -2053045251 538914665 2008273155 -1078883080 1409723102 -1253647818 650745058 -1535353895 1701503506 -1937494536 1955033416 -958928856 763411195 -2082032922 -1192225062 776191546 -1621131855 -30095505 1390493314
REM
CELL 1.54180   50.00000   50.00000   50.00000   90.00000   90.00000   90.00000
LATT -1
SFAC C  
C      1  0.4797900000000  0.5705160000000  0.5620210000000 1.0
C      1  0.5301430000000  0.4819470000000  0.5108920000000 1.0
C      1  0.4865450000000  0.6020130000000  0.5073820000000 1.0
C      1  0.5054380000000  0.4510230000000  0.5054720000000 1.0
C      1  0.4986410000000  0.5400980000000  0.4910740000000 1.0
C      1  0.5126230000000  0.3953670000000  0.5264280000000 1.0
C      1  0.5580980000000  0.4889160000000  0.5289470000000 1.0
C      1  0.4467550000000  0.5984490000000  0.5205040000000 1.0
C      1  0.4284210000000  0.4753050000000  0.4673390000000 1.0
C      1  0.4763060000000  0.4017530000000  0.4730280000000 1.0
C      1  0.4146820000000  0.5436560000000  0.5113560000000 1.0
C      1  0.4869210000000  0.5899560000000  0.4425170000000 1.0
C      1  0.3891290000000  0.4974630000000  0.5152730000000 1.0
C      1  0.4193980000000  0.5572380000000  0.4639360000000 1.0
C      1  0.4695910000000  0.5546970000000  0.5010690000000 1.0
C      1  0.5281190000000  0.4712570000000  0.4597250000000 1.0
C      1  0.5651590000000  0.5209060000000  0.5241480000000 1.0
C      1  0.4532310000000  0.5411370000000  0.5221730000000 1.0
C      1  0.5099900000000  0.5391220000000  0.4150560000000 1.0
C      1  0.5317620000000  0.4899280000000  0.4296360000000 1.0
C      1  0.4666890000000  0.4481650000000  0.5778200000000 1.0
C      1  0.4437230000000  0.5082530000000  0.4512200000000 1.0
C      1  0.5513280000000  0.4734710000000  0.5776040000000 1.0
C      1  0.4202000000000  0.4812840000000  0.4345230000000 1.0
C      1  0.4323530000000  0.5197320000000  0.4948800000000 1.0
C      1  0.5246990000000  0.4345180000000  0.5541250000000 1.0
C      1  0.4225450000000  0.5270220000000  0.4631370000000 1.0
C      1  0.4245930000000  0.4481870000000  0.4787310000000 1.0
C      1  0.4359050000000  0.4286460000000  0.4635410000000 1.0
C      1  0.5585110000000  0.5474760000000  0.5529330000000 1.0
C      1  0.5620480000000  0.4494330000000  0.4172240000000 1.0
C      1  0.5598500000000  0.5114660000000  0.5743580000000 1.0
C      1  0.4040710000000  0.4953510000000  0.5420280000000 1.0
C      1  0.4811540000000  0.5578400000000  0.4373240000000 1.0
C      1  0.4358560000000  0.5353580000000  0.5791330000000 1.0
C      1  0.4997410000000  0.5937880000000  0.5473060000000 1.0
C      1  0.5433100000000  0.5663280000000  0.4460290000000 1.0
C      1  0.5315120000000  0.4372110000000  0.5224190000000 1.0
C      1  0.5058080000000  0.5575030000000  0.4559170000000 1.0
C      1  0.5377320000000  0.5798010000000  0.5748010000000 1.0
C      1  0.5025450000000  0.5420410000000  0.5316510000000 1.0
C      1  0.5346710000000  0.5531190000000  0.5844130000000 1.0
C      1  0.4482890000000  0.4912310000000  0.5979090000000 1.0
C      1  0.4594470000000  0.5460220000000  0.5625320000000 1.0
C      1  0.5277000000000  0.5257540000000  0.5967930000000 1.0
C      1  0.5164580000000  0.4422380000000  0.4487800000000 1.0
C      1  0.4658390000000  0.4516980000000  0.5004340000000 1.0
C      1  0.5596920000000  0.4504300000000  0.6013670000000 1.0
C      1  0.5407020000000  0.5098630000000  0.4946060000000 1.0
C      1  0.5717510000000  0.5004760000000  0.4485700000000 1.0
C      1  0.4290780000000  0.4821940000000  0.5240270000000 1.0
C      1  0.4630230000000  0.5874370000000  0.4659310000000 1.0
C      1  0.5434420000000  0.4986660000000  0.3989990000000 1.0
C      1  0.4506060000000  0.5571380000000  0.4522390000000 1.0
C      1  0.5070220000000  0.4745140000000  0.5300250000000 1.0
C      1  0.5664640000000  0.4565620000000  0.5181420000000 1.0
C      1  0.5201730000000  0.5644230000000  0.4850320000000 1.0
C      1  0.4580730000000  0.4618540000000  0.4225700000000 1.0
C      1  0.4914230000000  0.4946220000000  0.4558420000000 1.0
C      1  0.4885860000000  0.4872990000000  0.3979990000000 1.0
C      1  0.5036830000000  0.4747240000000  0.4805410000000 1.0
C      1  0.4960130000000  0.4210310000000  0.4924680000000 1.0
C      1  0.5724010000000  0.4229580000000  0.4738740000000 1.0
C      1  0.4585700000000  0.5374190000000  0.4762870000000 1.0
C      1  0.4844710000000  0.4397110000000  0.4428280000000 1.0
C      1  0.4280160000000  0.4630950000000  0.5590600000000 1.0
C      1  0.5701510000000  0.4993510000000  0.4816130000000 1.0
C      1  0.5388960000000  0.5909760000000  0.4915970000000 1.0
C      1  0.5119020000000  0.4640300000000  0.5575250000000 1.0
C      1  0.5322200000000  0.4578480000000  0.4230020000000 1.0
C      1  0.4837520000000  0.5256550000000  0.5865700000000 1.0
C      1  0.4477580000000  0.5800780000000  0.4951070000000 1.0
C      1  0.4965240000000  0.4443500000000  0.5806280000000 1.0
C      1  0.5507330000000  0.5374600000000  0.5041300000000 1.0
C      1  0.5943910000000  0.4544650000000  0.4630770000000 1.0
C      1  0.5001410000000  0.4959340000000  0.4284570000000 1.0
C      1  0.5231100000000  0.4097070000000  0.4561030000000 1.0
C      1  0.5195290000000  0.5866010000000  0.4445900000000 1.0
C      1  0.4608900000000  0.4919930000000  0.5673470000000 1.0
C      1  0.5765580000000  0.4701990000000  0.4399640000000 1.0
C      1  0.5517260000000  0.4204900000000  0.5091510000000 1.0
C      1  0.4225940000000  0.4854350000000  0.5762440000000 1.0
C      1  0.4561670000000  0.4765890000000  0.4507670000000 1.0
C      1  0.5867500000000  0.4477930000000  0.4922840000000 1.0
C      1  0.4976220000000  0.5068010000000  0.5635230000000 1.0
C      1  0.5028850000000  0.4165950000000  0.5410140000000 1.0
C      1  0.5958640000000  0.5086380000000  0.5019250000000 1.0
C      1  0.5516560000000  0.4240660000000  0.4461210000000 1.0
C      1  0.5550710000000  0.4541920000000  0.4560940000000 1.0
C      1  0.5421270000000  0.5158060000000  0.4463380000000 1.0
C      1  0.5914610000000  0.5331000000000  0.4805830000000 1.0
C      1  0.5477350000000  0.4434350000000  0.4853830000000 1.0
C      1  0.5338120000000  0.4258390000000  0.4168110000000 1.0
C      1  0.5439780000000  0.4416430000000  0.5754300000000 1.0
C      1  0.4029490000000  0.5026510000000  0.4947840000000 1.0
C      1  0.4824320000000  0.4370700000000  0.5262810000000 1.0
C      1  0.4888270000000  0.5719710000000  0.5231530000000 1.0
C      1  0.4572060000000  0.5212660000000  0.5943160000000 1.0
C      1  0.5562900000000  0.4736420000000  0.4913800000000 1.0
C      1  0.4756430000000  0.4589340000000  0.4695450000000 1.0
C      1  0.5289890000000  0.5919680000000  0.5502270000000 1.0
C      1  0.5447420000000  0.4041980000000  0.4801360000000 1.0
C      1  0.4589080000000  0.4650810000000  0.5511240000000 1.0
C      1  0.4427750000000  0.4987120000000  0.4203990000000 1.0
C      1  0.4657780000000  0.5907590000000  0.5396560000000 1.0
C      1  0.5057310000000  0.4757770000000  0.5888340000000 1.0
C      1  0.5268040000000  0.5547730000000  0.5152670000000 1.0
C      1  0.4298080000000  0.4407930000000  0.5385180000000 1.0
C      1  0.4205980000000  0.5654570000000  0.4915280000000 1.0
C      1  0.4328800000000  0.4523230000000  0.5080610000000 1.0
C      1  0.5530550000000  0.5655650000000  0.5324280000000 1.0
C      1  0.5570410000000  0.5708130000000  0.4710720000000 1.0
C      1  0.4889190000000  0.6017960000000  0.4806070000000 1.0
C      1  0.5318510000000  0.5048830000000  0.5435240000000 1.0
C      1  0.4623210000000  0.4755170000000  0.5214990000000 1.0
C      1  0.5131460000000  0.5103690000000  0.4007650000000 1.0
C      1  0.5153140000000  0.6017750000000  0.4716280000000 1.0
C      1  0.5441130000000  0.5931670000000  0.5225450000000 1.0
C      1  0.5914150000000  0.4764630000000  0.5102500000000 1.0
C      1  0.4781570000000  0.4988810000000  0.5061080000000 1.0
C      1  0.5009330000000  0.5079740000000  0.5296930000000 1.0
C      1  0.4813800000000  0.4591130000000  0.4080280000000 1.0
C      1  0.5938150000000  0.5229760000000  0.4550530000000 1.0
C      1  0.5344090000000  0.5429380000000  0.4321640000000 1.0
C      1  0.4702270000000  0.5097780000000  0.4679090000000 1.0
C      1  0.4522520000000  0.4231650000000  0.5272320000000 1.0
C      1  0.4761000000000  0.5367400000000  0.4124320000000 1.0
C      1  0.5013840000000  0.3914630000000  0.4572690000000 1.0
C      1  0.5182090000000  0.5272160000000  0.4651380000000 1.0
C      1  0.4506300000000  0.4921210000000  0.4871390000000 1.0
C      1  0.5009990000000  0.4351820000000  0.4134280000000 1.0
C      1  0.5180280000000  0.4012610000000  0.5002110000000 1.0
C      1  0.5281150000000  0.4983130000000  0.5766840000000 1.0
C      1  0.4054300000000  0.5315310000000  0.5353570000000 1.0
C      1  0.4456470000000  0.5117710000000  0.5251670000000 1.0
C      1  0.5070850000000  0.5071510000000  0.4902610000000 1.0
C      1  0.5003290000000  0.5462660000000  0.5653290000000 1.0
C      1  0.5821190000000  0.5247170000000  0.5523210000000 1.0
C      1  0.4679570000000  0.5169940000000  0.5503300000000 1.0
C      1  0.4609590000000  0.4220010000000  0.4562000000000 1.0
C      1  0.4652770000000  0.5080000000000  0.4059120000000 1.0
C      1  0.5752500000000  0.4859780000000  0.5579420000000 1.0
C      1  0.4201000000000  0.5161810000000  0.5619200000000 1.0
C      1  0.5309550000000  0.5334140000000  0.5580060000000 1.0
C      1  0.4638720000000  0.4121600000000  0.5015000000000 1.0
C      1  0.4734430000000  0.4710920000000  0.5985660000000 1.0
C      1  0.5962920000000  0.4993070000000  0.5346860000000 1.0
C      1  0.5697050000000  0.5501870000000  0.4851420000000 1.0
C      1  0.4468970000000  0.5532430000000  0.4180270000000 1.0
END
