TITL C-2847951-7423-379 -0.000673637179765363 125000 -561.709778519795 0 0 102 (C1) n - 1
REM
REM in /home/bkarasulu/work/CARBON/AIRSS/Generating-Clusters/AIREBO/with-SteepDescent/Only-C1/SD-CG-opt/Try1-1.4A-POS3A/HFTN-CG
REM
REM
REM
REM
REM
REM ./C.cell (11c1c37f851c82e70ff6c80c92926a4b)
REM
REM compiler GCC version 9.2.1 20190827 (Red Hat 9.2.1-1)
REM options -cpp -mtune=generic -march=x86-64 -g -O0 -fpre-include=/usr/include/finclude/math-vector-fortran.h
REM seed -2052679996 1091838116 1557375437 -898596572 -1930390377 1376790867 1989593566 -179622079 -312259787 116571891 -2147010545 333717061 875846165 1613133676 1205160944 -1997230277 -1044554804 993381248 1567949392 -768479893 -178366747 1052837162 -1717256811 -1191544580 1718394126 -1651570865 -817697600 1875939425 -1938232518 -727822462 60158508 -1951270940 -359995911
REM
CELL 1.54180   50.00000   50.00000   50.00000   90.00000   90.00000   90.00000
LATT -1
SFAC C  
C      1  0.5042560000000  0.5762540000000  0.5935890000000 1.0
C      1  0.5537960000000  0.5265840000000  0.5557200000000 1.0
C      1  0.4881560000000  0.5620190000000  0.5466700000000 1.0
C      1  0.5119590000000  0.4679840000000  0.4713720000000 1.0
C      1  0.4931640000000  0.4018380000000  0.5034620000000 1.0
C      1  0.4974640000000  0.5532570000000  0.4659510000000 1.0
C      1  0.4849060000000  0.5726690000000  0.4982850000000 1.0
C      1  0.4407670000000  0.4435480000000  0.4650370000000 1.0
C      1  0.5353910000000  0.5856210000000  0.4878260000000 1.0
C      1  0.5136630000000  0.5206950000000  0.4163560000000 1.0
C      1  0.4576660000000  0.4755380000000  0.4326200000000 1.0
C      1  0.5118460000000  0.5281120000000  0.5821390000000 1.0
C      1  0.5256270000000  0.5647360000000  0.4401650000000 1.0
C      1  0.5773320000000  0.4814250000000  0.5517760000000 1.0
C      1  0.4457740000000  0.4310450000000  0.5133110000000 1.0
C      1  0.5138040000000  0.4494830000000  0.4447970000000 1.0
C      1  0.5520460000000  0.5102350000000  0.5278250000000 1.0
C      1  0.4923010000000  0.5098030000000  0.5761700000000 1.0
C      1  0.5360750000000  0.4449660000000  0.5522860000000 1.0
C      1  0.5392280000000  0.4738600000000  0.4883860000000 1.0
C      1  0.5386190000000  0.5820780000000  0.4635320000000 1.0
C      1  0.4807430000000  0.4134690000000  0.4773160000000 1.0
C      1  0.4998250000000  0.5840060000000  0.5335540000000 1.0
C      1  0.5338630000000  0.4889680000000  0.5341620000000 1.0
C      1  0.5701920000000  0.4434160000000  0.5139550000000 1.0
C      1  0.5063560000000  0.5572040000000  0.5737220000000 1.0
C      1  0.4259170000000  0.4825120000000  0.5435060000000 1.0
C      1  0.5038150000000  0.4915810000000  0.5498750000000 1.0
C      1  0.5793430000000  0.4283330000000  0.4935910000000 1.0
C      1  0.4977600000000  0.4977460000000  0.4633850000000 1.0
C      1  0.5926150000000  0.4817310000000  0.4818060000000 1.0
C      1  0.4247320000000  0.5260280000000  0.5492850000000 1.0
C      1  0.4807660000000  0.5408930000000  0.4928680000000 1.0
C      1  0.5173310000000  0.5451280000000  0.5252460000000 1.0
C      1  0.5202320000000  0.5364970000000  0.4949320000000 1.0
C      1  0.4940560000000  0.5669920000000  0.4350270000000 1.0
C      1  0.5498200000000  0.4865120000000  0.4522500000000 1.0
C      1  0.4703990000000  0.5467660000000  0.5248670000000 1.0
C      1  0.4734940000000  0.4783090000000  0.5409490000000 1.0
C      1  0.5355850000000  0.4632140000000  0.5168130000000 1.0
C      1  0.4854950000000  0.4720100000000  0.5112430000000 1.0
C      1  0.4480010000000  0.4753290000000  0.4637800000000 1.0
C      1  0.5338500000000  0.4882210000000  0.5819320000000 1.0
C      1  0.4386570000000  0.5148890000000  0.5712140000000 1.0
C      1  0.3984080000000  0.5406480000000  0.4918480000000 1.0
C      1  0.5631800000000  0.5351780000000  0.4276360000000 1.0
C      1  0.5632560000000  0.5134950000000  0.5013930000000 1.0
C      1  0.5896930000000  0.5037280000000  0.4977930000000 1.0
C      1  0.5493580000000  0.5153940000000  0.4702840000000 1.0
C      1  0.4414120000000  0.5594220000000  0.5165930000000 1.0
C      1  0.4597660000000  0.4086730000000  0.5007280000000 1.0
C      1  0.4891530000000  0.4470350000000  0.5745590000000 1.0
C      1  0.5258340000000  0.4244580000000  0.5357940000000 1.0
C      1  0.5305650000000  0.4751170000000  0.4348200000000 1.0
C      1  0.4846690000000  0.4360270000000  0.4335670000000 1.0
C      1  0.5306340000000  0.5486210000000  0.5523620000000 1.0
C      1  0.4297520000000  0.5119610000000  0.5968130000000 1.0
C      1  0.4464990000000  0.5303610000000  0.4562000000000 1.0
C      1  0.4205300000000  0.4947000000000  0.4604890000000 1.0
C      1  0.4752480000000  0.5358830000000  0.4515280000000 1.0
C      1  0.4910500000000  0.5444190000000  0.4128030000000 1.0
C      1  0.5297780000000  0.5426830000000  0.4649630000000 1.0
C      1  0.5134090000000  0.4357750000000  0.4823110000000 1.0
C      1  0.5060410000000  0.4497120000000  0.5119640000000 1.0
C      1  0.4632510000000  0.5005100000000  0.4237480000000 1.0
C      1  0.4370430000000  0.4530250000000  0.4950530000000 1.0
C      1  0.4689530000000  0.4810840000000  0.4852690000000 1.0
C      1  0.5360770000000  0.5154610000000  0.5793310000000 1.0
C      1  0.4508130000000  0.4380050000000  0.5411290000000 1.0
C      1  0.5778830000000  0.4257810000000  0.4439490000000 1.0
C      1  0.5738810000000  0.4383170000000  0.4677830000000 1.0
C      1  0.5208160000000  0.4130990000000  0.5069040000000 1.0
C      1  0.5219820000000  0.5034660000000  0.4865510000000 1.0
C      1  0.4333560000000  0.5077270000000  0.5219580000000 1.0
C      1  0.4228170000000  0.5523520000000  0.5418580000000 1.0
C      1  0.5368720000000  0.5402520000000  0.4239130000000 1.0
C      1  0.5605920000000  0.4591090000000  0.5394990000000 1.0
C      1  0.5030410000000  0.4963890000000  0.5101850000000 1.0
C      1  0.4462750000000  0.4651560000000  0.5458420000000 1.0
C      1  0.4596440000000  0.5829150000000  0.5057940000000 1.0
C      1  0.5157520000000  0.4646940000000  0.5669530000000 1.0
C      1  0.4657360000000  0.5040610000000  0.5617540000000 1.0
C      1  0.4896910000000  0.5119090000000  0.4360020000000 1.0
C      1  0.4751260000000  0.5126140000000  0.4839850000000 1.0
C      1  0.4985080000000  0.5189610000000  0.5303970000000 1.0
C      1  0.4805750000000  0.5933590000000  0.4302190000000 1.0
C      1  0.5671290000000  0.4673740000000  0.4708650000000 1.0
C      1  0.4767380000000  0.4325590000000  0.5526700000000 1.0
C      1  0.4412560000000  0.5098360000000  0.4828070000000 1.0
C      1  0.4956060000000  0.4281270000000  0.5334870000000 1.0
C      1  0.5731260000000  0.5297490000000  0.4535130000000 1.0
C      1  0.4648280000000  0.5160950000000  0.5318040000000 1.0
C      1  0.4263510000000  0.5339900000000  0.5015340000000 1.0
C      1  0.5228720000000  0.4906180000000  0.4139750000000 1.0
C      1  0.4319060000000  0.4818440000000  0.4997140000000 1.0
C      1  0.5158190000000  0.5741160000000  0.5074460000000 1.0
C      1  0.4422150000000  0.5192720000000  0.4292780000000 1.0
C      1  0.5979490000000  0.5336500000000  0.4639990000000 1.0
C      1  0.5015980000000  0.4191040000000  0.4551330000000 1.0
C      1  0.5790100000000  0.5058260000000  0.5569410000000 1.0
C      1  0.4597640000000  0.4464860000000  0.4390540000000 1.0
C      1  0.4502240000000  0.6083130000000  0.5027010000000 1.0
END
