TITL C-2848506-1665-166 0.00403642758340306 125000 -985.143658795146 0 0 186 (C1) n - 1
REM
REM in /home/bkarasulu/work/CARBON/AIRSS/Generating-Clusters/AIREBO/with-SteepDescent/Only-C1/SD-CG-opt/Try1-1.4A-POS3A/HFTN-CG
REM
REM
REM
REM
REM
REM ./C.cell (11c1c37f851c82e70ff6c80c92926a4b)
REM
REM compiler GCC version 9.2.1 20190827 (Red Hat 9.2.1-1)
REM options -cpp -mtune=generic -march=x86-64 -g -O0 -fpre-include=/usr/include/finclude/math-vector-fortran.h
REM seed -252268444 1336547050 -445088760 811500357 -2005687532 2113849442 716269797 -975809044 2012779851 2059329439 956311521 -2115648028 -1528170557 380219394 1658963746 648596982 530098360 1809354353 392219418 796228350 1530045306 1440792262 1274785443 -38930719 914932037 1470785160 -295983622 1653893831 119917180 -272899690 -245234297 1559425983 -897512413
REM
CELL 1.54180   50.00000   50.00000   50.00000   90.00000   90.00000   90.00000
LATT -1
SFAC C  
C      1  0.4359150000000  0.4326930000000  0.5066680000000 1.0
C      1  0.5743410000000  0.4686280000000  0.5109940000000 1.0
C      1  0.5399340000000  0.4059430000000  0.5045990000000 1.0
C      1  0.6028420000000  0.4593430000000  0.5189860000000 1.0
C      1  0.5314870000000  0.5275830000000  0.3978440000000 1.0
C      1  0.5969890000000  0.4914740000000  0.4524790000000 1.0
C      1  0.3893040000000  0.4992670000000  0.4604170000000 1.0
C      1  0.4365340000000  0.4925130000000  0.4252940000000 1.0
C      1  0.4629910000000  0.5433440000000  0.4048970000000 1.0
C      1  0.4790970000000  0.4907350000000  0.5665160000000 1.0
C      1  0.5084130000000  0.4640550000000  0.5039730000000 1.0
C      1  0.5926040000000  0.5618980000000  0.4853100000000 1.0
C      1  0.4472680000000  0.5143080000000  0.4983110000000 1.0
C      1  0.5148450000000  0.4560370000000  0.4528550000000 1.0
C      1  0.5613620000000  0.4252500000000  0.4579660000000 1.0
C      1  0.4233940000000  0.5372600000000  0.4761360000000 1.0
C      1  0.4519340000000  0.5355670000000  0.5313570000000 1.0
C      1  0.5328650000000  0.4127790000000  0.4717430000000 1.0
C      1  0.5661130000000  0.4923240000000  0.5826400000000 1.0
C      1  0.4648710000000  0.3950100000000  0.4896490000000 1.0
C      1  0.5450000000000  0.5448730000000  0.5455620000000 1.0
C      1  0.4787440000000  0.5166940000000  0.5289160000000 1.0
C      1  0.5042850000000  0.5475910000000  0.5858520000000 1.0
C      1  0.3938740000000  0.4463300000000  0.5330520000000 1.0
C      1  0.5406840000000  0.4420430000000  0.4382520000000 1.0
C      1  0.4032530000000  0.5267000000000  0.4506730000000 1.0
C      1  0.5104970000000  0.4356880000000  0.4759650000000 1.0
C      1  0.4382850000000  0.5575220000000  0.4452700000000 1.0
C      1  0.5721880000000  0.5375240000000  0.4359300000000 1.0
C      1  0.5876870000000  0.4428920000000  0.4516200000000 1.0
C      1  0.5865480000000  0.4739540000000  0.4796990000000 1.0
C      1  0.4510770000000  0.4937990000000  0.5585830000000 1.0
C      1  0.5999470000000  0.5339660000000  0.4972470000000 1.0
C      1  0.4271570000000  0.4656730000000  0.4692980000000 1.0
C      1  0.5371690000000  0.5387220000000  0.4813930000000 1.0
C      1  0.5312320000000  0.4983360000000  0.4340410000000 1.0
C      1  0.5437080000000  0.4517070000000  0.5388640000000 1.0
C      1  0.5764620000000  0.5532810000000  0.5553810000000 1.0
C      1  0.4438480000000  0.4775390000000  0.5334330000000 1.0
C      1  0.5205650000000  0.5946190000000  0.4514500000000 1.0
C      1  0.6013950000000  0.5517420000000  0.5442580000000 1.0
C      1  0.3951700000000  0.4666980000000  0.4708150000000 1.0
C      1  0.4901670000000  0.4896670000000  0.5137980000000 1.0
C      1  0.4341750000000  0.5170350000000  0.5767950000000 1.0
C      1  0.5734470000000  0.5158640000000  0.5343260000000 1.0
C      1  0.5020520000000  0.4833130000000  0.4250370000000 1.0
C      1  0.5119370000000  0.4168360000000  0.5632260000000 1.0
C      1  0.5996660000000  0.4971820000000  0.5305010000000 1.0
C      1  0.4322870000000  0.3952200000000  0.4410720000000 1.0
C      1  0.6013860000000  0.5826280000000  0.5028710000000 1.0
C      1  0.4687470000000  0.5705500000000  0.4928620000000 1.0
C      1  0.4402980000000  0.5146720000000  0.4589290000000 1.0
C      1  0.6240720000000  0.4969800000000  0.4496580000000 1.0
C      1  0.5252490000000  0.5590760000000  0.4098760000000 1.0
C      1  0.4443000000000  0.5481400000000  0.5006880000000 1.0
C      1  0.4333510000000  0.4522070000000  0.5340790000000 1.0
C      1  0.5097730000000  0.4079000000000  0.4472040000000 1.0
C      1  0.4921520000000  0.5952290000000  0.4935830000000 1.0
C      1  0.4940990000000  0.4515130000000  0.4308450000000 1.0
C      1  0.4806280000000  0.4442690000000  0.4831500000000 1.0
C      1  0.4351620000000  0.5445200000000  0.4200740000000 1.0
C      1  0.5293660000000  0.4905700000000  0.5040980000000 1.0
C      1  0.5251190000000  0.5926670000000  0.5477820000000 1.0
C      1  0.5102730000000  0.4858670000000  0.5751820000000 1.0
C      1  0.4004030000000  0.5062250000000  0.5583840000000 1.0
C      1  0.5113070000000  0.5241890000000  0.4337390000000 1.0
C      1  0.5355880000000  0.4547650000000  0.4875650000000 1.0
C      1  0.3818800000000  0.5287710000000  0.5219780000000 1.0
C      1  0.4921000000000  0.5428220000000  0.5123770000000 1.0
C      1  0.4587810000000  0.4872690000000  0.5089430000000 1.0
C      1  0.5176460000000  0.5330190000000  0.5292140000000 1.0
C      1  0.4760930000000  0.5280130000000  0.6061420000000 1.0
C      1  0.4786830000000  0.4775880000000  0.4002460000000 1.0
C      1  0.5721110000000  0.4638550000000  0.5701570000000 1.0
C      1  0.4358980000000  0.5660920000000  0.5513100000000 1.0
C      1  0.5159350000000  0.4435830000000  0.5839690000000 1.0
C      1  0.4511670000000  0.5932540000000  0.4743250000000 1.0
C      1  0.5505230000000  0.5046960000000  0.4609160000000 1.0
C      1  0.4580770000000  0.5044960000000  0.5974960000000 1.0
C      1  0.4970490000000  0.4057860000000  0.5421040000000 1.0
C      1  0.6120370000000  0.5266170000000  0.5398720000000 1.0
C      1  0.5990360000000  0.4227620000000  0.4918770000000 1.0
C      1  0.5098990000000  0.4067060000000  0.5128200000000 1.0
C      1  0.4248050000000  0.5689640000000  0.5192130000000 1.0
C      1  0.4926680000000  0.5218770000000  0.4889290000000 1.0
C      1  0.3823550000000  0.4882400000000  0.4917230000000 1.0
C      1  0.6040510000000  0.4449810000000  0.4761420000000 1.0
C      1  0.4852530000000  0.4439660000000  0.5422710000000 1.0
C      1  0.4521540000000  0.5903580000000  0.5386000000000 1.0
C      1  0.4003940000000  0.5441970000000  0.4998100000000 1.0
C      1  0.5184330000000  0.5740390000000  0.5697580000000 1.0
C      1  0.5500750000000  0.5521430000000  0.4403670000000 1.0
C      1  0.4414390000000  0.5500270000000  0.5729230000000 1.0
C      1  0.4953260000000  0.3865680000000  0.4962310000000 1.0
C      1  0.3931060000000  0.4980460000000  0.5177420000000 1.0
C      1  0.4630070000000  0.5396280000000  0.4578200000000 1.0
C      1  0.4404630000000  0.4461750000000  0.5728070000000 1.0
C      1  0.4551500000000  0.4250420000000  0.4796860000000 1.0
C      1  0.5528460000000  0.4723660000000  0.4357460000000 1.0
C      1  0.6292120000000  0.4961370000000  0.4888080000000 1.0
C      1  0.5152510000000  0.4930160000000  0.6068920000000 1.0
C      1  0.5047630000000  0.5719790000000  0.4337490000000 1.0
C      1  0.5162800000000  0.5038990000000  0.5303450000000 1.0
C      1  0.4614350000000  0.4331320000000  0.5589780000000 1.0
C      1  0.4450740000000  0.4438200000000  0.4219390000000 1.0
C      1  0.4755180000000  0.4716510000000  0.4630620000000 1.0
C      1  0.4214430000000  0.4806910000000  0.5662200000000 1.0
C      1  0.5680960000000  0.4177120000000  0.4896080000000 1.0
C      1  0.5389770000000  0.4759860000000  0.5889670000000 1.0
C      1  0.5691430000000  0.5092470000000  0.4873780000000 1.0
C      1  0.4935730000000  0.5199030000000  0.5590670000000 1.0
C      1  0.5368740000000  0.5382550000000  0.6094060000000 1.0
C      1  0.5020250000000  0.4617020000000  0.6057800000000 1.0
C      1  0.4021150000000  0.4328280000000  0.5103590000000 1.0
C      1  0.4848800000000  0.5986160000000  0.5427100000000 1.0
C      1  0.5073480000000  0.4835550000000  0.4643420000000 1.0
C      1  0.5489330000000  0.5846450000000  0.4636000000000 1.0
C      1  0.4757570000000  0.5692870000000  0.5261240000000 1.0
C      1  0.4423660000000  0.4740470000000  0.5922020000000 1.0
C      1  0.5088190000000  0.5226510000000  0.6085260000000 1.0
C      1  0.4705770000000  0.5529000000000  0.5862240000000 1.0
C      1  0.4893910000000  0.3936570000000  0.4655340000000 1.0
C      1  0.4935660000000  0.4212570000000  0.4200940000000 1.0
C      1  0.5618110000000  0.5612180000000  0.4846160000000 1.0
C      1  0.5566120000000  0.4650280000000  0.4676580000000 1.0
C      1  0.5835870000000  0.4671720000000  0.4383450000000 1.0
C      1  0.4905850000000  0.5199360000000  0.4550430000000 1.0
C      1  0.4934750000000  0.5595380000000  0.3977490000000 1.0
C      1  0.4719420000000  0.4450680000000  0.4083580000000 1.0
C      1  0.4897670000000  0.5567410000000  0.4699750000000 1.0
C      1  0.5984220000000  0.4687640000000  0.5491810000000 1.0
C      1  0.3985740000000  0.4764510000000  0.5419630000000 1.0
C      1  0.5560980000000  0.5276520000000  0.5085400000000 1.0
C      1  0.4278530000000  0.5753900000000  0.4650460000000 1.0
C      1  0.5254310000000  0.5279930000000  0.5677930000000 1.0
C      1  0.4026770000000  0.5142880000000  0.5894920000000 1.0
C      1  0.6005490000000  0.4999730000000  0.4965630000000 1.0
C      1  0.5757070000000  0.4436070000000  0.5435480000000 1.0
C      1  0.5408420000000  0.4992130000000  0.4015310000000 1.0
C      1  0.5072000000000  0.5569670000000  0.5472550000000 1.0
C      1  0.5773520000000  0.5143820000000  0.4487410000000 1.0
C      1  0.5420220000000  0.4265910000000  0.5589760000000 1.0
C      1  0.4688000000000  0.4841030000000  0.4321240000000 1.0
C      1  0.4674220000000  0.5030400000000  0.4733540000000 1.0
C      1  0.4999160000000  0.5285540000000  0.4058690000000 1.0
C      1  0.5532360000000  0.4890980000000  0.5287100000000 1.0
C      1  0.4267640000000  0.5218700000000  0.5439630000000 1.0
C      1  0.4397370000000  0.6135910000000  0.4940850000000 1.0
C      1  0.4283200000000  0.4651470000000  0.4108980000000 1.0
C      1  0.5429560000000  0.5814740000000  0.4294920000000 1.0
C      1  0.5223590000000  0.5081530000000  0.4796480000000 1.0
C      1  0.4194770000000  0.5218550000000  0.4256600000000 1.0
C      1  0.5041700000000  0.6095070000000  0.4727550000000 1.0
C      1  0.4445020000000  0.4216210000000  0.4479670000000 1.0
C      1  0.5047960000000  0.4583280000000  0.5573330000000 1.0
C      1  0.4759830000000  0.5483610000000  0.5529600000000 1.0
C      1  0.5426910000000  0.4711960000000  0.3933230000000 1.0
C      1  0.5702120000000  0.5233170000000  0.5676070000000 1.0
C      1  0.4194040000000  0.5193180000000  0.5130660000000 1.0
C      1  0.5591150000000  0.4161710000000  0.5307580000000 1.0
C      1  0.4210490000000  0.4914450000000  0.4535090000000 1.0
C      1  0.5257930000000  0.4182560000000  0.4190410000000 1.0
C      1  0.4733950000000  0.5701420000000  0.4230950000000 1.0
C      1  0.5065130000000  0.5964230000000  0.5194720000000 1.0
C      1  0.5390520000000  0.4467520000000  0.4046070000000 1.0
C      1  0.5553790000000  0.4423360000000  0.5091890000000 1.0
C      1  0.5498740000000  0.4439830000000  0.5862260000000 1.0
C      1  0.5525720000000  0.5995270000000  0.4908570000000 1.0
C      1  0.5485910000000  0.5596760000000  0.5151570000000 1.0
C      1  0.5192580000000  0.5492380000000  0.4544640000000 1.0
C      1  0.5249360000000  0.4740430000000  0.5400980000000 1.0
C      1  0.4947410000000  0.4371340000000  0.5134280000000 1.0
C      1  0.4401390000000  0.4643290000000  0.4959320000000 1.0
C      1  0.4484870000000  0.4537850000000  0.4527600000000 1.0
C      1  0.4108640000000  0.5728840000000  0.4884410000000 1.0
C      1  0.5382890000000  0.5883310000000  0.5171130000000 1.0
C      1  0.5579390000000  0.5362920000000  0.5964360000000 1.0
C      1  0.4735560000000  0.5110560000000  0.4034250000000 1.0
C      1  0.4681410000000  0.4081030000000  0.5420820000000 1.0
C      1  0.4709930000000  0.5783910000000  0.4537080000000 1.0
C      1  0.6042220000000  0.5650190000000  0.4595390000000 1.0
C      1  0.4141640000000  0.4424610000000  0.5576570000000 1.0
C      1  0.4319270000000  0.6022020000000  0.5178610000000 1.0
C      1  0.4523430000000  0.4053780000000  0.5185340000000 1.0
C      1  0.5445620000000  0.5029120000000  0.5585590000000 1.0
C      1  0.4761200000000  0.4757180000000  0.5959240000000 1.0
END
