TITL C-2847945-6269-406 0.000125960934923617 125000 -511.598245687508 0 0 94 (C1) n - 1
REM
REM in /home/bkarasulu/work/CARBON/AIRSS/Generating-Clusters/AIREBO/with-SteepDescent/Only-C1/SD-CG-opt/Try1-1.4A-POS3A/HFTN-CG
REM
REM
REM
REM
REM
REM ./C.cell (11c1c37f851c82e70ff6c80c92926a4b)
REM
REM compiler GCC version 9.2.1 20190827 (Red Hat 9.2.1-1)
REM options -cpp -mtune=generic -march=x86-64 -g -O0 -fpre-include=/usr/include/finclude/math-vector-fortran.h
REM seed 227818446 288213950 136567282 98248814 -1486416458 1586762590 858564245 1702589571 -1823548017 900436457 -400982468 -934712444 1177277457 1975854265 -252096901 -1052672702 715918571 -985530204 -1995884451 140555685 1968076168 -938971639 2105158123 628677024 -1902388547 1211795582 1762251721 524899322 -14348070 512276940 1017206246 -2126465282 944650567
REM
CELL 1.54180   50.00000   50.00000   50.00000   90.00000   90.00000   90.00000
LATT -1
SFAC C  
C      1  0.5078210000000  0.5511690000000  0.4468810000000 1.0
C      1  0.5361470000000  0.5744150000000  0.5332860000000 1.0
C      1  0.4112040000000  0.5132810000000  0.5215200000000 1.0
C      1  0.4989860000000  0.4712800000000  0.5800760000000 1.0
C      1  0.4421600000000  0.4813540000000  0.5660980000000 1.0
C      1  0.5384410000000  0.5333330000000  0.5157050000000 1.0
C      1  0.4488810000000  0.5125990000000  0.4756690000000 1.0
C      1  0.5804840000000  0.5191540000000  0.4808310000000 1.0
C      1  0.4992330000000  0.4788790000000  0.4289770000000 1.0
C      1  0.5395820000000  0.4572590000000  0.4549700000000 1.0
C      1  0.4295160000000  0.5442530000000  0.4904340000000 1.0
C      1  0.5639950000000  0.4981130000000  0.5552840000000 1.0
C      1  0.5338500000000  0.5031740000000  0.5051320000000 1.0
C      1  0.5695600000000  0.5191030000000  0.5121640000000 1.0
C      1  0.4836710000000  0.5604170000000  0.5754460000000 1.0
C      1  0.5396940000000  0.4929190000000  0.5708010000000 1.0
C      1  0.5664110000000  0.4664400000000  0.4962140000000 1.0
C      1  0.4841240000000  0.4766640000000  0.5578980000000 1.0
C      1  0.4635540000000  0.5657880000000  0.5252610000000 1.0
C      1  0.4996310000000  0.5230940000000  0.5107620000000 1.0
C      1  0.5770070000000  0.5230730000000  0.5589940000000 1.0
C      1  0.4546200000000  0.5395190000000  0.5097440000000 1.0
C      1  0.5108080000000  0.4794160000000  0.4834620000000 1.0
C      1  0.4797220000000  0.5867150000000  0.4849910000000 1.0
C      1  0.5275930000000  0.4695230000000  0.5823370000000 1.0
C      1  0.4441300000000  0.4942880000000  0.5108440000000 1.0
C      1  0.4788220000000  0.4574730000000  0.4754510000000 1.0
C      1  0.5202360000000  0.5021840000000  0.4399830000000 1.0
C      1  0.4397880000000  0.4599940000000  0.4683220000000 1.0
C      1  0.4359810000000  0.5642580000000  0.4731480000000 1.0
C      1  0.5506720000000  0.4449290000000  0.4295750000000 1.0
C      1  0.4893260000000  0.4593910000000  0.5327340000000 1.0
C      1  0.5317650000000  0.5290060000000  0.4244310000000 1.0
C      1  0.5316930000000  0.4301970000000  0.5499790000000 1.0
C      1  0.4933770000000  0.5065130000000  0.4822800000000 1.0
C      1  0.5484340000000  0.4445740000000  0.4807060000000 1.0
C      1  0.4381770000000  0.4439670000000  0.5300340000000 1.0
C      1  0.5058040000000  0.5911070000000  0.4740540000000 1.0
C      1  0.5672540000000  0.4870470000000  0.5232790000000 1.0
C      1  0.4740670000000  0.5345140000000  0.4822470000000 1.0
C      1  0.4649090000000  0.5134300000000  0.4243950000000 1.0
C      1  0.5067980000000  0.4601220000000  0.4563110000000 1.0
C      1  0.4909530000000  0.5044360000000  0.4129300000000 1.0
C      1  0.4696510000000  0.5896720000000  0.5114380000000 1.0
C      1  0.5345360000000  0.4711980000000  0.5066250000000 1.0
C      1  0.4768850000000  0.5573320000000  0.5487020000000 1.0
C      1  0.5480450000000  0.5148800000000  0.4787410000000 1.0
C      1  0.5762580000000  0.5486900000000  0.5491830000000 1.0
C      1  0.4947830000000  0.4322920000000  0.4399380000000 1.0
C      1  0.5626720000000  0.5638070000000  0.5297390000000 1.0
C      1  0.4586330000000  0.4822900000000  0.4843270000000 1.0
C      1  0.4919610000000  0.5136970000000  0.5732670000000 1.0
C      1  0.5627470000000  0.5500840000000  0.4999010000000 1.0
C      1  0.5189920000000  0.4513560000000  0.5278190000000 1.0
C      1  0.4800920000000  0.4301100000000  0.4924970000000 1.0
C      1  0.5170140000000  0.5076260000000  0.5612710000000 1.0
C      1  0.5164760000000  0.5046950000000  0.5328380000000 1.0
C      1  0.5309580000000  0.4315460000000  0.5029090000000 1.0
C      1  0.5119070000000  0.5200940000000  0.4049990000000 1.0
C      1  0.4692830000000  0.4413690000000  0.5210840000000 1.0
C      1  0.4646510000000  0.5044230000000  0.5552280000000 1.0
C      1  0.5093350000000  0.3909790000000  0.4840940000000 1.0
C      1  0.5377260000000  0.4444880000000  0.5788720000000 1.0
C      1  0.5013190000000  0.5213640000000  0.4561290000000 1.0
C      1  0.5397570000000  0.5545850000000  0.4451420000000 1.0
C      1  0.5913020000000  0.4974380000000  0.4678720000000 1.0
C      1  0.4760990000000  0.4547070000000  0.4314730000000 1.0
C      1  0.4432170000000  0.4873410000000  0.4274630000000 1.0
C      1  0.4477960000000  0.4417260000000  0.4947320000000 1.0
C      1  0.5715290000000  0.4780500000000  0.4676270000000 1.0
C      1  0.5425400000000  0.4908640000000  0.4565250000000 1.0
C      1  0.4887070000000  0.5368190000000  0.5891580000000 1.0
C      1  0.4422820000000  0.5190090000000  0.5341270000000 1.0
C      1  0.4833960000000  0.5641020000000  0.4354490000000 1.0
C      1  0.5544500000000  0.4336760000000  0.5278430000000 1.0
C      1  0.4133560000000  0.4557890000000  0.5162120000000 1.0
C      1  0.4386960000000  0.4579270000000  0.5574170000000 1.0
C      1  0.5367720000000  0.5469520000000  0.4781540000000 1.0
C      1  0.5716360000000  0.4549570000000  0.5337090000000 1.0
C      1  0.5051240000000  0.5478960000000  0.4906290000000 1.0
C      1  0.5182440000000  0.5569750000000  0.5206690000000 1.0
C      1  0.4177460000000  0.5149570000000  0.4891650000000 1.0
C      1  0.4733350000000  0.5025010000000  0.5163780000000 1.0
C      1  0.5066020000000  0.4153420000000  0.4932530000000 1.0
C      1  0.4507510000000  0.4629400000000  0.4389800000000 1.0
C      1  0.4195360000000  0.4855370000000  0.4743410000000 1.0
C      1  0.4975000000000  0.4833560000000  0.5145090000000 1.0
C      1  0.4716240000000  0.5351040000000  0.4481600000000 1.0
C      1  0.4141820000000  0.4823800000000  0.5138250000000 1.0
C      1  0.5284670000000  0.5782260000000  0.4676950000000 1.0
C      1  0.4645610000000  0.5657870000000  0.4728120000000 1.0
C      1  0.5381550000000  0.4131490000000  0.5787890000000 1.0
C      1  0.4805830000000  0.5292180000000  0.5382550000000 1.0
C      1  0.4392490000000  0.5123330000000  0.4464010000000 1.0
END
