TITL C-2848507-1641-170 -0.00550072716673594 125000 -787.019172175417 0 0 151 (C1) n - 1
REM
REM in /home/bkarasulu/work/CARBON/AIRSS/Generating-Clusters/AIREBO/with-SteepDescent/Only-C1/SD-CG-opt/Try1-1.4A-POS3A/HFTN-CG
REM
REM
REM
REM
REM
REM ./C.cell (11c1c37f851c82e70ff6c80c92926a4b)
REM
REM compiler GCC version 9.2.1 20190827 (Red Hat 9.2.1-1)
REM options -cpp -mtune=generic -march=x86-64 -g -O0 -fpre-include=/usr/include/finclude/math-vector-fortran.h
REM seed 327152371 -325993083 -1833325131 -1885521345 -1887787948 990451179 1596457424 -1510253436 -800119351 -353336343 334113020 -874586894 290529384 -1314110428 333759552 1571093670 100237665 -207563526 -628356499 2104463953 -75853101 -1108551607 -106431489 820829500 1868766466 -580690296 -1888122754 -834383615 1811391751 -247148926 -905381975 458067351 -1764917777
REM
CELL 1.54180   50.00000   50.00000   50.00000   90.00000   90.00000   90.00000
LATT -1
SFAC C  
C      1  0.5344420000000  0.5817260000000  0.5422830000000 1.0
C      1  0.5150520000000  0.4851780000000  0.4363720000000 1.0
C      1  0.5595930000000  0.4129380000000  0.5039000000000 1.0
C      1  0.5934450000000  0.5477250000000  0.4836870000000 1.0
C      1  0.4039900000000  0.5500920000000  0.5344320000000 1.0
C      1  0.5265910000000  0.5152150000000  0.4284490000000 1.0
C      1  0.6140270000000  0.4985870000000  0.5302360000000 1.0
C      1  0.4925620000000  0.4704480000000  0.4068090000000 1.0
C      1  0.4749320000000  0.3925310000000  0.4650900000000 1.0
C      1  0.5224370000000  0.3872820000000  0.4964020000000 1.0
C      1  0.5448050000000  0.4892670000000  0.5139870000000 1.0
C      1  0.5031750000000  0.5730230000000  0.5460960000000 1.0
C      1  0.4570760000000  0.4970430000000  0.5550960000000 1.0
C      1  0.4836300000000  0.4524130000000  0.5553450000000 1.0
C      1  0.5190490000000  0.4997370000000  0.5767590000000 1.0
C      1  0.4925060000000  0.4125630000000  0.4757130000000 1.0
C      1  0.3912680000000  0.4964140000000  0.5339790000000 1.0
C      1  0.4294540000000  0.5794160000000  0.4965190000000 1.0
C      1  0.4974950000000  0.6030440000000  0.4591410000000 1.0
C      1  0.4382930000000  0.4800910000000  0.5389240000000 1.0
C      1  0.4712090000000  0.5827700000000  0.4664960000000 1.0
C      1  0.5103280000000  0.4181020000000  0.5041430000000 1.0
C      1  0.4240070000000  0.4652530000000  0.4787990000000 1.0
C      1  0.4145140000000  0.5489090000000  0.4645810000000 1.0
C      1  0.4947520000000  0.4795510000000  0.6008630000000 1.0
C      1  0.5806760000000  0.5164930000000  0.4385770000000 1.0
C      1  0.4492570000000  0.4948090000000  0.3991020000000 1.0
C      1  0.4543160000000  0.5323660000000  0.5201900000000 1.0
C      1  0.4930360000000  0.5180380000000  0.4315730000000 1.0
C      1  0.5324990000000  0.4733080000000  0.5661720000000 1.0
C      1  0.4765700000000  0.5358890000000  0.5803250000000 1.0
C      1  0.5075140000000  0.4335030000000  0.5663910000000 1.0
C      1  0.4242020000000  0.4403200000000  0.5019140000000 1.0
C      1  0.5777810000000  0.5864450000000  0.4684580000000 1.0
C      1  0.4649460000000  0.4411890000000  0.5176440000000 1.0
C      1  0.4447590000000  0.4670480000000  0.3946930000000 1.0
C      1  0.3917550000000  0.5312710000000  0.4795150000000 1.0
C      1  0.5114050000000  0.5624620000000  0.4795230000000 1.0
C      1  0.4110820000000  0.4849870000000  0.5191300000000 1.0
C      1  0.4537290000000  0.5214070000000  0.5639070000000 1.0
C      1  0.4996640000000  0.4277850000000  0.4394980000000 1.0
C      1  0.4428300000000  0.4180080000000  0.4938540000000 1.0
C      1  0.4944960000000  0.4658730000000  0.5282870000000 1.0
C      1  0.4615260000000  0.4090370000000  0.5195070000000 1.0
C      1  0.4407700000000  0.5910980000000  0.5162130000000 1.0
C      1  0.5016500000000  0.5401760000000  0.4559230000000 1.0
C      1  0.5409780000000  0.5508210000000  0.4916320000000 1.0
C      1  0.4500280000000  0.5255400000000  0.4385570000000 1.0
C      1  0.4520780000000  0.5610120000000  0.5611210000000 1.0
C      1  0.5620410000000  0.5241260000000  0.4925920000000 1.0
C      1  0.5870130000000  0.4850300000000  0.4618620000000 1.0
C      1  0.4789200000000  0.5303210000000  0.5006570000000 1.0
C      1  0.4830080000000  0.3978290000000  0.5325660000000 1.0
C      1  0.4560050000000  0.5475900000000  0.4133510000000 1.0
C      1  0.5233070000000  0.4699670000000  0.4076700000000 1.0
C      1  0.5163410000000  0.5386350000000  0.5835870000000 1.0
C      1  0.5550140000000  0.5660240000000  0.5506640000000 1.0
C      1  0.5729400000000  0.5039190000000  0.5793390000000 1.0
C      1  0.4523880000000  0.4831450000000  0.4844060000000 1.0
C      1  0.5356390000000  0.4381920000000  0.5849280000000 1.0
C      1  0.5499680000000  0.3885990000000  0.4925220000000 1.0
C      1  0.4864300000000  0.5919180000000  0.4955550000000 1.0
C      1  0.4761260000000  0.5485850000000  0.3952710000000 1.0
C      1  0.4633080000000  0.5656900000000  0.5899350000000 1.0
C      1  0.5674890000000  0.5744120000000  0.5099560000000 1.0
C      1  0.4278050000000  0.5181200000000  0.5337270000000 1.0
C      1  0.4552410000000  0.4583680000000  0.5680730000000 1.0
C      1  0.5105920000000  0.4992450000000  0.5456610000000 1.0
C      1  0.4320970000000  0.5538000000000  0.4445770000000 1.0
C      1  0.5700670000000  0.5362010000000  0.4618380000000 1.0
C      1  0.5577510000000  0.5674740000000  0.4669960000000 1.0
C      1  0.4184330000000  0.4346440000000  0.5328160000000 1.0
C      1  0.5596310000000  0.5338280000000  0.5407290000000 1.0
C      1  0.5484270000000  0.4862470000000  0.4119520000000 1.0
C      1  0.5418620000000  0.4257590000000  0.5475230000000 1.0
C      1  0.6100860000000  0.5016150000000  0.4444820000000 1.0
C      1  0.4468300000000  0.3995160000000  0.4673690000000 1.0
C      1  0.4656280000000  0.4808580000000  0.5902890000000 1.0
C      1  0.4799940000000  0.4986590000000  0.4041640000000 1.0
C      1  0.4980790000000  0.5107700000000  0.5191970000000 1.0
C      1  0.4795440000000  0.4491280000000  0.4331130000000 1.0
C      1  0.5796030000000  0.5430030000000  0.5147630000000 1.0
C      1  0.4273200000000  0.5420010000000  0.5578180000000 1.0
C      1  0.4688330000000  0.5555540000000  0.5359420000000 1.0
C      1  0.4850170000000  0.4843590000000  0.5624560000000 1.0
C      1  0.5378350000000  0.5837700000000  0.5003570000000 1.0
C      1  0.5452790000000  0.5028620000000  0.5427870000000 1.0
C      1  0.4943010000000  0.4619810000000  0.4800560000000 1.0
C      1  0.4325990000000  0.5119280000000  0.4133810000000 1.0
C      1  0.5386850000000  0.4352700000000  0.4965110000000 1.0
C      1  0.5392890000000  0.4446720000000  0.4651410000000 1.0
C      1  0.5358620000000  0.4745640000000  0.4588740000000 1.0
C      1  0.5475550000000  0.4930160000000  0.5913330000000 1.0
C      1  0.4685150000000  0.5375160000000  0.4630790000000 1.0
C      1  0.4376020000000  0.5040080000000  0.4619620000000 1.0
C      1  0.5836810000000  0.4996990000000  0.4892790000000 1.0
C      1  0.4870470000000  0.5585980000000  0.4986760000000 1.0
C      1  0.4471200000000  0.5770730000000  0.4439470000000 1.0
C      1  0.5226980000000  0.4535860000000  0.5435290000000 1.0
C      1  0.4468280000000  0.4354570000000  0.5456480000000 1.0
C      1  0.4924010000000  0.4457640000000  0.5040990000000 1.0
C      1  0.5117360000000  0.5905120000000  0.5182230000000 1.0
C      1  0.5801930000000  0.4497940000000  0.4955890000000 1.0
C      1  0.4144500000000  0.4584700000000  0.5486560000000 1.0
C      1  0.5234860000000  0.4270280000000  0.4460430000000 1.0
C      1  0.5608760000000  0.4887310000000  0.4407020000000 1.0
C      1  0.4998380000000  0.5419670000000  0.5326400000000 1.0
C      1  0.5107820000000  0.4148790000000  0.5381070000000 1.0
C      1  0.5605580000000  0.4459740000000  0.5674430000000 1.0
C      1  0.4107160000000  0.5092630000000  0.4675130000000 1.0
C      1  0.5928910000000  0.4561180000000  0.4670570000000 1.0
C      1  0.4831080000000  0.4894720000000  0.4472060000000 1.0
C      1  0.5444800000000  0.5135240000000  0.4006780000000 1.0
C      1  0.4618640000000  0.4301170000000  0.4691170000000 1.0
C      1  0.4095890000000  0.4940290000000  0.5800120000000 1.0
C      1  0.6111030000000  0.5092460000000  0.5002660000000 1.0
C      1  0.4777070000000  0.4864710000000  0.5069060000000 1.0
C      1  0.4448500000000  0.4648580000000  0.5122810000000 1.0
C      1  0.5223380000000  0.5034860000000  0.4994870000000 1.0
C      1  0.5684690000000  0.4366460000000  0.4699240000000 1.0
C      1  0.5637520000000  0.4119520000000  0.5307160000000 1.0
C      1  0.5814140000000  0.5417050000000  0.3884210000000 1.0
C      1  0.5810400000000  0.5301260000000  0.4111580000000 1.0
C      1  0.4900770000000  0.5660500000000  0.5719800000000 1.0
C      1  0.4843710000000  0.5095880000000  0.4744470000000 1.0
C      1  0.4012250000000  0.5440950000000  0.5082630000000 1.0
C      1  0.4073700000000  0.4681400000000  0.4590530000000 1.0
C      1  0.5075990000000  0.4560050000000  0.5922030000000 1.0
C      1  0.4682000000000  0.5818260000000  0.5201290000000 1.0
C      1  0.5236380000000  0.5250200000000  0.4778410000000 1.0
C      1  0.5236770000000  0.5404760000000  0.5568420000000 1.0
C      1  0.5641750000000  0.4789120000000  0.5580200000000 1.0
C      1  0.4496720000000  0.5601100000000  0.4799160000000 1.0
C      1  0.6075260000000  0.5296180000000  0.5248130000000 1.0
C      1  0.5104160000000  0.4874030000000  0.4759670000000 1.0
C      1  0.5398790000000  0.4585840000000  0.5163820000000 1.0
C      1  0.4240440000000  0.4701040000000  0.5748890000000 1.0
C      1  0.4934230000000  0.5284340000000  0.3991920000000 1.0
C      1  0.5941260000000  0.4787860000000  0.5345840000000 1.0
C      1  0.5783890000000  0.5277630000000  0.5676180000000 1.0
C      1  0.4042080000000  0.5100140000000  0.5569350000000 1.0
C      1  0.5396450000000  0.5289640000000  0.4509850000000 1.0
C      1  0.4329840000000  0.5036630000000  0.5033760000000 1.0
C      1  0.4967220000000  0.5129300000000  0.5941730000000 1.0
C      1  0.5194690000000  0.5922170000000  0.4730090000000 1.0
C      1  0.6012450000000  0.5736530000000  0.4770960000000 1.0
C      1  0.4653970000000  0.4519290000000  0.4043090000000 1.0
C      1  0.4680110000000  0.4628320000000  0.4620200000000 1.0
C      1  0.4294230000000  0.5352740000000  0.4914080000000 1.0
C      1  0.5750620000000  0.4760590000000  0.5093470000000 1.0
C      1  0.5325330000000  0.5460810000000  0.5242500000000 1.0
END
