TITL C-2847952-8118-647 -0.000194436892906801 125000 -388.921337160373 0 0 69 (C1) n - 1
REM
REM in /home/bkarasulu/work/CARBON/AIRSS/Generating-Clusters/AIREBO/with-SteepDescent/Only-C1/SD-CG-opt/Try1-1.4A-POS3A/HFTN-CG
REM
REM
REM
REM
REM
REM ./C.cell (11c1c37f851c82e70ff6c80c92926a4b)
REM
REM compiler GCC version 9.2.1 20190827 (Red Hat 9.2.1-1)
REM options -cpp -mtune=generic -march=x86-64 -g -O0 -fpre-include=/usr/include/finclude/math-vector-fortran.h
REM seed -493665950 -148116203 -282568700 1035030133 1539290560 -73966622 -1339289916 1973766687 -758295386 2072252289 -1324598287 1665354942 -1003609372 -1349425518 -2046624993 1761475081 1372677137 -406047682 959893845 -1090441022 -1126261675 -788463591 1848084007 -430443182 1582704994 1763319275 644446405 -617354386 1342522363 -1326711929 -1014393005 -549138105 -1498084504
REM
CELL 1.54180   50.00000   50.00000   50.00000   90.00000   90.00000   90.00000
LATT -1
SFAC C  
C      1  0.5100270000000  0.5638610000000  0.4801420000000 1.0
C      1  0.4917930000000  0.4748500000000  0.5647220000000 1.0
C      1  0.5039620000000  0.5531560000000  0.5626920000000 1.0
C      1  0.5410820000000  0.4724720000000  0.5521310000000 1.0
C      1  0.4890270000000  0.4561870000000  0.4497280000000 1.0
C      1  0.4778120000000  0.4345410000000  0.4692950000000 1.0
C      1  0.5316940000000  0.4768490000000  0.4678880000000 1.0
C      1  0.5253500000000  0.4401280000000  0.5093090000000 1.0
C      1  0.5034550000000  0.5261220000000  0.5758240000000 1.0
C      1  0.5317690000000  0.4497870000000  0.4292920000000 1.0
C      1  0.4259830000000  0.5186480000000  0.5479110000000 1.0
C      1  0.4710400000000  0.4644080000000  0.4842900000000 1.0
C      1  0.5326590000000  0.5554840000000  0.5243420000000 1.0
C      1  0.5132830000000  0.5251770000000  0.4493080000000 1.0
C      1  0.4517140000000  0.4399610000000  0.4894280000000 1.0
C      1  0.4501480000000  0.4897980000000  0.4540240000000 1.0
C      1  0.4908990000000  0.5062320000000  0.4662910000000 1.0
C      1  0.5421920000000  0.5098800000000  0.5362030000000 1.0
C      1  0.4274440000000  0.4329390000000  0.4978110000000 1.0
C      1  0.5318910000000  0.5564520000000  0.5519020000000 1.0
C      1  0.5665500000000  0.5093850000000  0.5134590000000 1.0
C      1  0.5698620000000  0.5021450000000  0.4824580000000 1.0
C      1  0.5752010000000  0.5260140000000  0.4648930000000 1.0
C      1  0.5408370000000  0.5249190000000  0.4870700000000 1.0
C      1  0.4427110000000  0.4975410000000  0.5568790000000 1.0
C      1  0.5055870000000  0.5523800000000  0.5108520000000 1.0
C      1  0.4691410000000  0.5031280000000  0.5480090000000 1.0
C      1  0.4778810000000  0.5128450000000  0.4355850000000 1.0
C      1  0.4763530000000  0.5004330000000  0.5204950000000 1.0
C      1  0.4067160000000  0.4849620000000  0.4788310000000 1.0
C      1  0.5795170000000  0.4843020000000  0.5283190000000 1.0
C      1  0.4731890000000  0.5222540000000  0.4877440000000 1.0
C      1  0.5283180000000  0.5453280000000  0.4658190000000 1.0
C      1  0.5178050000000  0.4144970000000  0.5061540000000 1.0
C      1  0.5162800000000  0.5002750000000  0.5224900000000 1.0
C      1  0.4888380000000  0.5041160000000  0.5700130000000 1.0
C      1  0.4768480000000  0.4867780000000  0.4134160000000 1.0
C      1  0.5080520000000  0.4626990000000  0.5125080000000 1.0
C      1  0.5175650000000  0.4611710000000  0.4494970000000 1.0
C      1  0.5338800000000  0.5267400000000  0.5645340000000 1.0
C      1  0.5521680000000  0.5399800000000  0.5119690000000 1.0
C      1  0.5234420000000  0.4988060000000  0.4896050000000 1.0
C      1  0.4752600000000  0.5668580000000  0.5168760000000 1.0
C      1  0.5533900000000  0.4469810000000  0.5121800000000 1.0
C      1  0.5432000000000  0.5278690000000  0.4111720000000 1.0
C      1  0.4432770000000  0.5480060000000  0.4819440000000 1.0
C      1  0.4838910000000  0.5670510000000  0.5482920000000 1.0
C      1  0.4921100000000  0.4862880000000  0.4938520000000 1.0
C      1  0.5598480000000  0.4758330000000  0.4741770000000 1.0
C      1  0.5605630000000  0.4637030000000  0.5340360000000 1.0
C      1  0.4438730000000  0.4727250000000  0.5707900000000 1.0
C      1  0.4694200000000  0.4590870000000  0.5721210000000 1.0
C      1  0.4972000000000  0.5236680000000  0.5086980000000 1.0
C      1  0.4504620000000  0.5203240000000  0.4635540000000 1.0
C      1  0.4714090000000  0.4331820000000  0.5792160000000 1.0
C      1  0.5199670000000  0.5210450000000  0.4227260000000 1.0
C      1  0.5116350000000  0.4731140000000  0.5422980000000 1.0
C      1  0.4462170000000  0.5138180000000  0.5028650000000 1.0
C      1  0.4361240000000  0.5328490000000  0.5258110000000 1.0
C      1  0.4565200000000  0.5375820000000  0.4355670000000 1.0
C      1  0.4258810000000  0.4975190000000  0.4908090000000 1.0
C      1  0.4865550000000  0.4087640000000  0.4665780000000 1.0
C      1  0.5599780000000  0.5457260000000  0.4588600000000 1.0
C      1  0.5487010000000  0.4974480000000  0.5675460000000 1.0
C      1  0.4488110000000  0.5533300000000  0.5082990000000 1.0
C      1  0.5674840000000  0.4524610000000  0.4880720000000 1.0
C      1  0.4980590000000  0.5092640000000  0.4089890000000 1.0
C      1  0.4906840000000  0.5838810000000  0.4920350000000 1.0
C      1  0.4695170000000  0.4740010000000  0.4395040000000 1.0
END
