TITL C-2847958-8115-606 0.00031792010846344 125000 -360.838224671027 0 0 66 (C1) n - 1
REM
REM in /home/bkarasulu/work/CARBON/AIRSS/Generating-Clusters/AIREBO/with-SteepDescent/Only-C1/SD-CG-opt/Try1-1.4A-POS3A/HFTN-CG
REM
REM
REM
REM
REM
REM ./C.cell (11c1c37f851c82e70ff6c80c92926a4b)
REM
REM compiler GCC version 9.2.1 20190827 (Red Hat 9.2.1-1)
REM options -cpp -mtune=generic -march=x86-64 -g -O0 -fpre-include=/usr/include/finclude/math-vector-fortran.h
REM seed -977686762 1157517130 2106945958 -229584136 -1724360896 483561389 176864454 -329379994 -1883651580 -1977704629 -496551558 -915185480 726542497 -1088419387 2030770438 182082581 8347347 -1097006515 -1212022427 -1061134531 -1710808038 231036407 17470624 489176653 -1199413969 -6360185 1082179459 435338700 -1913289710 1529499446 1432748332 1678947280 -2144560342
REM
CELL 1.54180   50.00000   50.00000   50.00000   90.00000   90.00000   90.00000
LATT -1
SFAC C  
C      1  0.4342970000000  0.4752160000000  0.5316240000000 1.0
C      1  0.5022120000000  0.5395400000000  0.4440480000000 1.0
C      1  0.4521050000000  0.4468090000000  0.4932010000000 1.0
C      1  0.5051500000000  0.4464940000000  0.4845030000000 1.0
C      1  0.4446680000000  0.4445180000000  0.5262430000000 1.0
C      1  0.4836340000000  0.4868000000000  0.4644720000000 1.0
C      1  0.5629420000000  0.4431210000000  0.4854020000000 1.0
C      1  0.5124060000000  0.4943770000000  0.4809750000000 1.0
C      1  0.4827040000000  0.4606110000000  0.4986550000000 1.0
C      1  0.5796820000000  0.4876470000000  0.4795440000000 1.0
C      1  0.5103420000000  0.5111760000000  0.5666510000000 1.0
C      1  0.5413310000000  0.4854110000000  0.5325510000000 1.0
C      1  0.5318740000000  0.5325200000000  0.4350620000000 1.0
C      1  0.5295790000000  0.5559920000000  0.5148020000000 1.0
C      1  0.5628230000000  0.4674760000000  0.4720120000000 1.0
C      1  0.4955850000000  0.4747740000000  0.4349960000000 1.0
C      1  0.5097890000000  0.5273140000000  0.4729590000000 1.0
C      1  0.4627710000000  0.4611410000000  0.4641010000000 1.0
C      1  0.4832270000000  0.5056550000000  0.5519070000000 1.0
C      1  0.5636700000000  0.5134290000000  0.4842710000000 1.0
C      1  0.5198070000000  0.5566970000000  0.4835630000000 1.0
C      1  0.5118760000000  0.4589330000000  0.4602970000000 1.0
C      1  0.5042850000000  0.4293640000000  0.5343360000000 1.0
C      1  0.4619930000000  0.5668710000000  0.4845390000000 1.0
C      1  0.5296040000000  0.4906790000000  0.5640560000000 1.0
C      1  0.4770770000000  0.5544460000000  0.5123630000000 1.0
C      1  0.4877040000000  0.4907540000000  0.5040620000000 1.0
C      1  0.4638250000000  0.5072680000000  0.4976120000000 1.0
C      1  0.4922440000000  0.5759250000000  0.4822380000000 1.0
C      1  0.4962980000000  0.5300010000000  0.5018160000000 1.0
C      1  0.4921600000000  0.4556990000000  0.5527270000000 1.0
C      1  0.4542980000000  0.5044760000000  0.4681590000000 1.0
C      1  0.5468130000000  0.4392880000000  0.5078040000000 1.0
C      1  0.5363550000000  0.4784370000000  0.4628370000000 1.0
C      1  0.4243460000000  0.5207730000000  0.5236460000000 1.0
C      1  0.4291180000000  0.4913760000000  0.4853370000000 1.0
C      1  0.4802750000000  0.5012660000000  0.4234820000000 1.0
C      1  0.4221790000000  0.4943100000000  0.5125230000000 1.0
C      1  0.4562040000000  0.5291070000000  0.4519050000000 1.0
C      1  0.5372190000000  0.5019250000000  0.5030410000000 1.0
C      1  0.5567030000000  0.5250970000000  0.4573760000000 1.0
C      1  0.5637440000000  0.5063570000000  0.5448840000000 1.0
C      1  0.5260270000000  0.4801980000000  0.4242500000000 1.0
C      1  0.5493960000000  0.4532380000000  0.5322850000000 1.0
C      1  0.4325570000000  0.4650410000000  0.4747850000000 1.0
C      1  0.5403960000000  0.5540810000000  0.4603260000000 1.0
C      1  0.5505800000000  0.5328930000000  0.5070650000000 1.0
C      1  0.5057370000000  0.5087350000000  0.5266110000000 1.0
C      1  0.5196260000000  0.4321450000000  0.5040410000000 1.0
C      1  0.5392780000000  0.5012090000000  0.4407540000000 1.0
C      1  0.4497760000000  0.5530690000000  0.4650400000000 1.0
C      1  0.5529590000000  0.5286810000000  0.5506870000000 1.0
C      1  0.4751410000000  0.5455490000000  0.5451280000000 1.0
C      1  0.5298660000000  0.4429810000000  0.5510510000000 1.0
C      1  0.4484140000000  0.5246500000000  0.5477400000000 1.0
C      1  0.4542140000000  0.5302620000000  0.5147110000000 1.0
C      1  0.5252520000000  0.5343400000000  0.5377820000000 1.0
C      1  0.5200740000000  0.4640350000000  0.5702580000000 1.0
C      1  0.5005400000000  0.5703770000000  0.4512940000000 1.0
C      1  0.4767730000000  0.4377730000000  0.5209660000000 1.0
C      1  0.5087910000000  0.4756050000000  0.5336890000000 1.0
C      1  0.5002760000000  0.5410860000000  0.5578510000000 1.0
C      1  0.4564280000000  0.4924300000000  0.5481870000000 1.0
C      1  0.4621200000000  0.4603590000000  0.5507800000000 1.0
C      1  0.4773850000000  0.5262700000000  0.4340130000000 1.0
C      1  0.5034750000000  0.5759200000000  0.5141240000000 1.0
END
