TITL C-2847949-8115-268 -0.000713314817897778 125000 -1020.09864418688 0 0 185 (C1) n - 1
REM
REM in /home/bkarasulu/work/CARBON/AIRSS/Generating-Clusters/AIREBO/with-SteepDescent/Only-C1/SD-CG-opt/Try1-1.4A-POS3A/HFTN-CG
REM
REM
REM
REM
REM
REM ./C.cell (11c1c37f851c82e70ff6c80c92926a4b)
REM
REM compiler GCC version 9.2.1 20190827 (Red Hat 9.2.1-1)
REM options -cpp -mtune=generic -march=x86-64 -g -O0 -fpre-include=/usr/include/finclude/math-vector-fortran.h
REM seed 1718139445 2005866203 -634838759 -1384011498 -568969530 753383384 -1505027650 538137407 -52504567 1146057808 -244840621 -1485659318 -288172497 -1589405986 84424364 560807312 -707788888 451387837 -332573532 1362839289 -224938450 2146082019 -166561057 -1063262670 -126434483 -745325517 464869101 -1560605831 -1919411197 1845042806 1645609134 -55304700 -923659863
REM
CELL 1.54180   50.00000   50.00000   50.00000   90.00000   90.00000   90.00000
LATT -1
SFAC C  
C      1  0.5955240000000  0.4818730000000  0.4802850000000 1.0
C      1  0.5801050000000  0.4304270000000  0.4845720000000 1.0
C      1  0.4754450000000  0.3952380000000  0.5090050000000 1.0
C      1  0.4387330000000  0.5529630000000  0.4483620000000 1.0
C      1  0.5266440000000  0.5608460000000  0.5256860000000 1.0
C      1  0.5502180000000  0.4577070000000  0.5086000000000 1.0
C      1  0.4887900000000  0.4714720000000  0.4191190000000 1.0
C      1  0.4262290000000  0.4587940000000  0.4354540000000 1.0
C      1  0.4774370000000  0.5181480000000  0.4450060000000 1.0
C      1  0.5050550000000  0.5927150000000  0.5422670000000 1.0
C      1  0.4880540000000  0.4213730000000  0.4223870000000 1.0
C      1  0.5562200000000  0.5502110000000  0.5184710000000 1.0
C      1  0.4856300000000  0.4421920000000  0.4742560000000 1.0
C      1  0.4840440000000  0.5330750000000  0.5751540000000 1.0
C      1  0.5228330000000  0.4001840000000  0.4896660000000 1.0
C      1  0.5583040000000  0.5347320000000  0.4415870000000 1.0
C      1  0.5009760000000  0.5049510000000  0.3920830000000 1.0
C      1  0.5347280000000  0.4513930000000  0.4789710000000 1.0
C      1  0.4625690000000  0.4268460000000  0.4348620000000 1.0
C      1  0.4574650000000  0.4710740000000  0.5425630000000 1.0
C      1  0.4473230000000  0.4086790000000  0.4954020000000 1.0
C      1  0.4942270000000  0.4415130000000  0.4043310000000 1.0
C      1  0.6188070000000  0.4807670000000  0.5055620000000 1.0
C      1  0.4555520000000  0.5478910000000  0.5014090000000 1.0
C      1  0.4209070000000  0.4385490000000  0.4949300000000 1.0
C      1  0.5065860000000  0.4999150000000  0.4246990000000 1.0
C      1  0.4785880000000  0.5714540000000  0.5442940000000 1.0
C      1  0.4611380000000  0.5714920000000  0.4138070000000 1.0
C      1  0.3990060000000  0.5265230000000  0.5425010000000 1.0
C      1  0.5464710000000  0.5257610000000  0.5667670000000 1.0
C      1  0.4115200000000  0.5350110000000  0.4428070000000 1.0
C      1  0.4023570000000  0.5068420000000  0.4410680000000 1.0
C      1  0.5164600000000  0.4631230000000  0.4367160000000 1.0
C      1  0.5208540000000  0.4830240000000  0.4990230000000 1.0
C      1  0.4601620000000  0.4972010000000  0.4637830000000 1.0
C      1  0.5464140000000  0.4578610000000  0.4277020000000 1.0
C      1  0.5399890000000  0.4748320000000  0.6046500000000 1.0
C      1  0.4105130000000  0.4723940000000  0.5860240000000 1.0
C      1  0.6123940000000  0.4733720000000  0.5605990000000 1.0
C      1  0.5827520000000  0.5047290000000  0.5908450000000 1.0
C      1  0.4927280000000  0.4948460000000  0.4734620000000 1.0
C      1  0.5657540000000  0.4817450000000  0.5452700000000 1.0
C      1  0.4528510000000  0.5785840000000  0.4402490000000 1.0
C      1  0.5577800000000  0.4099900000000  0.5214260000000 1.0
C      1  0.4645440000000  0.4557360000000  0.6015860000000 1.0
C      1  0.4456520000000  0.4392250000000  0.5440750000000 1.0
C      1  0.4497400000000  0.5651460000000  0.5611650000000 1.0
C      1  0.4574180000000  0.5368970000000  0.4630540000000 1.0
C      1  0.5218000000000  0.5355590000000  0.5468000000000 1.0
C      1  0.4190390000000  0.4552310000000  0.5579360000000 1.0
C      1  0.5095880000000  0.5181290000000  0.6032560000000 1.0
C      1  0.5324520000000  0.5344180000000  0.6089280000000 1.0
C      1  0.3954370000000  0.4539750000000  0.4881260000000 1.0
C      1  0.5059540000000  0.5743650000000  0.5069220000000 1.0
C      1  0.5998050000000  0.5304330000000  0.5310150000000 1.0
C      1  0.5848810000000  0.4568460000000  0.4676130000000 1.0
C      1  0.5530240000000  0.5590890000000  0.5684510000000 1.0
C      1  0.4353160000000  0.5409940000000  0.4187100000000 1.0
C      1  0.3930770000000  0.5018710000000  0.4941440000000 1.0
C      1  0.6024210000000  0.5009910000000  0.5440490000000 1.0
C      1  0.5779050000000  0.5297040000000  0.4882840000000 1.0
C      1  0.5064430000000  0.5490750000000  0.4487660000000 1.0
C      1  0.4267280000000  0.5885410000000  0.4987270000000 1.0
C      1  0.4693950000000  0.4249990000000  0.5243010000000 1.0
C      1  0.5544070000000  0.4008470000000  0.4924220000000 1.0
C      1  0.4761700000000  0.5726780000000  0.4906090000000 1.0
C      1  0.3922680000000  0.4999240000000  0.5528130000000 1.0
C      1  0.4244500000000  0.5204360000000  0.5643380000000 1.0
C      1  0.4989070000000  0.4492880000000  0.5662700000000 1.0
C      1  0.5503820000000  0.5206200000000  0.4091450000000 1.0
C      1  0.4642210000000  0.5913470000000  0.4645960000000 1.0
C      1  0.5452320000000  0.5195080000000  0.5098840000000 1.0
C      1  0.4510340000000  0.4592590000000  0.4680410000000 1.0
C      1  0.4966390000000  0.5322180000000  0.4209110000000 1.0
C      1  0.4667830000000  0.5388580000000  0.4059990000000 1.0
C      1  0.4750600000000  0.5203770000000  0.5482320000000 1.0
C      1  0.5787810000000  0.5158000000000  0.5617080000000 1.0
C      1  0.4356770000000  0.4315650000000  0.4436670000000 1.0
C      1  0.6029710000000  0.5350190000000  0.5026270000000 1.0
C      1  0.5753170000000  0.5592280000000  0.4547530000000 1.0
C      1  0.4090320000000  0.5445130000000  0.4753640000000 1.0
C      1  0.5231270000000  0.4966060000000  0.3778480000000 1.0
C      1  0.4681580000000  0.5029640000000  0.5190780000000 1.0
C      1  0.4624180000000  0.4920520000000  0.5852350000000 1.0
C      1  0.4951250000000  0.3873310000000  0.4864940000000 1.0
C      1  0.5702170000000  0.5000040000000  0.4857720000000 1.0
C      1  0.4938450000000  0.4057680000000  0.5356990000000 1.0
C      1  0.4336340000000  0.5398590000000  0.5230760000000 1.0
C      1  0.5546740000000  0.6153140000000  0.4735620000000 1.0
C      1  0.4715120000000  0.5183860000000  0.6031430000000 1.0
C      1  0.5008130000000  0.5412940000000  0.5005930000000 1.0
C      1  0.5745610000000  0.5447770000000  0.5463710000000 1.0
C      1  0.5637220000000  0.5605800000000  0.4867450000000 1.0
C      1  0.4873920000000  0.4670350000000  0.5435480000000 1.0
C      1  0.5587870000000  0.4729140000000  0.4044560000000 1.0
C      1  0.4190550000000  0.4890980000000  0.5113300000000 1.0
C      1  0.5296740000000  0.5735740000000  0.5558740000000 1.0
C      1  0.5373410000000  0.6139680000000  0.5009070000000 1.0
C      1  0.5332590000000  0.4841980000000  0.5477400000000 1.0
C      1  0.4985070000000  0.5075920000000  0.5044660000000 1.0
C      1  0.4132080000000  0.4886010000000  0.4238530000000 1.0
C      1  0.4284550000000  0.4218710000000  0.5204250000000 1.0
C      1  0.4650700000000  0.5890340000000  0.5182790000000 1.0
C      1  0.5201540000000  0.5001570000000  0.4538430000000 1.0
C      1  0.4869780000000  0.6110970000000  0.4904350000000 1.0
C      1  0.4703790000000  0.4151980000000  0.4722820000000 1.0
C      1  0.5926260000000  0.4736450000000  0.5260560000000 1.0
C      1  0.3923260000000  0.4954520000000  0.4637110000000 1.0
C      1  0.3932750000000  0.5318300000000  0.4952620000000 1.0
C      1  0.5470300000000  0.3998250000000  0.5520400000000 1.0
C      1  0.5502310000000  0.4334580000000  0.5558880000000 1.0
C      1  0.4953840000000  0.5998970000000  0.4622910000000 1.0
C      1  0.5356950000000  0.5662150000000  0.4697950000000 1.0
C      1  0.4802020000000  0.4463420000000  0.5049150000000 1.0
C      1  0.4402600000000  0.5792160000000  0.5365230000000 1.0
C      1  0.4925990000000  0.4634400000000  0.5917220000000 1.0
C      1  0.4500810000000  0.5002900000000  0.5546370000000 1.0
C      1  0.5283090000000  0.4996360000000  0.5756460000000 1.0
C      1  0.5338490000000  0.4225040000000  0.4663720000000 1.0
C      1  0.5506190000000  0.5779070000000  0.4415690000000 1.0
C      1  0.5576250000000  0.4880140000000  0.5131500000000 1.0
C      1  0.5243850000000  0.4097250000000  0.5286870000000 1.0
C      1  0.5138740000000  0.4765920000000  0.6116590000000 1.0
C      1  0.4592980000000  0.4222680000000  0.5696950000000 1.0
C      1  0.5457870000000  0.4954280000000  0.3939020000000 1.0
C      1  0.5232310000000  0.4484550000000  0.5189110000000 1.0
C      1  0.4533680000000  0.6060740000000  0.4932000000000 1.0
C      1  0.4880740000000  0.3957640000000  0.4581490000000 1.0
C      1  0.5113580000000  0.4126890000000  0.4428360000000 1.0
C      1  0.5935420000000  0.4467440000000  0.5052700000000 1.0
C      1  0.4415240000000  0.4655840000000  0.5817660000000 1.0
C      1  0.4918820000000  0.4979680000000  0.6211760000000 1.0
C      1  0.6062450000000  0.5603030000000  0.4615940000000 1.0
C      1  0.4380660000000  0.5456360000000  0.5772570000000 1.0
C      1  0.4864040000000  0.5468810000000  0.4711570000000 1.0
C      1  0.3941490000000  0.5430920000000  0.5209950000000 1.0
C      1  0.5791150000000  0.5182550000000  0.4230170000000 1.0
C      1  0.4738190000000  0.4562790000000  0.4456500000000 1.0
C      1  0.4634510000000  0.4702730000000  0.5109680000000 1.0
C      1  0.4354240000000  0.5096480000000  0.5254200000000 1.0
C      1  0.4288700000000  0.5608020000000  0.4862250000000 1.0
C      1  0.5870810000000  0.4756780000000  0.4052300000000 1.0
C      1  0.5740710000000  0.5787690000000  0.5219700000000 1.0
C      1  0.6214610000000  0.5035060000000  0.4842070000000 1.0
C      1  0.6178220000000  0.5526930000000  0.4857550000000 1.0
C      1  0.5427400000000  0.4839940000000  0.4735080000000 1.0
C      1  0.5706450000000  0.4404570000000  0.5296100000000 1.0
C      1  0.4631340000000  0.4858380000000  0.4045190000000 1.0
C      1  0.5226970000000  0.4173110000000  0.5681100000000 1.0
C      1  0.5971210000000  0.4496920000000  0.5497720000000 1.0
C      1  0.3997070000000  0.4671990000000  0.4641390000000 1.0
C      1  0.4300650000000  0.4214590000000  0.4690140000000 1.0
C      1  0.4017730000000  0.4751870000000  0.5364690000000 1.0
C      1  0.4489230000000  0.5404880000000  0.6018090000000 1.0
C      1  0.5547920000000  0.6082380000000  0.4477100000000 1.0
C      1  0.5276400000000  0.5418310000000  0.4105840000000 1.0
C      1  0.4905220000000  0.4185210000000  0.5649710000000 1.0
C      1  0.5040660000000  0.4727360000000  0.5230800000000 1.0
C      1  0.5106990000000  0.6055760000000  0.5115230000000 1.0
C      1  0.5363670000000  0.4270290000000  0.4267550000000 1.0
C      1  0.4141140000000  0.5677080000000  0.5226810000000 1.0
C      1  0.4606720000000  0.5175390000000  0.4894620000000 1.0
C      1  0.5967770000000  0.4998750000000  0.4150550000000 1.0
C      1  0.5310830000000  0.5291650000000  0.4560000000000 1.0
C      1  0.5616900000000  0.4648970000000  0.4527170000000 1.0
C      1  0.4387730000000  0.4766250000000  0.4101560000000 1.0
C      1  0.5639060000000  0.5933410000000  0.4958700000000 1.0
C      1  0.5587970000000  0.4854430000000  0.5783730000000 1.0
C      1  0.4784580000000  0.5433990000000  0.5261340000000 1.0
C      1  0.5012210000000  0.5564220000000  0.5640470000000 1.0
C      1  0.5254370000000  0.4536910000000  0.5508630000000 1.0
C      1  0.5659970000000  0.4129770000000  0.4649160000000 1.0
C      1  0.4728270000000  0.5100520000000  0.3930770000000 1.0
C      1  0.5308750000000  0.5379250000000  0.4878510000000 1.0
C      1  0.4298580000000  0.4823030000000  0.4596710000000 1.0
C      1  0.3838180000000  0.4716990000000  0.5081880000000 1.0
C      1  0.5212910000000  0.5085190000000  0.5297090000000 1.0
C      1  0.5489160000000  0.5506060000000  0.5988190000000 1.0
C      1  0.5122870000000  0.5805600000000  0.4521830000000 1.0
C      1  0.4961030000000  0.4956820000000  0.5815160000000 1.0
C      1  0.5069410000000  0.4646810000000  0.4664100000000 1.0
C      1  0.5367390000000  0.5676240000000  0.4156530000000 1.0
C      1  0.5075260000000  0.4261000000000  0.5041150000000 1.0
C      1  0.4356270000000  0.4679220000000  0.4965000000000 1.0
C      1  0.4028110000000  0.4986160000000  0.5801640000000 1.0
END
