TITL C-2848499-1157-699 151.506840188295 125000 -842.195644764215 0 0 155 (C1) n - 1
REM
REM in /home/bkarasulu/work/CARBON/AIRSS/Generating-Clusters/AIREBO/with-SteepDescent/Only-C1/SD-CG-opt/Try1-1.4A-POS3A/HFTN-CG
REM
REM
REM
REM
REM
REM ./C.cell (11c1c37f851c82e70ff6c80c92926a4b)
REM
REM compiler GCC version 9.2.1 20190827 (Red Hat 9.2.1-1)
REM options -cpp -mtune=generic -march=x86-64 -g -O0 -fpre-include=/usr/include/finclude/math-vector-fortran.h
REM seed -253217135 -1792012296 1827114992 894720348 -302131278 -936144539 1862502930 831613471 -1487017648 -745801887 -678279860 -288460702 -907791660 -1217212105 -552984898 -314584491 -559926029 -1187747687 -2115641956 703706298 221983459 1902406474 -600405211 865430163 -64411792 -1970137080 -1506440525 270118995 -1797082929 -63021432 -853197924 997514107 2004083062
REM
CELL 1.54180   50.00000   50.00000   50.00000   90.00000   90.00000   90.00000
LATT -1
SFAC C  
C      1  0.5945280000000  0.4757240000000  0.4782460000000 1.0
C      1  0.4040520000000  0.4473440000000  0.5064490000000 1.0
C      1  0.5046430000000  0.4754140000000  0.4255970000000 1.0
C      1  0.5112660000000  0.5370010000000  0.4706410000000 1.0
C      1  0.4343890000000  0.5852780000000  0.4934880000000 1.0
C      1  0.4988620000000  0.4093180000000  0.5710340000000 1.0
C      1  0.4557070000000  0.5703610000000  0.5614180000000 1.0
C      1  0.4629680000000  0.5290130000000  0.5846610000000 1.0
C      1  0.5871340000000  0.5184300000000  0.4836950000000 1.0
C      1  0.4595530000000  0.5258330000000  0.5376280000000 1.0
C      1  0.4051650000000  0.4894220000000  0.5122910000000 1.0
C      1  0.4731920000000  0.5555260000000  0.5785130000000 1.0
C      1  0.5757170000000  0.4592870000000  0.4125390000000 1.0
C      1  0.4017320000000  0.5276490000000  0.4934600000000 1.0
C      1  0.4542540000000  0.5053870000000  0.5161130000000 1.0
C      1  0.4949210000000  0.6045960000000  0.5332190000000 1.0
C      1  0.5467860000000  0.5839490000000  0.5141940000000 1.0
C      1  0.4408150000000  0.4330320000000  0.4538900000000 1.0
C      1  0.4678890000000  0.5638850000000  0.4929410000000 1.0
C      1  0.4279760000000  0.5064780000000  0.4978400000000 1.0
C      1  0.5693730000000  0.4807570000000  0.5310240000000 1.0
C      1  0.5767650000000  0.4860650000000  0.4237320000000 1.0
C      1  0.4209730000000  0.4520850000000  0.4453850000000 1.0
C      1  0.5671160000000  0.4520150000000  0.4422940000000 1.0
C      1  0.5573800000000  0.4296940000000  0.5671390000000 1.0
C      1  0.4920930000000  0.5163880000000  0.5405220000000 1.0
C      1  0.5112310000000  0.4204210000000  0.4567390000000 1.0
C      1  0.5921440000000  0.4872000000000  0.4463700000000 1.0
C      1  0.5930080000000  0.4929190000000  0.5478920000000 1.0
C      1  0.5334880000000  0.5425600000000  0.5439910000000 1.0
C      1  0.5339440000000  0.4889950000000  0.5455640000000 1.0
C      1  0.5127190000000  0.5422540000000  0.5042040000000 1.0
C      1  0.5168020000000  0.5097510000000  0.5608190000000 1.0
C      1  0.5140440000000  0.4636420000000  0.5994940000000 1.0
C      1  0.5212620000000  0.4367200000000  0.4852170000000 1.0
C      1  0.5701230000000  0.5313760000000  0.5203290000000 1.0
C      1  0.5252200000000  0.5128650000000  0.4023610000000 1.0
C      1  0.4421670000000  0.4828670000000  0.4778980000000 1.0
C      1  0.4666090000000  0.5954450000000  0.5455420000000 1.0
C      1  0.4736210000000  0.4212720000000  0.5584820000000 1.0
C      1  0.5334130000000  0.4065410000000  0.4951400000000 1.0
C      1  0.4429750000000  0.5219990000000  0.5655410000000 1.0
C      1  0.4127760000000  0.4745170000000  0.5598560000000 1.0
C      1  0.4750680000000  0.5280820000000  0.3871650000000 1.0
C      1  0.4277370000000  0.5406230000000  0.5184600000000 1.0
C      1  0.4918210000000  0.4276870000000  0.4996280000000 1.0
C      1  0.4884960000000  0.4031740000000  0.5206730000000 1.0
C      1  0.5385430000000  0.4855070000000  0.4473350000000 1.0
C      1  0.4955780000000  0.4853630000000  0.4543730000000 1.0
C      1  0.4125660000000  0.5418070000000  0.4645850000000 1.0
C      1  0.5569920000000  0.4496760000000  0.5371570000000 1.0
C      1  0.4765240000000  0.5699900000000  0.5252920000000 1.0
C      1  0.5248080000000  0.4189740000000  0.5678940000000 1.0
C      1  0.5248930000000  0.5122240000000  0.4586200000000 1.0
C      1  0.5431490000000  0.4312540000000  0.4522870000000 1.0
C      1  0.6043040000000  0.4626710000000  0.5366070000000 1.0
C      1  0.4575730000000  0.4467100000000  0.5239390000000 1.0
C      1  0.5525600000000  0.4269120000000  0.5122820000000 1.0
C      1  0.5460680000000  0.5051180000000  0.5870460000000 1.0
C      1  0.5480650000000  0.4556150000000  0.4942010000000 1.0
C      1  0.4829280000000  0.4102410000000  0.4726110000000 1.0
C      1  0.5593120000000  0.5519810000000  0.5640080000000 1.0
C      1  0.4501460000000  0.5001640000000  0.4408930000000 1.0
C      1  0.4817600000000  0.4364480000000  0.4137540000000 1.0
C      1  0.4543210000000  0.4787680000000  0.5293790000000 1.0
C      1  0.4007320000000  0.4843240000000  0.4789280000000 1.0
C      1  0.4668980000000  0.5851620000000  0.4410820000000 1.0
C      1  0.5680120000000  0.5654260000000  0.4860330000000 1.0
C      1  0.4995840000000  0.5568590000000  0.5689710000000 1.0
C      1  0.4449240000000  0.4375540000000  0.4937190000000 1.0
C      1  0.5930590000000  0.5113970000000  0.5225900000000 1.0
C      1  0.4542960000000  0.4417720000000  0.5736720000000 1.0
C      1  0.5006340000000  0.5323510000000  0.4030790000000 1.0
C      1  0.4182780000000  0.5604270000000  0.4924840000000 1.0
C      1  0.5249920000000  0.5937800000000  0.4727670000000 1.0
C      1  0.4894470000000  0.4542030000000  0.6019550000000 1.0
C      1  0.5236120000000  0.4441920000000  0.5334960000000 1.0
C      1  0.5232510000000  0.4573690000000  0.4473340000000 1.0
C      1  0.4528620000000  0.5628940000000  0.4215930000000 1.0
C      1  0.5147660000000  0.4922910000000  0.5905220000000 1.0
C      1  0.4639800000000  0.4450380000000  0.6028350000000 1.0
C      1  0.5350890000000  0.5054500000000  0.4966550000000 1.0
C      1  0.4857760000000  0.5159000000000  0.4628120000000 1.0
C      1  0.4990580000000  0.5711590000000  0.4926110000000 1.0
C      1  0.5575150000000  0.5699760000000  0.4601000000000 1.0
C      1  0.5607000000000  0.5065620000000  0.4743060000000 1.0
C      1  0.4337130000000  0.5282860000000  0.4169370000000 1.0
C      1  0.5042780000000  0.4926530000000  0.4005700000000 1.0
C      1  0.5922400000000  0.5446700000000  0.4898310000000 1.0
C      1  0.5538270000000  0.5222060000000  0.4450500000000 1.0
C      1  0.5620470000000  0.4730610000000  0.4685320000000 1.0
C      1  0.5009810000000  0.5489410000000  0.5362620000000 1.0
C      1  0.4440830000000  0.5542600000000  0.5423020000000 1.0
C      1  0.4986300000000  0.5267030000000  0.6023070000000 1.0
C      1  0.5479130000000  0.4682490000000  0.5641600000000 1.0
C      1  0.4763750000000  0.4889330000000  0.5530270000000 1.0
C      1  0.4754620000000  0.5153190000000  0.4924460000000 1.0
C      1  0.4516160000000  0.5384970000000  0.4943250000000 1.0
C      1  0.5490560000000  0.5025040000000  0.4198230000000 1.0
C      1  0.5820560000000  0.5630300000000  0.5169050000000 1.0
C      1  0.5325150000000  0.5766410000000  0.5497270000000 1.0
C      1  0.5410610000000  0.5168710000000  0.5275080000000 1.0
C      1  0.5278680000000  0.5643610000000  0.4261270000000 1.0
C      1  0.4176210000000  0.5027210000000  0.4313050000000 1.0
C      1  0.5037980000000  0.5098170000000  0.5092700000000 1.0
C      1  0.5096090000000  0.4674120000000  0.4763500000000 1.0
C      1  0.5455400000000  0.5507780000000  0.5069360000000 1.0
C      1  0.5302930000000  0.5604480000000  0.5795410000000 1.0
C      1  0.4791660000000  0.4633010000000  0.4100170000000 1.0
C      1  0.4050220000000  0.5089810000000  0.4593410000000 1.0
C      1  0.5546250000000  0.5507200000000  0.4366400000000 1.0
C      1  0.4935220000000  0.5866820000000  0.4628490000000 1.0
C      1  0.4234410000000  0.4661340000000  0.5225890000000 1.0
C      1  0.5399910000000  0.6000390000000  0.4938500000000 1.0
C      1  0.4206770000000  0.5214080000000  0.5457960000000 1.0
C      1  0.5332720000000  0.4475040000000  0.5831950000000 1.0
C      1  0.4361040000000  0.5462380000000  0.4444120000000 1.0
C      1  0.4073970000000  0.4964170000000  0.5430940000000 1.0
C      1  0.4659210000000  0.5302860000000  0.4403550000000 1.0
C      1  0.4781950000000  0.4993120000000  0.3928820000000 1.0
C      1  0.4950970000000  0.4773090000000  0.5034470000000 1.0
C      1  0.5180990000000  0.4117150000000  0.5250530000000 1.0
C      1  0.4918340000000  0.5422800000000  0.4279980000000 1.0
C      1  0.5868790000000  0.4469040000000  0.4908960000000 1.0
C      1  0.4428730000000  0.5166530000000  0.4697300000000 1.0
C      1  0.4963880000000  0.5718080000000  0.4337700000000 1.0
C      1  0.4274510000000  0.4712390000000  0.4253980000000 1.0
C      1  0.4913420000000  0.4508650000000  0.5245230000000 1.0
C      1  0.4539660000000  0.4124490000000  0.4726290000000 1.0
C      1  0.4632850000000  0.4070620000000  0.5333870000000 1.0
C      1  0.4657720000000  0.4776220000000  0.4573970000000 1.0
C      1  0.5774780000000  0.5341570000000  0.5770740000000 1.0
C      1  0.4684130000000  0.4462360000000  0.4570670000000 1.0
C      1  0.6024590000000  0.4979370000000  0.4977570000000 1.0
C      1  0.4877850000000  0.4317130000000  0.4396440000000 1.0
C      1  0.5653620000000  0.5751630000000  0.5409490000000 1.0
C      1  0.4521100000000  0.5426820000000  0.3969240000000 1.0
C      1  0.5805090000000  0.5050910000000  0.5732510000000 1.0
C      1  0.4357530000000  0.4509700000000  0.5504140000000 1.0
C      1  0.4421700000000  0.4112300000000  0.5150980000000 1.0
C      1  0.4836850000000  0.5037730000000  0.5821340000000 1.0
C      1  0.4549460000000  0.4853420000000  0.4106680000000 1.0
C      1  0.5426290000000  0.4794250000000  0.5137910000000 1.0
C      1  0.4214680000000  0.4573510000000  0.4790100000000 1.0
C      1  0.5736500000000  0.4332000000000  0.4681640000000 1.0
C      1  0.5864030000000  0.4465900000000  0.5203330000000 1.0
C      1  0.4790300000000  0.4566520000000  0.5556960000000 1.0
C      1  0.5246940000000  0.5622480000000  0.4600540000000 1.0
C      1  0.5241840000000  0.5307430000000  0.5865290000000 1.0
C      1  0.5460310000000  0.4116570000000  0.5422740000000 1.0
C      1  0.4487970000000  0.5891730000000  0.5172660000000 1.0
C      1  0.5050410000000  0.5949290000000  0.5125500000000 1.0
C      1  0.4543890000000  0.5848640000000  0.4705730000000 1.0
C      1  0.5665240000000  0.4809930000000  0.5866540000000 1.0
C      1  0.4741100000000  0.4542390000000  0.4885090000000 1.0
END
