TITL C-2847959-7740-379 0.000739167839540669 125000 -968.648812605328 0 0 178 (C1) n - 1
REM
REM in /home/bkarasulu/work/CARBON/AIRSS/Generating-Clusters/AIREBO/with-SteepDescent/Only-C1/SD-CG-opt/Try1-1.4A-POS3A/HFTN-CG
REM
REM
REM
REM
REM
REM ./C.cell (11c1c37f851c82e70ff6c80c92926a4b)
REM
REM compiler GCC version 9.2.1 20190827 (Red Hat 9.2.1-1)
REM options -cpp -mtune=generic -march=x86-64 -g -O0 -fpre-include=/usr/include/finclude/math-vector-fortran.h
REM seed 1645504074 -1497929020 -2090320677 -1281175801 -1538870987 -846721032 -270724197 527196880 635433813 1326545459 1913416077 1571408068 -1111905495 692132611 -1085383173 -415764994 26019119 -1898960356 -1934947186 1579668927 986326887 1773551069 -667317366 -1660756856 -689714748 -413391623 947672583 1196849690 -709131456 1701082079 2127270846 1914855742 -748428311
REM
CELL 1.54180   50.00000   50.00000   50.00000   90.00000   90.00000   90.00000
LATT -1
SFAC C  
C      1  0.5302440000000  0.4794090000000  0.6193020000000 1.0
C      1  0.4899230000000  0.5467860000000  0.4560610000000 1.0
C      1  0.4752990000000  0.4652640000000  0.3856780000000 1.0
C      1  0.4324680000000  0.4254560000000  0.5585440000000 1.0
C      1  0.5382550000000  0.4387040000000  0.4918770000000 1.0
C      1  0.5529380000000  0.5815440000000  0.4664190000000 1.0
C      1  0.5799740000000  0.5009000000000  0.5106000000000 1.0
C      1  0.4871360000000  0.5314270000000  0.5578330000000 1.0
C      1  0.4896960000000  0.4969580000000  0.4351530000000 1.0
C      1  0.5542970000000  0.4937720000000  0.3943740000000 1.0
C      1  0.5410370000000  0.4782180000000  0.4916710000000 1.0
C      1  0.4252640000000  0.5409060000000  0.5043080000000 1.0
C      1  0.4174580000000  0.4273930000000  0.4891260000000 1.0
C      1  0.5348840000000  0.5198850000000  0.3931530000000 1.0
C      1  0.4876200000000  0.5953480000000  0.4866600000000 1.0
C      1  0.5284940000000  0.5232090000000  0.5212340000000 1.0
C      1  0.4589320000000  0.4562760000000  0.4108900000000 1.0
C      1  0.5119940000000  0.4416880000000  0.4256470000000 1.0
C      1  0.4651710000000  0.5299030000000  0.4658190000000 1.0
C      1  0.5115640000000  0.4958190000000  0.5321600000000 1.0
C      1  0.4522310000000  0.4075880000000  0.5508200000000 1.0
C      1  0.5123910000000  0.5840930000000  0.5154820000000 1.0
C      1  0.4101150000000  0.5338240000000  0.4303330000000 1.0
C      1  0.4957170000000  0.5634900000000  0.4803730000000 1.0
C      1  0.5784760000000  0.5098480000000  0.5906620000000 1.0
C      1  0.6095920000000  0.5382660000000  0.4947330000000 1.0
C      1  0.5293950000000  0.5582930000000  0.5012200000000 1.0
C      1  0.5243830000000  0.5469130000000  0.5453150000000 1.0
C      1  0.5224790000000  0.4164970000000  0.4547430000000 1.0
C      1  0.6132760000000  0.5227220000000  0.4456530000000 1.0
C      1  0.6095470000000  0.5122790000000  0.4747110000000 1.0
C      1  0.5300980000000  0.5355680000000  0.5968000000000 1.0
C      1  0.5428900000000  0.4802350000000  0.5879090000000 1.0
C      1  0.4668890000000  0.5329790000000  0.5305130000000 1.0
C      1  0.4436910000000  0.5638920000000  0.4923920000000 1.0
C      1  0.5453400000000  0.4139000000000  0.5248150000000 1.0
C      1  0.4256600000000  0.5418370000000  0.5349400000000 1.0
C      1  0.4146970000000  0.5541170000000  0.4497030000000 1.0
C      1  0.5638630000000  0.4625770000000  0.4253480000000 1.0
C      1  0.4778550000000  0.5670490000000  0.5802870000000 1.0
C      1  0.5169880000000  0.6119200000000  0.4911430000000 1.0
C      1  0.4722080000000  0.4273340000000  0.5224510000000 1.0
C      1  0.5036600000000  0.4608170000000  0.6130030000000 1.0
C      1  0.5806430000000  0.5323360000000  0.5120680000000 1.0
C      1  0.4579470000000  0.4812270000000  0.4527160000000 1.0
C      1  0.4547300000000  0.3981630000000  0.5214730000000 1.0
C      1  0.5792750000000  0.4903880000000  0.4139620000000 1.0
C      1  0.4990050000000  0.5315190000000  0.6119480000000 1.0
C      1  0.5515610000000  0.5092000000000  0.4823490000000 1.0
C      1  0.4915310000000  0.4551220000000  0.5257180000000 1.0
C      1  0.5631170000000  0.4346160000000  0.5268920000000 1.0
C      1  0.5018200000000  0.5429970000000  0.5139370000000 1.0
C      1  0.4007880000000  0.5351410000000  0.5493630000000 1.0
C      1  0.5202450000000  0.5173710000000  0.4887510000000 1.0
C      1  0.4899850000000  0.4403600000000  0.5911640000000 1.0
C      1  0.5346870000000  0.4709320000000  0.4511100000000 1.0
C      1  0.5543040000000  0.5275780000000  0.5788200000000 1.0
C      1  0.4493400000000  0.4523230000000  0.5192600000000 1.0
C      1  0.4493610000000  0.5388020000000  0.4370790000000 1.0
C      1  0.4791720000000  0.4779480000000  0.5977950000000 1.0
C      1  0.5960680000000  0.5030060000000  0.5528970000000 1.0
C      1  0.5287000000000  0.4503400000000  0.5396330000000 1.0
C      1  0.4564650000000  0.4567840000000  0.5522400000000 1.0
C      1  0.4485020000000  0.4367930000000  0.4331930000000 1.0
C      1  0.5810910000000  0.5440320000000  0.5702630000000 1.0
C      1  0.4066560000000  0.5067570000000  0.4384450000000 1.0
C      1  0.5908680000000  0.5163720000000  0.4293230000000 1.0
C      1  0.3987550000000  0.5330130000000  0.4905220000000 1.0
C      1  0.4392080000000  0.5689700000000  0.5453480000000 1.0
C      1  0.5819080000000  0.4817210000000  0.4468910000000 1.0
C      1  0.5065790000000  0.3956550000000  0.4761570000000 1.0
C      1  0.5716480000000  0.4838520000000  0.5838460000000 1.0
C      1  0.6160170000000  0.5490680000000  0.4631520000000 1.0
C      1  0.4192610000000  0.4685850000000  0.4708600000000 1.0
C      1  0.4859590000000  0.4138960000000  0.5505030000000 1.0
C      1  0.3788990000000  0.4559020000000  0.4947430000000 1.0
C      1  0.4705440000000  0.5789160000000  0.5500750000000 1.0
C      1  0.4937510000000  0.5599340000000  0.5418350000000 1.0
C      1  0.5746930000000  0.5643710000000  0.4845480000000 1.0
C      1  0.4047120000000  0.5106020000000  0.5672300000000 1.0
C      1  0.4263570000000  0.5940130000000  0.4949290000000 1.0
C      1  0.4168580000000  0.4555230000000  0.5553570000000 1.0
C      1  0.5491180000000  0.5428880000000  0.4781780000000 1.0
C      1  0.4178780000000  0.4892090000000  0.5472400000000 1.0
C      1  0.5834460000000  0.5721630000000  0.5117180000000 1.0
C      1  0.5868740000000  0.4322980000000  0.4631180000000 1.0
C      1  0.5957650000000  0.5307710000000  0.5508980000000 1.0
C      1  0.5358840000000  0.5687620000000  0.5759320000000 1.0
C      1  0.5368990000000  0.4318680000000  0.5670570000000 1.0
C      1  0.5357600000000  0.5508590000000  0.4485770000000 1.0
C      1  0.3949630000000  0.5527470000000  0.4703680000000 1.0
C      1  0.4213090000000  0.4351180000000  0.4343770000000 1.0
C      1  0.5487910000000  0.5677570000000  0.5452870000000 1.0
C      1  0.5917470000000  0.4525670000000  0.4884900000000 1.0
C      1  0.4457060000000  0.5650100000000  0.4584510000000 1.0
C      1  0.5451200000000  0.5131840000000  0.5493620000000 1.0
C      1  0.5102220000000  0.5119250000000  0.5881550000000 1.0
C      1  0.5281110000000  0.4515720000000  0.5913060000000 1.0
C      1  0.4462400000000  0.5071470000000  0.4398510000000 1.0
C      1  0.6009930000000  0.4785540000000  0.5061620000000 1.0
C      1  0.3916180000000  0.4790520000000  0.4839760000000 1.0
C      1  0.5180140000000  0.3842020000000  0.4479700000000 1.0
C      1  0.3923010000000  0.5065170000000  0.4953870000000 1.0
C      1  0.4296360000000  0.5310760000000  0.5766680000000 1.0
C      1  0.4785660000000  0.5033650000000  0.4784790000000 1.0
C      1  0.5617560000000  0.5856510000000  0.5243920000000 1.0
C      1  0.4769950000000  0.4653110000000  0.4356500000000 1.0
C      1  0.4742510000000  0.5420770000000  0.6000300000000 1.0
C      1  0.4301560000000  0.4977470000000  0.5857620000000 1.0
C      1  0.4628730000000  0.5151700000000  0.5027800000000 1.0
C      1  0.5145370000000  0.4197210000000  0.5353450000000 1.0
C      1  0.4845660000000  0.5529090000000  0.4247140000000 1.0
C      1  0.5064440000000  0.5519440000000  0.5786770000000 1.0
C      1  0.6053940000000  0.5505420000000  0.5261430000000 1.0
C      1  0.5121640000000  0.4362030000000  0.5064160000000 1.0
C      1  0.4628360000000  0.4372880000000  0.4609600000000 1.0
C      1  0.5822870000000  0.4979000000000  0.4767970000000 1.0
C      1  0.5168750000000  0.4079900000000  0.4235080000000 1.0
C      1  0.5202280000000  0.5685190000000  0.4258940000000 1.0
C      1  0.5461350000000  0.5008090000000  0.4507660000000 1.0
C      1  0.4664420000000  0.5387430000000  0.4077110000000 1.0
C      1  0.4115380000000  0.4812850000000  0.4246460000000 1.0
C      1  0.4903610000000  0.4933390000000  0.3917600000000 1.0
C      1  0.5120290000000  0.4627410000000  0.5635090000000 1.0
C      1  0.4146040000000  0.4901750000000  0.5147050000000 1.0
C      1  0.5278460000000  0.5384770000000  0.4118600000000 1.0
C      1  0.4320260000000  0.5103130000000  0.4948350000000 1.0
C      1  0.4842200000000  0.4749720000000  0.5523770000000 1.0
C      1  0.5042030000000  0.4249130000000  0.5735440000000 1.0
C      1  0.5265080000000  0.5225290000000  0.4405150000000 1.0
C      1  0.3991060000000  0.4395900000000  0.5064330000000 1.0
C      1  0.5782280000000  0.4740780000000  0.5550900000000 1.0
C      1  0.4369430000000  0.4704270000000  0.5766430000000 1.0
C      1  0.4350190000000  0.4800790000000  0.4094850000000 1.0
C      1  0.5242590000000  0.5821650000000  0.4775450000000 1.0
C      1  0.4092950000000  0.4590620000000  0.4427310000000 1.0
C      1  0.5672850000000  0.5579460000000  0.4459570000000 1.0
C      1  0.5027380000000  0.4245640000000  0.3986320000000 1.0
C      1  0.4160150000000  0.4574130000000  0.5237120000000 1.0
C      1  0.4278560000000  0.5584210000000  0.5713920000000 1.0
C      1  0.6041690000000  0.4680650000000  0.4620560000000 1.0
C      1  0.4475240000000  0.5852710000000  0.5185640000000 1.0
C      1  0.4907160000000  0.5811160000000  0.4356770000000 1.0
C      1  0.5020600000000  0.5157780000000  0.4599430000000 1.0
C      1  0.4800720000000  0.5911420000000  0.5196760000000 1.0
C      1  0.5221440000000  0.4938780000000  0.5644270000000 1.0
C      1  0.4255720000000  0.5002820000000  0.4659650000000 1.0
C      1  0.4431050000000  0.4494830000000  0.4859110000000 1.0
C      1  0.5663240000000  0.5263260000000  0.4408310000000 1.0
C      1  0.4555860000000  0.4849710000000  0.5264220000000 1.0
C      1  0.4902260000000  0.4693630000000  0.4957510000000 1.0
C      1  0.4612880000000  0.4761060000000  0.4823570000000 1.0
C      1  0.5643530000000  0.5660900000000  0.5820670000000 1.0
C      1  0.4818110000000  0.5018220000000  0.5737210000000 1.0
C      1  0.4723330000000  0.5862740000000  0.4576520000000 1.0
C      1  0.5386130000000  0.4389140000000  0.4619290000000 1.0
C      1  0.5655140000000  0.4446960000000  0.5537620000000 1.0
C      1  0.4658920000000  0.3997070000000  0.4944040000000 1.0
C      1  0.4409130000000  0.5115730000000  0.5359160000000 1.0
C      1  0.4949450000000  0.4475560000000  0.4538680000000 1.0
C      1  0.4733280000000  0.5533910000000  0.5039120000000 1.0
C      1  0.5416470000000  0.5977920000000  0.5098200000000 1.0
C      1  0.5130190000000  0.4656490000000  0.4764870000000 1.0
C      1  0.5313190000000  0.4664240000000  0.4181820000000 1.0
C      1  0.5371430000000  0.4768260000000  0.5238630000000 1.0
C      1  0.4567040000000  0.5188550000000  0.5890730000000 1.0
C      1  0.5630530000000  0.4913750000000  0.5337040000000 1.0
C      1  0.5657040000000  0.4403520000000  0.4472960000000 1.0
C      1  0.4570070000000  0.4071110000000  0.4702350000000 1.0
C      1  0.5202190000000  0.4904610000000  0.3978140000000 1.0
C      1  0.4615850000000  0.4521810000000  0.5855410000000 1.0
C      1  0.4851550000000  0.4934510000000  0.5165370000000 1.0
C      1  0.4943120000000  0.4109970000000  0.4994440000000 1.0
C      1  0.5547280000000  0.5456910000000  0.5200790000000 1.0
C      1  0.4641300000000  0.4956930000000  0.4133120000000 1.0
C      1  0.5634700000000  0.4552430000000  0.5030040000000 1.0
C      1  0.5951160000000  0.5680370000000  0.4594570000000 1.0
C      1  0.4751220000000  0.5234010000000  0.3871730000000 1.0
END
