TITL C-2848501-3133-336 0.000367923464426127 125000 -859.721556784953 0 0 157 (C1) n - 1
REM
REM in /home/bkarasulu/work/CARBON/AIRSS/Generating-Clusters/AIREBO/with-SteepDescent/Only-C1/SD-CG-opt/Try1-1.4A-POS3A/HFTN-CG
REM
REM
REM
REM
REM
REM ./C.cell (11c1c37f851c82e70ff6c80c92926a4b)
REM
REM compiler GCC version 9.2.1 20190827 (Red Hat 9.2.1-1)
REM options -cpp -mtune=generic -march=x86-64 -g -O0 -fpre-include=/usr/include/finclude/math-vector-fortran.h
REM seed -1875184656 110423075 -2050905847 -518655061 900569883 -1834103698 -911615826 1819084801 -1377105698 1918650069 1290902898 -1673231573 -949553267 -1993560639 1983169900 -1048309282 1129600830 1771910354 1798922737 -2033591815 -1109652724 699432102 844052100 1767694102 870834813 -1343883295 1719304573 -2535646 343223142 -1164254823 -406919524 -1324453435 -1696802343
REM
CELL 1.54180   50.00000   50.00000   50.00000   90.00000   90.00000   90.00000
LATT -1
SFAC C  
C      1  0.5530970000000  0.5186240000000  0.4045030000000 1.0
C      1  0.5094540000000  0.6016520000000  0.4665050000000 1.0
C      1  0.4846900000000  0.4285530000000  0.4968930000000 1.0
C      1  0.4245950000000  0.5343680000000  0.5350870000000 1.0
C      1  0.4478510000000  0.4198870000000  0.5103350000000 1.0
C      1  0.5505510000000  0.5883010000000  0.4906170000000 1.0
C      1  0.5615960000000  0.5886370000000  0.5155620000000 1.0
C      1  0.4113400000000  0.5237210000000  0.4453780000000 1.0
C      1  0.4841110000000  0.5237300000000  0.4645880000000 1.0
C      1  0.5202830000000  0.4946170000000  0.4745980000000 1.0
C      1  0.5722520000000  0.4397610000000  0.4837900000000 1.0
C      1  0.5833900000000  0.5336130000000  0.5737750000000 1.0
C      1  0.5139560000000  0.5119010000000  0.5523320000000 1.0
C      1  0.5693290000000  0.4863780000000  0.5832380000000 1.0
C      1  0.4877020000000  0.5501050000000  0.5898700000000 1.0
C      1  0.4122620000000  0.4598230000000  0.5288580000000 1.0
C      1  0.6036170000000  0.5295200000000  0.4969500000000 1.0
C      1  0.4355010000000  0.4601500000000  0.4829030000000 1.0
C      1  0.4488500000000  0.5086280000000  0.5928260000000 1.0
C      1  0.4541370000000  0.4435140000000  0.5663510000000 1.0
C      1  0.5459280000000  0.5712130000000  0.5368380000000 1.0
C      1  0.5453160000000  0.5451520000000  0.4440670000000 1.0
C      1  0.5697160000000  0.5500590000000  0.4939550000000 1.0
C      1  0.5451850000000  0.4630580000000  0.5777370000000 1.0
C      1  0.5481080000000  0.4910830000000  0.4050230000000 1.0
C      1  0.5978180000000  0.4963080000000  0.4925180000000 1.0
C      1  0.4097030000000  0.5413890000000  0.4961070000000 1.0
C      1  0.5148490000000  0.5345260000000  0.4548420000000 1.0
C      1  0.4905520000000  0.5615320000000  0.4328780000000 1.0
C      1  0.4727460000000  0.4580350000000  0.5331590000000 1.0
C      1  0.5233010000000  0.5243470000000  0.4856400000000 1.0
C      1  0.5787120000000  0.5709550000000  0.5394910000000 1.0
C      1  0.5000240000000  0.4808970000000  0.5512750000000 1.0
C      1  0.4995490000000  0.4455480000000  0.5876320000000 1.0
C      1  0.4467460000000  0.4462830000000  0.4312310000000 1.0
C      1  0.4985170000000  0.5365830000000  0.4143670000000 1.0
C      1  0.4398670000000  0.5530760000000  0.5604670000000 1.0
C      1  0.4527090000000  0.4692420000000  0.4555960000000 1.0
C      1  0.5929620000000  0.4782100000000  0.5199030000000 1.0
C      1  0.4999310000000  0.5580340000000  0.5298900000000 1.0
C      1  0.4963580000000  0.4763890000000  0.5169720000000 1.0
C      1  0.5570730000000  0.4102300000000  0.4911560000000 1.0
C      1  0.4781890000000  0.5846210000000  0.5497930000000 1.0
C      1  0.5459280000000  0.5038030000000  0.5451940000000 1.0
C      1  0.4901380000000  0.5132650000000  0.5752900000000 1.0
C      1  0.4754790000000  0.5224400000000  0.6045660000000 1.0
C      1  0.4902460000000  0.4040510000000  0.5489820000000 1.0
C      1  0.4466430000000  0.5214780000000  0.5650330000000 1.0
C      1  0.4413910000000  0.4752450000000  0.4179210000000 1.0
C      1  0.5322100000000  0.4517280000000  0.4825160000000 1.0
C      1  0.4687420000000  0.5569640000000  0.5330900000000 1.0
C      1  0.5196460000000  0.5443470000000  0.5517750000000 1.0
C      1  0.5136990000000  0.5525540000000  0.5006790000000 1.0
C      1  0.4833600000000  0.4897320000000  0.5983930000000 1.0
C      1  0.4998910000000  0.5082040000000  0.5221800000000 1.0
C      1  0.4319170000000  0.5462400000000  0.4505740000000 1.0
C      1  0.4359730000000  0.6194920000000  0.4498440000000 1.0
C      1  0.4577220000000  0.5372830000000  0.4038670000000 1.0
C      1  0.4313870000000  0.4966090000000  0.4933890000000 1.0
C      1  0.5894350000000  0.5418380000000  0.4683820000000 1.0
C      1  0.4755590000000  0.5143970000000  0.3990190000000 1.0
C      1  0.4719670000000  0.4247320000000  0.4682490000000 1.0
C      1  0.5673890000000  0.4761130000000  0.4463840000000 1.0
C      1  0.4785760000000  0.4668220000000  0.5737160000000 1.0
C      1  0.4938860000000  0.4284150000000  0.4179740000000 1.0
C      1  0.5204600000000  0.5779350000000  0.4848830000000 1.0
C      1  0.5274630000000  0.3971830000000  0.4805630000000 1.0
C      1  0.4702970000000  0.4884740000000  0.4139900000000 1.0
C      1  0.5583120000000  0.4694560000000  0.4755160000000 1.0
C      1  0.4275450000000  0.4560630000000  0.5739960000000 1.0
C      1  0.5780490000000  0.5024940000000  0.5340140000000 1.0
C      1  0.4720610000000  0.4975080000000  0.4825650000000 1.0
C      1  0.4628050000000  0.5294360000000  0.4899740000000 1.0
C      1  0.5320660000000  0.4273020000000  0.4655450000000 1.0
C      1  0.4050570000000  0.4926670000000  0.4561060000000 1.0
C      1  0.4382240000000  0.5475800000000  0.4817220000000 1.0
C      1  0.5448750000000  0.4828970000000  0.5037910000000 1.0
C      1  0.5317810000000  0.3985060000000  0.4468590000000 1.0
C      1  0.5175410000000  0.5398420000000  0.5913770000000 1.0
C      1  0.4010480000000  0.4906340000000  0.5599620000000 1.0
C      1  0.5179910000000  0.5855520000000  0.4377930000000 1.0
C      1  0.4732440000000  0.5193980000000  0.5496190000000 1.0
C      1  0.5363600000000  0.5454610000000  0.5234400000000 1.0
C      1  0.5643490000000  0.5274250000000  0.4284220000000 1.0
C      1  0.5252710000000  0.4226190000000  0.5533940000000 1.0
C      1  0.5174540000000  0.4868140000000  0.4085850000000 1.0
C      1  0.4408650000000  0.4468800000000  0.5288770000000 1.0
C      1  0.4850640000000  0.4718250000000  0.4642440000000 1.0
C      1  0.5433790000000  0.4456990000000  0.4179530000000 1.0
C      1  0.5129750000000  0.3933340000000  0.5291250000000 1.0
C      1  0.3994630000000  0.4868710000000  0.5118240000000 1.0
C      1  0.5290050000000  0.5608020000000  0.4222170000000 1.0
C      1  0.4338880000000  0.5723900000000  0.5007870000000 1.0
C      1  0.5654050000000  0.5214910000000  0.5104120000000 1.0
C      1  0.5723030000000  0.5135390000000  0.4780810000000 1.0
C      1  0.4926360000000  0.4906020000000  0.4395370000000 1.0
C      1  0.5328990000000  0.5126680000000  0.5150610000000 1.0
C      1  0.4481520000000  0.4818430000000  0.5759810000000 1.0
C      1  0.5217260000000  0.4620520000000  0.5972720000000 1.0
C      1  0.5622600000000  0.5617820000000  0.4633120000000 1.0
C      1  0.5781420000000  0.5054640000000  0.4456440000000 1.0
C      1  0.4736550000000  0.5838150000000  0.4591110000000 1.0
C      1  0.4163020000000  0.4684730000000  0.4393820000000 1.0
C      1  0.4077190000000  0.4582340000000  0.4960530000000 1.0
C      1  0.5015380000000  0.4211360000000  0.5732960000000 1.0
C      1  0.4958770000000  0.6190730000000  0.4824570000000 1.0
C      1  0.4831200000000  0.4426080000000  0.4469400000000 1.0
C      1  0.4699000000000  0.5638500000000  0.5723070000000 1.0
C      1  0.5404820000000  0.4332480000000  0.5088350000000 1.0
C      1  0.4993780000000  0.5630860000000  0.4649190000000 1.0
C      1  0.4384600000000  0.5629520000000  0.5281130000000 1.0
C      1  0.4549810000000  0.6017620000000  0.4531890000000 1.0
C      1  0.4444240000000  0.4216390000000  0.4781940000000 1.0
C      1  0.5588670000000  0.4689540000000  0.4207310000000 1.0
C      1  0.5153070000000  0.4533460000000  0.4092760000000 1.0
C      1  0.4754100000000  0.5289960000000  0.5180620000000 1.0
C      1  0.5458520000000  0.5075230000000  0.4575550000000 1.0
C      1  0.5470850000000  0.4614050000000  0.5254280000000 1.0
C      1  0.5085540000000  0.4697990000000  0.4887480000000 1.0
C      1  0.4520680000000  0.4194010000000  0.5447220000000 1.0
C      1  0.4767050000000  0.4033570000000  0.5175270000000 1.0
C      1  0.4599540000000  0.5467300000000  0.4311460000000 1.0
C      1  0.5478130000000  0.4198820000000  0.5386240000000 1.0
C      1  0.5026780000000  0.3903350000000  0.4984290000000 1.0
C      1  0.5948490000000  0.4624830000000  0.4898200000000 1.0
C      1  0.5480560000000  0.4216790000000  0.4295940000000 1.0
C      1  0.4254520000000  0.4403930000000  0.4570750000000 1.0
C      1  0.4525750000000  0.5211780000000  0.4523460000000 1.0
C      1  0.5735360000000  0.4523890000000  0.5636800000000 1.0
C      1  0.4512680000000  0.4827990000000  0.5421810000000 1.0
C      1  0.4312340000000  0.5969210000000  0.4926060000000 1.0
C      1  0.4377220000000  0.4965850000000  0.4620850000000 1.0
C      1  0.5749560000000  0.4605920000000  0.5373000000000 1.0
C      1  0.5015870000000  0.4430280000000  0.5399990000000 1.0
C      1  0.5395230000000  0.5543180000000  0.5740660000000 1.0
C      1  0.4117460000000  0.5159170000000  0.5118620000000 1.0
C      1  0.5190960000000  0.5061810000000  0.4365360000000 1.0
C      1  0.5252890000000  0.5112470000000  0.5942730000000 1.0
C      1  0.4818680000000  0.6065100000000  0.5329460000000 1.0
C      1  0.5277750000000  0.4623480000000  0.5498500000000 1.0
C      1  0.5448320000000  0.5032900000000  0.5762190000000 1.0
C      1  0.5641590000000  0.4184390000000  0.4585720000000 1.0
C      1  0.5829860000000  0.5067180000000  0.5652460000000 1.0
C      1  0.5669410000000  0.5558700000000  0.5670620000000 1.0
C      1  0.4056340000000  0.4630330000000  0.5580820000000 1.0
C      1  0.5103170000000  0.4247460000000  0.5163780000000 1.0
C      1  0.4685950000000  0.4577430000000  0.4904480000000 1.0
C      1  0.4554780000000  0.4834470000000  0.5084430000000 1.0
C      1  0.4825750000000  0.4595110000000  0.4172250000000 1.0
C      1  0.4257330000000  0.5045740000000  0.5477650000000 1.0
C      1  0.5128410000000  0.4880020000000  0.6053410000000 1.0
C      1  0.4916110000000  0.6171540000000  0.5097330000000 1.0
C      1  0.3896800000000  0.4817780000000  0.4798230000000 1.0
C      1  0.5279920000000  0.5382180000000  0.3974360000000 1.0
C      1  0.5911660000000  0.5508670000000  0.5187820000000 1.0
C      1  0.5459580000000  0.5898330000000  0.4569620000000 1.0
C      1  0.5068250000000  0.5121180000000  0.3922640000000 1.0
END
