TITL C-2848505-4874-656 -0.00115470992103279 125000 -452.776719889857 0 0 84 (C1) n - 1
REM
REM in /home/bkarasulu/work/CARBON/AIRSS/Generating-Clusters/AIREBO/with-SteepDescent/Only-C1/SD-CG-opt/Try1-1.4A-POS3A/HFTN-CG
REM
REM
REM
REM
REM
REM ./C.cell (11c1c37f851c82e70ff6c80c92926a4b)
REM
REM compiler GCC version 9.2.1 20190827 (Red Hat 9.2.1-1)
REM options -cpp -mtune=generic -march=x86-64 -g -O0 -fpre-include=/usr/include/finclude/math-vector-fortran.h
REM seed 2001826736 -1404835352 -789217238 1280320748 -299129597 347601215 573898874 429361785 -1205373033 1023353167 1754611871 557243944 -2043184741 534203178 2012572602 -1038836534 -848252461 1697573649 -946427566 663854344 542520920 -555355567 795830185 1174906775 -1195025730 -1181020699 -1065964264 2093297361 909442986 343632187 856149096 222951423 -755443508
REM
CELL 1.54180   50.00000   50.00000   50.00000   90.00000   90.00000   90.00000
LATT -1
SFAC C  
C      1  0.5066280000000  0.5050540000000  0.4530190000000 1.0
C      1  0.5465870000000  0.4306510000000  0.5243530000000 1.0
C      1  0.4577650000000  0.5336990000000  0.4541850000000 1.0
C      1  0.5495330000000  0.4836930000000  0.4743200000000 1.0
C      1  0.5302180000000  0.5736040000000  0.5422980000000 1.0
C      1  0.5303880000000  0.4563000000000  0.5397110000000 1.0
C      1  0.5296990000000  0.5384550000000  0.4578410000000 1.0
C      1  0.4730080000000  0.5802050000000  0.4993420000000 1.0
C      1  0.5622500000000  0.5304540000000  0.4635560000000 1.0
C      1  0.4720690000000  0.4998560000000  0.5673780000000 1.0
C      1  0.4463040000000  0.4514120000000  0.5069110000000 1.0
C      1  0.4694340000000  0.4755540000000  0.5433040000000 1.0
C      1  0.5079450000000  0.5530950000000  0.4413920000000 1.0
C      1  0.5481510000000  0.5378330000000  0.4931100000000 1.0
C      1  0.4616930000000  0.5498570000000  0.5096890000000 1.0
C      1  0.4944590000000  0.5744740000000  0.5491050000000 1.0
C      1  0.4628580000000  0.4735250000000  0.4449270000000 1.0
C      1  0.5696380000000  0.5458720000000  0.5290920000000 1.0
C      1  0.5346080000000  0.4676720000000  0.4518330000000 1.0
C      1  0.5002250000000  0.5077810000000  0.5856100000000 1.0
C      1  0.4723930000000  0.4334500000000  0.4826130000000 1.0
C      1  0.5388180000000  0.4677320000000  0.5023720000000 1.0
C      1  0.4799720000000  0.5159330000000  0.4711140000000 1.0
C      1  0.4810710000000  0.4513400000000  0.4343910000000 1.0
C      1  0.5000550000000  0.4755220000000  0.5006570000000 1.0
C      1  0.5330010000000  0.4183640000000  0.4808070000000 1.0
C      1  0.4363970000000  0.4701400000000  0.4613070000000 1.0
C      1  0.5742070000000  0.4791000000000  0.5156020000000 1.0
C      1  0.4374320000000  0.5292250000000  0.5415310000000 1.0
C      1  0.4255000000000  0.4593710000000  0.5278820000000 1.0
C      1  0.4778240000000  0.4487660000000  0.5624950000000 1.0
C      1  0.4899710000000  0.5046990000000  0.5258220000000 1.0
C      1  0.5819890000000  0.5279880000000  0.5077590000000 1.0
C      1  0.4274740000000  0.4970300000000  0.4686250000000 1.0
C      1  0.5715600000000  0.5042530000000  0.4608940000000 1.0
C      1  0.5190770000000  0.4828060000000  0.4340060000000 1.0
C      1  0.5526630000000  0.4307970000000  0.4967360000000 1.0
C      1  0.5014370000000  0.5477270000000  0.5069070000000 1.0
C      1  0.5884220000000  0.5018310000000  0.5227490000000 1.0
C      1  0.5448250000000  0.5600360000000  0.5186530000000 1.0
C      1  0.5279010000000  0.5552200000000  0.5662150000000 1.0
C      1  0.5139950000000  0.4183720000000  0.4528380000000 1.0
C      1  0.5258950000000  0.4924580000000  0.5688920000000 1.0
C      1  0.5057360000000  0.5346400000000  0.4816670000000 1.0
C      1  0.4710300000000  0.4939980000000  0.4214000000000 1.0
C      1  0.4300190000000  0.5598890000000  0.5014200000000 1.0
C      1  0.5166510000000  0.4486250000000  0.4608890000000 1.0
C      1  0.5015540000000  0.4654040000000  0.4192270000000 1.0
C      1  0.5020900000000  0.4189660000000  0.4906660000000 1.0
C      1  0.4923300000000  0.4594430000000  0.4746480000000 1.0
C      1  0.4921970000000  0.5110390000000  0.4251620000000 1.0
C      1  0.5568900000000  0.5058260000000  0.5659290000000 1.0
C      1  0.4595340000000  0.5216630000000  0.4961940000000 1.0
C      1  0.4345250000000  0.5176530000000  0.4488430000000 1.0
C      1  0.4995960000000  0.5378560000000  0.4187970000000 1.0
C      1  0.5174500000000  0.5009870000000  0.5079670000000 1.0
C      1  0.4837420000000  0.4283930000000  0.4509450000000 1.0
C      1  0.4692770000000  0.4746650000000  0.5092370000000 1.0
C      1  0.5334000000000  0.5682430000000  0.4888290000000 1.0
C      1  0.5689080000000  0.4594630000000  0.4882760000000 1.0
C      1  0.4492400000000  0.5739730000000  0.4806730000000 1.0
C      1  0.5106970000000  0.4305300000000  0.5323840000000 1.0
C      1  0.5269220000000  0.5089190000000  0.5396570000000 1.0
C      1  0.5449160000000  0.4830880000000  0.5306180000000 1.0
C      1  0.4412860000000  0.4457820000000  0.4764930000000 1.0
C      1  0.5076570000000  0.5761550000000  0.5179950000000 1.0
C      1  0.4702860000000  0.4847790000000  0.4761560000000 1.0
C      1  0.4852460000000  0.5451250000000  0.5552810000000 1.0
C      1  0.5129960000000  0.5296400000000  0.5628970000000 1.0
C      1  0.5305720000000  0.5115940000000  0.4787510000000 1.0
C      1  0.4362050000000  0.4732850000000  0.5464470000000 1.0
C      1  0.4908620000000  0.5686980000000  0.4569900000000 1.0
C      1  0.4664230000000  0.4282960000000  0.5161670000000 1.0
C      1  0.5724500000000  0.5184180000000  0.5452580000000 1.0
C      1  0.4262040000000  0.5323960000000  0.5153270000000 1.0
C      1  0.4961370000000  0.4764790000000  0.5729590000000 1.0
C      1  0.4589250000000  0.5255300000000  0.5574820000000 1.0
C      1  0.4829250000000  0.5330210000000  0.5265290000000 1.0
C      1  0.4629250000000  0.5613050000000  0.4582050000000 1.0
C      1  0.5029340000000  0.5806320000000  0.4846020000000 1.0
C      1  0.4827810000000  0.4311930000000  0.5388860000000 1.0
C      1  0.5032650000000  0.4768260000000  0.5400620000000 1.0
C      1  0.4317490000000  0.5100230000000  0.4943810000000 1.0
C      1  0.5161300000000  0.4463540000000  0.5038600000000 1.0
END
