TITL C-2847949-8115-420 0.00231752323329922 125000 -880.306158517065 0 0 163 (C1) n - 1
REM
REM in /home/bkarasulu/work/CARBON/AIRSS/Generating-Clusters/AIREBO/with-SteepDescent/Only-C1/SD-CG-opt/Try1-1.4A-POS3A/HFTN-CG
REM
REM
REM
REM
REM
REM ./C.cell (11c1c37f851c82e70ff6c80c92926a4b)
REM
REM compiler GCC version 9.2.1 20190827 (Red Hat 9.2.1-1)
REM options -cpp -mtune=generic -march=x86-64 -g -O0 -fpre-include=/usr/include/finclude/math-vector-fortran.h
REM seed -1525473043 1249444655 -782278277 -1200262218 -1715713398 -1752118509 -1759410519 895552873 417206005 -57057676 191701303 5007011 -1773667633 -1639356023 -1906265274 86738246 -1091157182 386184241 -1551797292 -1595078631 1137124670 908385850 372269963 1888827226 658796997 1300378052 -1163100980 -1499462143 -1360662870 -72514399 -1404772639 1329865503 -1135368128
REM
CELL 1.54180   50.00000   50.00000   50.00000   90.00000   90.00000   90.00000
LATT -1
SFAC C  
C      1  0.4778780000000  0.5651430000000  0.5478340000000 1.0
C      1  0.5959600000000  0.4544410000000  0.4525670000000 1.0
C      1  0.4938520000000  0.4949590000000  0.6016940000000 1.0
C      1  0.4544430000000  0.5252700000000  0.4330770000000 1.0
C      1  0.5025740000000  0.5420360000000  0.5542900000000 1.0
C      1  0.4760290000000  0.5445550000000  0.4171620000000 1.0
C      1  0.4942780000000  0.5980730000000  0.4961360000000 1.0
C      1  0.5149410000000  0.5871590000000  0.4434970000000 1.0
C      1  0.5564880000000  0.5564410000000  0.4410020000000 1.0
C      1  0.5330990000000  0.5899650000000  0.5474840000000 1.0
C      1  0.4778290000000  0.5539250000000  0.5893760000000 1.0
C      1  0.5531410000000  0.5246390000000  0.5141170000000 1.0
C      1  0.5077840000000  0.4999730000000  0.4419120000000 1.0
C      1  0.4080090000000  0.4578510000000  0.4733690000000 1.0
C      1  0.5779880000000  0.5417600000000  0.4634150000000 1.0
C      1  0.4335330000000  0.5732470000000  0.4676370000000 1.0
C      1  0.4384830000000  0.4678030000000  0.5093610000000 1.0
C      1  0.4798910000000  0.3861490000000  0.5113030000000 1.0
C      1  0.5884980000000  0.5125860000000  0.5693610000000 1.0
C      1  0.5737070000000  0.4732000000000  0.4646830000000 1.0
C      1  0.5564080000000  0.4361290000000  0.4745630000000 1.0
C      1  0.4670460000000  0.4677800000000  0.4241160000000 1.0
C      1  0.4645250000000  0.4963330000000  0.3967730000000 1.0
C      1  0.4923790000000  0.5120120000000  0.5655460000000 1.0
C      1  0.6144520000000  0.5055030000000  0.5723430000000 1.0
C      1  0.4206190000000  0.4836800000000  0.4903460000000 1.0
C      1  0.4679620000000  0.5721340000000  0.4205940000000 1.0
C      1  0.3889110000000  0.4859950000000  0.4796640000000 1.0
C      1  0.5264440000000  0.5332860000000  0.4306980000000 1.0
C      1  0.5387260000000  0.5435940000000  0.4669960000000 1.0
C      1  0.4437000000000  0.5041860000000  0.4126370000000 1.0
C      1  0.5190300000000  0.5137120000000  0.5950930000000 1.0
C      1  0.5278920000000  0.5413190000000  0.5953520000000 1.0
C      1  0.6016380000000  0.5223370000000  0.5251270000000 1.0
C      1  0.4173150000000  0.4750040000000  0.4476260000000 1.0
C      1  0.4871800000000  0.4728940000000  0.5133270000000 1.0
C      1  0.5182410000000  0.5879460000000  0.5709810000000 1.0
C      1  0.5095290000000  0.4526100000000  0.5556920000000 1.0
C      1  0.4762510000000  0.5229100000000  0.5934240000000 1.0
C      1  0.4944940000000  0.5312700000000  0.4424370000000 1.0
C      1  0.4504630000000  0.5848040000000  0.5252580000000 1.0
C      1  0.5652590000000  0.5145400000000  0.5861550000000 1.0
C      1  0.5893590000000  0.5156310000000  0.4448530000000 1.0
C      1  0.4527620000000  0.3910840000000  0.4724550000000 1.0
C      1  0.4798950000000  0.5215570000000  0.5288430000000 1.0
C      1  0.5346140000000  0.4876620000000  0.4300080000000 1.0
C      1  0.4633800000000  0.4925360000000  0.5276160000000 1.0
C      1  0.5119100000000  0.4007780000000  0.5695530000000 1.0
C      1  0.4616940000000  0.4151320000000  0.4628380000000 1.0
C      1  0.4961200000000  0.4380270000000  0.3950070000000 1.0
C      1  0.4824120000000  0.5900440000000  0.5251250000000 1.0
C      1  0.4495580000000  0.4648150000000  0.5416660000000 1.0
C      1  0.5793340000000  0.4428650000000  0.4979030000000 1.0
C      1  0.4898030000000  0.5910430000000  0.5663730000000 1.0
C      1  0.4690210000000  0.5227840000000  0.4636920000000 1.0
C      1  0.5276080000000  0.5649320000000  0.4241900000000 1.0
C      1  0.5088460000000  0.5592390000000  0.5810580000000 1.0
C      1  0.4107360000000  0.5649850000000  0.4574210000000 1.0
C      1  0.5560810000000  0.4960700000000  0.5465640000000 1.0
C      1  0.4549310000000  0.5680200000000  0.5727680000000 1.0
C      1  0.4216370000000  0.4899950000000  0.4195900000000 1.0
C      1  0.5578850000000  0.4534080000000  0.5742220000000 1.0
C      1  0.5263430000000  0.5152580000000  0.4953640000000 1.0
C      1  0.5474780000000  0.4994600000000  0.4020570000000 1.0
C      1  0.5579220000000  0.5231330000000  0.4342950000000 1.0
C      1  0.6119400000000  0.4796430000000  0.4899790000000 1.0
C      1  0.5400970000000  0.4498810000000  0.5010580000000 1.0
C      1  0.5695160000000  0.5735310000000  0.5177400000000 1.0
C      1  0.5192530000000  0.4505040000000  0.4032200000000 1.0
C      1  0.3927550000000  0.5075270000000  0.5057840000000 1.0
C      1  0.4403500000000  0.4608830000000  0.6009210000000 1.0
C      1  0.5613010000000  0.5016920000000  0.4728540000000 1.0
C      1  0.5373200000000  0.4490180000000  0.5349390000000 1.0
C      1  0.4558060000000  0.4320420000000  0.5350830000000 1.0
C      1  0.5235360000000  0.4767740000000  0.3937890000000 1.0
C      1  0.4535560000000  0.3906510000000  0.5012090000000 1.0
C      1  0.4500060000000  0.4786720000000  0.4453990000000 1.0
C      1  0.4338280000000  0.5073010000000  0.4534180000000 1.0
C      1  0.5561480000000  0.4428800000000  0.4437960000000 1.0
C      1  0.3934120000000  0.5191970000000  0.4738530000000 1.0
C      1  0.5155720000000  0.5988180000000  0.5242950000000 1.0
C      1  0.5610030000000  0.5517480000000  0.5583170000000 1.0
C      1  0.4676140000000  0.4894220000000  0.4701560000000 1.0
C      1  0.4494710000000  0.5410930000000  0.4849200000000 1.0
C      1  0.4983490000000  0.4049720000000  0.5051120000000 1.0
C      1  0.4851540000000  0.4488060000000  0.5790890000000 1.0
C      1  0.4724540000000  0.4389110000000  0.4177090000000 1.0
C      1  0.5248970000000  0.5343900000000  0.5304070000000 1.0
C      1  0.5731310000000  0.4944190000000  0.4237980000000 1.0
C      1  0.5543980000000  0.5421040000000  0.5850020000000 1.0
C      1  0.5062810000000  0.4657630000000  0.5932620000000 1.0
C      1  0.5636650000000  0.4661980000000  0.5459250000000 1.0
C      1  0.6077480000000  0.5071710000000  0.5047320000000 1.0
C      1  0.5382140000000  0.5001520000000  0.5733110000000 1.0
C      1  0.5598310000000  0.4152220000000  0.5013800000000 1.0
C      1  0.5569630000000  0.5748070000000  0.5426140000000 1.0
C      1  0.5443340000000  0.4717350000000  0.4525410000000 1.0
C      1  0.5950380000000  0.5051260000000  0.4748840000000 1.0
C      1  0.4401740000000  0.4127480000000  0.5128820000000 1.0
C      1  0.4866070000000  0.4332400000000  0.5024720000000 1.0
C      1  0.4144220000000  0.5325830000000  0.5141910000000 1.0
C      1  0.4772550000000  0.5527810000000  0.5006650000000 1.0
C      1  0.4423770000000  0.5710990000000  0.4993220000000 1.0
C      1  0.6388720000000  0.4962520000000  0.5745500000000 1.0
C      1  0.4570990000000  0.4356870000000  0.4851500000000 1.0
C      1  0.5239750000000  0.4734030000000  0.4734680000000 1.0
C      1  0.4371870000000  0.5736160000000  0.5475730000000 1.0
C      1  0.4544320000000  0.5035860000000  0.4967300000000 1.0
C      1  0.4183690000000  0.4459930000000  0.5254380000000 1.0
C      1  0.6036930000000  0.4541340000000  0.4824630000000 1.0
C      1  0.4813570000000  0.4239730000000  0.4426180000000 1.0
C      1  0.5089070000000  0.5406490000000  0.4797000000000 1.0
C      1  0.3910500000000  0.5460590000000  0.4595380000000 1.0
C      1  0.4951060000000  0.4789270000000  0.4612610000000 1.0
C      1  0.5350630000000  0.4171930000000  0.5245920000000 1.0
C      1  0.4319990000000  0.5048840000000  0.5222500000000 1.0
C      1  0.4919100000000  0.6039490000000  0.4643420000000 1.0
C      1  0.5282070000000  0.4057090000000  0.4932770000000 1.0
C      1  0.5094400000000  0.4457640000000  0.4869240000000 1.0
C      1  0.4680370000000  0.4275360000000  0.3858020000000 1.0
C      1  0.4139230000000  0.5557300000000  0.5370790000000 1.0
C      1  0.5174370000000  0.4196730000000  0.5526240000000 1.0
C      1  0.4238950000000  0.4349690000000  0.4929250000000 1.0
C      1  0.5126850000000  0.4107580000000  0.4425970000000 1.0
C      1  0.4994230000000  0.5611670000000  0.4578660000000 1.0
C      1  0.4615880000000  0.4859220000000  0.5959080000000 1.0
C      1  0.5773010000000  0.5857960000000  0.4904140000000 1.0
C      1  0.4248050000000  0.4245190000000  0.5468590000000 1.0
C      1  0.5148680000000  0.5090820000000  0.4015040000000 1.0
C      1  0.5271080000000  0.5005040000000  0.5324130000000 1.0
C      1  0.4239110000000  0.4487910000000  0.6158570000000 1.0
C      1  0.5730290000000  0.5249610000000  0.5417180000000 1.0
C      1  0.5321410000000  0.4548200000000  0.5813600000000 1.0
C      1  0.5248480000000  0.6034290000000  0.4711240000000 1.0
C      1  0.5231360000000  0.3962780000000  0.4637340000000 1.0
C      1  0.5074800000000  0.5419810000000  0.4061840000000 1.0
C      1  0.4250260000000  0.5029250000000  0.5611180000000 1.0
C      1  0.4454290000000  0.5107870000000  0.5857290000000 1.0
C      1  0.4343040000000  0.5338190000000  0.5494080000000 1.0
C      1  0.4861020000000  0.4471060000000  0.5316680000000 1.0
C      1  0.5685860000000  0.4960010000000  0.5042360000000 1.0
C      1  0.5778130000000  0.4634420000000  0.4270310000000 1.0
C      1  0.4583650000000  0.5458760000000  0.5281240000000 1.0
C      1  0.5664450000000  0.4671220000000  0.5143630000000 1.0
C      1  0.4012780000000  0.5025340000000  0.5366460000000 1.0
C      1  0.4668440000000  0.5751860000000  0.4762180000000 1.0
C      1  0.5016530000000  0.4470710000000  0.4539030000000 1.0
C      1  0.5311500000000  0.4826540000000  0.5037480000000 1.0
C      1  0.4755610000000  0.5820550000000  0.4457530000000 1.0
C      1  0.4989720000000  0.5037810000000  0.5136070000000 1.0
C      1  0.5696830000000  0.5469760000000  0.4959860000000 1.0
C      1  0.4254850000000  0.5169810000000  0.4849370000000 1.0
C      1  0.5106910000000  0.4864860000000  0.5587520000000 1.0
C      1  0.4590350000000  0.4622050000000  0.5730800000000 1.0
C      1  0.5266030000000  0.4399460000000  0.4319160000000 1.0
C      1  0.4175150000000  0.4745670000000  0.5438930000000 1.0
C      1  0.5235140000000  0.5807180000000  0.4966270000000 1.0
C      1  0.5084820000000  0.5528860000000  0.5091270000000 1.0
C      1  0.5487480000000  0.5687280000000  0.4839980000000 1.0
C      1  0.4914140000000  0.4884950000000  0.4144010000000 1.0
C      1  0.4650160000000  0.4653470000000  0.4927860000000 1.0
C      1  0.4614510000000  0.5188030000000  0.5569990000000 1.0
C      1  0.5325780000000  0.5106970000000  0.4626000000000 1.0
END
