TITL C-2848499-1157-572 -0.000229788266937407 125000 -378.07591247254 0 0 69 (C1) n - 1
REM
REM in /home/bkarasulu/work/CARBON/AIRSS/Generating-Clusters/AIREBO/with-SteepDescent/Only-C1/SD-CG-opt/Try1-1.4A-POS3A/HFTN-CG
REM
REM
REM
REM
REM
REM ./C.cell (11c1c37f851c82e70ff6c80c92926a4b)
REM
REM compiler GCC version 9.2.1 20190827 (Red Hat 9.2.1-1)
REM options -cpp -mtune=generic -march=x86-64 -g -O0 -fpre-include=/usr/include/finclude/math-vector-fortran.h
REM seed -630073143 2007013360 -1628366652 1398765239 340117815 1613419136 1112402299 219843333 694606908 -1839825884 700908052 -185319990 -1881112858 945730783 880213313 -1125413359 1890946306 -35545686 2131259064 356029628 -1761243865 -1047044813 -1048411608 721614809 537798353 -934451483 750404830 1811107107 1156620902 332499220 -581971653 -1446884189 -1195655762
REM
CELL 1.54180   50.00000   50.00000   50.00000   90.00000   90.00000   90.00000
LATT -1
SFAC C  
C      1  0.4333090000000  0.5324270000000  0.4983240000000 1.0
C      1  0.4592230000000  0.4525650000000  0.4763800000000 1.0
C      1  0.4928470000000  0.5892640000000  0.5438670000000 1.0
C      1  0.5031760000000  0.5181150000000  0.4378840000000 1.0
C      1  0.5098590000000  0.4727070000000  0.4949300000000 1.0
C      1  0.4989650000000  0.4689800000000  0.4324390000000 1.0
C      1  0.4979210000000  0.4975520000000  0.5531190000000 1.0
C      1  0.4989650000000  0.5312670000000  0.5487520000000 1.0
C      1  0.5275090000000  0.5231340000000  0.5653720000000 1.0
C      1  0.5094180000000  0.4719790000000  0.4646540000000 1.0
C      1  0.5456360000000  0.5064440000000  0.5520180000000 1.0
C      1  0.5115790000000  0.5133340000000  0.4869680000000 1.0
C      1  0.5664550000000  0.5108580000000  0.5330690000000 1.0
C      1  0.5356530000000  0.4362160000000  0.5527150000000 1.0
C      1  0.4280830000000  0.4694920000000  0.5198070000000 1.0
C      1  0.4673220000000  0.5301690000000  0.4777300000000 1.0
C      1  0.4350310000000  0.5267070000000  0.4686780000000 1.0
C      1  0.5124160000000  0.5825690000000  0.5607640000000 1.0
C      1  0.5596230000000  0.4827540000000  0.4754950000000 1.0
C      1  0.5417570000000  0.4683020000000  0.4576950000000 1.0
C      1  0.4753020000000  0.4442630000000  0.5260570000000 1.0
C      1  0.4592320000000  0.5487940000000  0.5050030000000 1.0
C      1  0.4889280000000  0.5083190000000  0.4671750000000 1.0
C      1  0.5642490000000  0.5103770000000  0.4715530000000 1.0
C      1  0.5534140000000  0.5319140000000  0.4861260000000 1.0
C      1  0.5148990000000  0.5066480000000  0.5181190000000 1.0
C      1  0.4907240000000  0.5666790000000  0.5211480000000 1.0
C      1  0.5311180000000  0.5326290000000  0.5255250000000 1.0
C      1  0.5235360000000  0.4510420000000  0.4339560000000 1.0
C      1  0.4795280000000  0.5425200000000  0.4391150000000 1.0
C      1  0.4930390000000  0.4109540000000  0.4925750000000 1.0
C      1  0.5246510000000  0.4344120000000  0.5225200000000 1.0
C      1  0.4763100000000  0.4767760000000  0.4643890000000 1.0
C      1  0.5299010000000  0.5795780000000  0.4887110000000 1.0
C      1  0.4507310000000  0.4980720000000  0.4617330000000 1.0
C      1  0.4695470000000  0.4272200000000  0.4771950000000 1.0
C      1  0.4354790000000  0.5077520000000  0.5118140000000 1.0
C      1  0.4714290000000  0.5417990000000  0.5344180000000 1.0
C      1  0.5394210000000  0.4349820000000  0.4567160000000 1.0
C      1  0.5190030000000  0.4167330000000  0.4990250000000 1.0
C      1  0.5101900000000  0.5572810000000  0.4374960000000 1.0
C      1  0.4695090000000  0.3948580000000  0.4771840000000 1.0
C      1  0.4721980000000  0.4655190000000  0.5779150000000 1.0
C      1  0.5260580000000  0.4834000000000  0.5402950000000 1.0
C      1  0.4370200000000  0.4588610000000  0.4934730000000 1.0
C      1  0.5327700000000  0.4641200000000  0.5131020000000 1.0
C      1  0.5370490000000  0.4172060000000  0.4774390000000 1.0
C      1  0.5582240000000  0.5319990000000  0.5142420000000 1.0
C      1  0.4618850000000  0.4727710000000  0.5215160000000 1.0
C      1  0.4780510000000  0.5658310000000  0.4596060000000 1.0
C      1  0.5597300000000  0.4740250000000  0.5020240000000 1.0
C      1  0.5213270000000  0.5565900000000  0.5448040000000 1.0
C      1  0.5766010000000  0.4872700000000  0.5206050000000 1.0
C      1  0.4482530000000  0.5265920000000  0.5446880000000 1.0
C      1  0.5247530000000  0.5373930000000  0.4200650000000 1.0
C      1  0.4973330000000  0.4643760000000  0.5606160000000 1.0
C      1  0.4354900000000  0.4953340000000  0.5410960000000 1.0
C      1  0.4571090000000  0.4933170000000  0.4948220000000 1.0
C      1  0.4882450000000  0.4897230000000  0.5083180000000 1.0
C      1  0.5231560000000  0.5408580000000  0.4822840000000 1.0
C      1  0.4987580000000  0.4450850000000  0.5400890000000 1.0
C      1  0.4655860000000  0.4868300000000  0.5522580000000 1.0
C      1  0.4951810000000  0.5593130000000  0.4882430000000 1.0
C      1  0.4872540000000  0.4925220000000  0.4243830000000 1.0
C      1  0.5229870000000  0.5655760000000  0.4607420000000 1.0
C      1  0.5370080000000  0.4601200000000  0.5614980000000 1.0
C      1  0.5237230000000  0.5698770000000  0.5135730000000 1.0
C      1  0.4649760000000  0.5749830000000  0.4882110000000 1.0
C      1  0.4643890000000  0.5120710000000  0.4358780000000 1.0
END
