TITL C-2847952-8118-456 0.000895471908735773 125000 -375.620838362212 0 0 70 (C1) n - 1
REM
REM in /home/bkarasulu/work/CARBON/AIRSS/Generating-Clusters/AIREBO/with-SteepDescent/Only-C1/SD-CG-opt/Try1-1.4A-POS3A/HFTN-CG
REM
REM
REM
REM
REM
REM ./C.cell (11c1c37f851c82e70ff6c80c92926a4b)
REM
REM compiler GCC version 9.2.1 20190827 (Red Hat 9.2.1-1)
REM options -cpp -mtune=generic -march=x86-64 -g -O0 -fpre-include=/usr/include/finclude/math-vector-fortran.h
REM seed 1356846957 1112699138 2001496566 1765799884 1684546252 1748213215 -952485868 1851595956 793030658 -1326297425 2071961402 1049499144 1347992654 1266414718 419412784 -1666382576 -972475730 236479750 -2054276853 2098345119 -1190099882 615788614 -1563670475 -1702663061 -467427960 371458509 -660236937 1653917133 1862867078 1744791079 211122391 -1462685158 -566486850
REM
CELL 1.54180   50.00000   50.00000   50.00000   90.00000   90.00000   90.00000
LATT -1
SFAC C  
C      1  0.4750120000000  0.4689510000000  0.5101120000000 1.0
C      1  0.5472400000000  0.4401870000000  0.4855300000000 1.0
C      1  0.4257990000000  0.4739680000000  0.5004000000000 1.0
C      1  0.4638530000000  0.4494240000000  0.5356380000000 1.0
C      1  0.5748410000000  0.4860890000000  0.5063320000000 1.0
C      1  0.4331230000000  0.4953840000000  0.5190850000000 1.0
C      1  0.4016380000000  0.4655580000000  0.4954970000000 1.0
C      1  0.4512430000000  0.5006080000000  0.4556640000000 1.0
C      1  0.5089610000000  0.5862270000000  0.4754040000000 1.0
C      1  0.4556320000000  0.4311520000000  0.4926710000000 1.0
C      1  0.5403190000000  0.5255010000000  0.5603020000000 1.0
C      1  0.5230860000000  0.4739070000000  0.4761390000000 1.0
C      1  0.5178880000000  0.5260150000000  0.4203060000000 1.0
C      1  0.5330780000000  0.4570830000000  0.5108230000000 1.0
C      1  0.5077280000000  0.4443020000000  0.4829860000000 1.0
C      1  0.5264750000000  0.5100470000000  0.4402700000000 1.0
C      1  0.5101010000000  0.4517560000000  0.5340280000000 1.0
C      1  0.4420640000000  0.4913980000000  0.5511940000000 1.0
C      1  0.4785540000000  0.4973860000000  0.5256470000000 1.0
C      1  0.4510190000000  0.4621740000000  0.4869290000000 1.0
C      1  0.5330990000000  0.5194190000000  0.4685590000000 1.0
C      1  0.4853280000000  0.5248360000000  0.5084180000000 1.0
C      1  0.4867600000000  0.5421940000000  0.5634120000000 1.0
C      1  0.5079350000000  0.5084860000000  0.4887870000000 1.0
C      1  0.5526260000000  0.5428520000000  0.4839520000000 1.0
C      1  0.5633420000000  0.5207540000000  0.5388980000000 1.0
C      1  0.5367340000000  0.4536260000000  0.4416570000000 1.0
C      1  0.5733630000000  0.5434950000000  0.5277980000000 1.0
C      1  0.5350190000000  0.5489740000000  0.5383870000000 1.0
C      1  0.4617220000000  0.5736030000000  0.5102730000000 1.0
C      1  0.5000090000000  0.4351990000000  0.5107740000000 1.0
C      1  0.5072230000000  0.4387700000000  0.4501120000000 1.0
C      1  0.5345860000000  0.5109970000000  0.5235790000000 1.0
C      1  0.4451970000000  0.5223740000000  0.5050760000000 1.0
C      1  0.4587080000000  0.5418020000000  0.5514490000000 1.0
C      1  0.4770700000000  0.5525270000000  0.5264180000000 1.0
C      1  0.4529160000000  0.4620370000000  0.5563830000000 1.0
C      1  0.5611690000000  0.4831130000000  0.4690210000000 1.0
C      1  0.4763670000000  0.4457810000000  0.4420870000000 1.0
C      1  0.4863000000000  0.4964910000000  0.4284180000000 1.0
C      1  0.4874680000000  0.5600080000000  0.4752280000000 1.0
C      1  0.5091390000000  0.5652480000000  0.4997380000000 1.0
C      1  0.4413290000000  0.5434100000000  0.4814090000000 1.0
C      1  0.5432420000000  0.4925370000000  0.4963310000000 1.0
C      1  0.5199770000000  0.4808890000000  0.4431750000000 1.0
C      1  0.5564590000000  0.4564640000000  0.4627530000000 1.0
C      1  0.5895320000000  0.5023700000000  0.4895110000000 1.0
C      1  0.5281120000000  0.4205820000000  0.4701470000000 1.0
C      1  0.4751650000000  0.4952540000000  0.5565580000000 1.0
C      1  0.5669180000000  0.5165810000000  0.4707810000000 1.0
C      1  0.4957750000000  0.4754240000000  0.5726360000000 1.0
C      1  0.5161950000000  0.5380030000000  0.5139420000000 1.0
C      1  0.4577390000000  0.4695000000000  0.4581920000000 1.0
C      1  0.5251840000000  0.5161500000000  0.5883170000000 1.0
C      1  0.4727770000000  0.4293880000000  0.5152090000000 1.0
C      1  0.4744240000000  0.5225580000000  0.4438070000000 1.0
C      1  0.4971880000000  0.5151910000000  0.5701710000000 1.0
C      1  0.4899140000000  0.4747670000000  0.4518850000000 1.0
C      1  0.4917640000000  0.5348960000000  0.4194710000000 1.0
C      1  0.5070490000000  0.4781260000000  0.5042110000000 1.0
C      1  0.5608260000000  0.4670550000000  0.5223950000000 1.0
C      1  0.4590800000000  0.5649900000000  0.4842750000000 1.0
C      1  0.4673970000000  0.5131800000000  0.4819730000000 1.0
C      1  0.5179840000000  0.4671880000000  0.5555170000000 1.0
C      1  0.5524390000000  0.5542090000000  0.5095420000000 1.0
C      1  0.5214750000000  0.4986250000000  0.5526640000000 1.0
C      1  0.4357990000000  0.5299170000000  0.4581220000000 1.0
C      1  0.4915440000000  0.5311550000000  0.4694440000000 1.0
C      1  0.4403690000000  0.5224390000000  0.5387490000000 1.0
C      1  0.5046080000000  0.5594520000000  0.5454300000000 1.0
END
