TITL C-2848507-1641-241 0.135114477782076 125000 -136.588011522566 0 0 26 (C1) n - 1
REM
REM in /home/bkarasulu/work/CARBON/AIRSS/Generating-Clusters/AIREBO/with-SteepDescent/Only-C1/SD-CG-opt/Try1-1.4A-POS3A/HFTN-CG
REM
REM
REM
REM
REM
REM ./C.cell (11c1c37f851c82e70ff6c80c92926a4b)
REM
REM compiler GCC version 9.2.1 20190827 (Red Hat 9.2.1-1)
REM options -cpp -mtune=generic -march=x86-64 -g -O0 -fpre-include=/usr/include/finclude/math-vector-fortran.h
REM seed -1125317279 486960367 1915945975 1235403112 807417669 -269859306 1419716279 1596573411 -1797581460 -641743477 1067629029 -1619436371 -1798411421 1720702803 1287111936 1180392845 -1430100836 -877142114 912927270 828207688 454073935 1539502280 1941580939 1573109262 -1401722771 -1265077355 1561381810 1981846454 -455352043 -1083186321 188162832 2134338242 2081400606
REM
CELL 1.54180   50.00000   50.00000   50.00000   90.00000   90.00000   90.00000
LATT -1
SFAC C  
C      1  0.4812980000000  0.5358680000000  0.5143750000000 1.0
C      1  0.5326440000000  0.4896320000000  0.5323410000000 1.0
C      1  0.4863150000000  0.4621220000000  0.4377130000000 1.0
C      1  0.5062050000000  0.5759620000000  0.5276960000000 1.0
C      1  0.4118320000000  0.5110750000000  0.5558320000000 1.0
C      1  0.5117540000000  0.5160840000000  0.4734740000000 1.0
C      1  0.5648950000000  0.4542600000000  0.5171720000000 1.0
C      1  0.5447380000000  0.4719970000000  0.5101230000000 1.0
C      1  0.4558080000000  0.5203240000000  0.5290960000000 1.0
C      1  0.4376580000000  0.5140500000000  0.5512930000000 1.0
C      1  0.4827990000000  0.5651280000000  0.5182960000000 1.0
C      1  0.4614210000000  0.5805630000000  0.5106620000000 1.0
C      1  0.4872760000000  0.5140610000000  0.5388600000000 1.0
C      1  0.5279280000000  0.4793790000000  0.4208360000000 1.0
C      1  0.5479720000000  0.4883840000000  0.4824270000000 1.0
C      1  0.5579340000000  0.5131740000000  0.4761140000000 1.0
C      1  0.5365740000000  0.5302550000000  0.4697890000000 1.0
C      1  0.4837240000000  0.4268300000000  0.5045540000000 1.0
C      1  0.5106280000000  0.4744260000000  0.4415710000000 1.0
C      1  0.5170910000000  0.4849400000000  0.4683400000000 1.0
C      1  0.4637960000000  0.5109180000000  0.5668540000000 1.0
C      1  0.5022550000000  0.4439590000000  0.4974740000000 1.0
C      1  0.5195650000000  0.4629000000000  0.4917720000000 1.0
C      1  0.4643510000000  0.4481690000000  0.4345540000000 1.0
C      1  0.5123220000000  0.4998920000000  0.5414440000000 1.0
C      1  0.4912170000000  0.5256470000000  0.4873350000000 1.0
END
