TITL C-2848509-3138-222 -0.00135480894557913 125000 -801.198482512373 0 0 150 (C1) n - 1
REM
REM in /home/bkarasulu/work/CARBON/AIRSS/Generating-Clusters/AIREBO/with-SteepDescent/Only-C1/SD-CG-opt/Try1-1.4A-POS3A/HFTN-CG
REM
REM
REM
REM
REM
REM ./C.cell (11c1c37f851c82e70ff6c80c92926a4b)
REM
REM compiler GCC version 9.2.1 20190827 (Red Hat 9.2.1-1)
REM options -cpp -mtune=generic -march=x86-64 -g -O0 -fpre-include=/usr/include/finclude/math-vector-fortran.h
REM seed 1598251407 -36012085 -1509954072 1647420877 -1361438890 579971914 -695939074 155328136 729039542 297177199 -1954944475 -978270218 270485275 -1786141582 -308985028 -1752288667 -2017675711 -1160556633 -302793954 -481421189 -994206704 -1397364281 -163664974 -1683028554 -298390301 1730862968 -1919256082 1671110099 -1026927383 -1491146915 188266931 -1856100266 -789230166
REM
CELL 1.54180   50.00000   50.00000   50.00000   90.00000   90.00000   90.00000
LATT -1
SFAC C  
C      1  0.6083070000000  0.4712160000000  0.5096200000000 1.0
C      1  0.4735990000000  0.5377810000000  0.6009180000000 1.0
C      1  0.4528170000000  0.4548720000000  0.4682010000000 1.0
C      1  0.4590260000000  0.5193020000000  0.5511030000000 1.0
C      1  0.4942550000000  0.4620140000000  0.4429830000000 1.0
C      1  0.5670220000000  0.5009710000000  0.5806630000000 1.0
C      1  0.5734130000000  0.5409090000000  0.5465950000000 1.0
C      1  0.4656390000000  0.4567250000000  0.5859190000000 1.0
C      1  0.4960810000000  0.5914840000000  0.4515580000000 1.0
C      1  0.5409060000000  0.5004130000000  0.5506300000000 1.0
C      1  0.5802310000000  0.5189240000000  0.4428780000000 1.0
C      1  0.5553870000000  0.4320690000000  0.5744540000000 1.0
C      1  0.5446640000000  0.4773250000000  0.4090720000000 1.0
C      1  0.5689080000000  0.5472990000000  0.4511560000000 1.0
C      1  0.4611070000000  0.5599740000000  0.4253880000000 1.0
C      1  0.5041460000000  0.4856750000000  0.5988250000000 1.0
C      1  0.4916720000000  0.4894150000000  0.4141450000000 1.0
C      1  0.5558830000000  0.4846970000000  0.5102270000000 1.0
C      1  0.4250200000000  0.4522380000000  0.5498460000000 1.0
C      1  0.5291440000000  0.5062450000000  0.4440420000000 1.0
C      1  0.5204310000000  0.4700010000000  0.5665280000000 1.0
C      1  0.4889600000000  0.5140790000000  0.4635560000000 1.0
C      1  0.4359310000000  0.5274030000000  0.4879220000000 1.0
C      1  0.5074070000000  0.4681190000000  0.4737500000000 1.0
C      1  0.4380330000000  0.5161120000000  0.4474020000000 1.0
C      1  0.5037940000000  0.5972640000000  0.5464090000000 1.0
C      1  0.4149750000000  0.4570440000000  0.4953220000000 1.0
C      1  0.4445050000000  0.5759260000000  0.4410200000000 1.0
C      1  0.4492880000000  0.5350490000000  0.4214860000000 1.0
C      1  0.5270990000000  0.5025410000000  0.5133220000000 1.0
C      1  0.4825440000000  0.3950520000000  0.5038200000000 1.0
C      1  0.5857790000000  0.5835050000000  0.4813340000000 1.0
C      1  0.5425890000000  0.5689090000000  0.4559180000000 1.0
C      1  0.4440650000000  0.4748560000000  0.5317580000000 1.0
C      1  0.5018360000000  0.4269810000000  0.4232370000000 1.0
C      1  0.5455850000000  0.4962840000000  0.4696310000000 1.0
C      1  0.4224570000000  0.5044540000000  0.5637010000000 1.0
C      1  0.5093370000000  0.5325250000000  0.4922190000000 1.0
C      1  0.5146780000000  0.4570930000000  0.5288750000000 1.0
C      1  0.4653560000000  0.4324690000000  0.5701720000000 1.0
C      1  0.4943980000000  0.4560810000000  0.4094960000000 1.0
C      1  0.4104870000000  0.5360520000000  0.4475280000000 1.0
C      1  0.5331630000000  0.5259140000000  0.5997490000000 1.0
C      1  0.4683620000000  0.4881240000000  0.5468330000000 1.0
C      1  0.4536990000000  0.4153000000000  0.4683550000000 1.0
C      1  0.5344090000000  0.4451210000000  0.5842370000000 1.0
C      1  0.4983700000000  0.5093650000000  0.5641720000000 1.0
C      1  0.4664740000000  0.4798200000000  0.4343780000000 1.0
C      1  0.4166620000000  0.4755390000000  0.4291870000000 1.0
C      1  0.5036260000000  0.4031480000000  0.4866190000000 1.0
C      1  0.4452980000000  0.4727130000000  0.5969000000000 1.0
C      1  0.4959100000000  0.5372650000000  0.5230940000000 1.0
C      1  0.4100860000000  0.4836050000000  0.5125840000000 1.0
C      1  0.5263200000000  0.5333450000000  0.4630360000000 1.0
C      1  0.4864140000000  0.5923680000000  0.5041770000000 1.0
C      1  0.5461910000000  0.4510200000000  0.4305010000000 1.0
C      1  0.5186650000000  0.6031030000000  0.5029160000000 1.0
C      1  0.5385610000000  0.5528150000000  0.4260270000000 1.0
C      1  0.4791780000000  0.4357440000000  0.4584410000000 1.0
C      1  0.4416790000000  0.4339020000000  0.4449500000000 1.0
C      1  0.5379360000000  0.4597740000000  0.4613250000000 1.0
C      1  0.4480340000000  0.4633570000000  0.5002170000000 1.0
C      1  0.5274580000000  0.5676730000000  0.4867880000000 1.0
C      1  0.4450580000000  0.5621840000000  0.4706370000000 1.0
C      1  0.5042900000000  0.5391580000000  0.5755260000000 1.0
C      1  0.5198380000000  0.4809830000000  0.4291190000000 1.0
C      1  0.5222260000000  0.4047840000000  0.5309730000000 1.0
C      1  0.4861620000000  0.4486920000000  0.5179170000000 1.0
C      1  0.4306380000000  0.4291020000000  0.4891870000000 1.0
C      1  0.4938270000000  0.5629760000000  0.4887610000000 1.0
C      1  0.5363200000000  0.5423990000000  0.5077490000000 1.0
C      1  0.5193540000000  0.5792980000000  0.4333580000000 1.0
C      1  0.5628180000000  0.5124060000000  0.4941100000000 1.0
C      1  0.4580750000000  0.5957030000000  0.5170170000000 1.0
C      1  0.4451610000000  0.5576780000000  0.5558150000000 1.0
C      1  0.5669990000000  0.4860840000000  0.5406070000000 1.0
C      1  0.4291870000000  0.5303090000000  0.5473320000000 1.0
C      1  0.5791680000000  0.5120670000000  0.4165010000000 1.0
C      1  0.4990980000000  0.6043270000000  0.4749770000000 1.0
C      1  0.5452210000000  0.5464750000000  0.5871130000000 1.0
C      1  0.5333910000000  0.5251170000000  0.4178240000000 1.0
C      1  0.5790550000000  0.4925650000000  0.4643480000000 1.0
C      1  0.4133980000000  0.5338380000000  0.5212290000000 1.0
C      1  0.4992130000000  0.4357380000000  0.5686120000000 1.0
C      1  0.4132550000000  0.5591550000000  0.5115230000000 1.0
C      1  0.4603640000000  0.4980770000000  0.4565440000000 1.0
C      1  0.4575620000000  0.4355700000000  0.5173700000000 1.0
C      1  0.4562650000000  0.4088210000000  0.4996400000000 1.0
C      1  0.4869290000000  0.4735320000000  0.5713170000000 1.0
C      1  0.5968260000000  0.5338000000000  0.4932810000000 1.0
C      1  0.5745640000000  0.5804870000000  0.4559400000000 1.0
C      1  0.4925570000000  0.3969970000000  0.5305750000000 1.0
C      1  0.4099590000000  0.5102070000000  0.4986340000000 1.0
C      1  0.5229920000000  0.4319260000000  0.4428750000000 1.0
C      1  0.5444850000000  0.5513730000000  0.5565980000000 1.0
C      1  0.4690520000000  0.5122790000000  0.5811750000000 1.0
C      1  0.5777650000000  0.5146210000000  0.5556410000000 1.0
C      1  0.5108970000000  0.4890070000000  0.5399910000000 1.0
C      1  0.5546990000000  0.5058010000000  0.4063980000000 1.0
C      1  0.4613010000000  0.4928440000000  0.4895880000000 1.0
C      1  0.4423360000000  0.4666380000000  0.4220150000000 1.0
C      1  0.4141030000000  0.4824760000000  0.5441060000000 1.0
C      1  0.4925200000000  0.5316160000000  0.3848580000000 1.0
C      1  0.4344890000000  0.5681100000000  0.4980330000000 1.0
C      1  0.5374870000000  0.5810350000000  0.5165380000000 1.0
C      1  0.5265900000000  0.4330680000000  0.5469160000000 1.0
C      1  0.5782060000000  0.4426960000000  0.4884350000000 1.0
C      1  0.5018890000000  0.5188430000000  0.6026960000000 1.0
C      1  0.4703100000000  0.5594030000000  0.5769270000000 1.0
C      1  0.4810960000000  0.5416100000000  0.5500340000000 1.0
C      1  0.5376430000000  0.5277300000000  0.5351040000000 1.0
C      1  0.5287760000000  0.4045890000000  0.5031620000000 1.0
C      1  0.5141440000000  0.5004400000000  0.4819430000000 1.0
C      1  0.4025370000000  0.4815210000000  0.4528670000000 1.0
C      1  0.3959590000000  0.4623430000000  0.4708940000000 1.0
C      1  0.4722520000000  0.5227020000000  0.5034600000000 1.0
C      1  0.5819840000000  0.4728690000000  0.4919150000000 1.0
C      1  0.5802330000000  0.4600830000000  0.5455080000000 1.0
C      1  0.4885130000000  0.4241920000000  0.5397130000000 1.0
C      1  0.5396670000000  0.4327200000000  0.4907300000000 1.0
C      1  0.5601940000000  0.4357340000000  0.5422280000000 1.0
C      1  0.5020080000000  0.5184850000000  0.4104970000000 1.0
C      1  0.4896100000000  0.5628440000000  0.4341360000000 1.0
C      1  0.5610390000000  0.4364250000000  0.4645440000000 1.0
C      1  0.5338010000000  0.4951440000000  0.5851240000000 1.0
C      1  0.5991480000000  0.5149610000000  0.4775920000000 1.0
C      1  0.4631090000000  0.5341950000000  0.4727760000000 1.0
C      1  0.4475510000000  0.4380060000000  0.4170760000000 1.0
C      1  0.4852350000000  0.4964630000000  0.5207660000000 1.0
C      1  0.4098540000000  0.5081760000000  0.4646940000000 1.0
C      1  0.5625030000000  0.4490120000000  0.4026880000000 1.0
C      1  0.5096270000000  0.4341750000000  0.4740580000000 1.0
C      1  0.5006720000000  0.5714870000000  0.5675020000000 1.0
C      1  0.4868710000000  0.4720740000000  0.4980080000000 1.0
C      1  0.5295600000000  0.5756120000000  0.5492890000000 1.0
C      1  0.4183310000000  0.5621480000000  0.4510460000000 1.0
C      1  0.5351380000000  0.4599000000000  0.5066480000000 1.0
C      1  0.4729100000000  0.4315290000000  0.4074890000000 1.0
C      1  0.5012620000000  0.5343890000000  0.4395790000000 1.0
C      1  0.5654990000000  0.5635890000000  0.5249910000000 1.0
C      1  0.5551510000000  0.5398440000000  0.4801800000000 1.0
C      1  0.4416040000000  0.4972930000000  0.5834740000000 1.0
C      1  0.4652020000000  0.5559020000000  0.5060310000000 1.0
C      1  0.5656930000000  0.4283510000000  0.5125960000000 1.0
C      1  0.4523820000000  0.5721940000000  0.5330100000000 1.0
C      1  0.5776750000000  0.5583640000000  0.4976900000000 1.0
C      1  0.5058030000000  0.4513920000000  0.5981190000000 1.0
C      1  0.6052340000000  0.4592710000000  0.5344910000000 1.0
C      1  0.4965360000000  0.5705290000000  0.5278820000000 1.0
C      1  0.4488330000000  0.4350880000000  0.5470290000000 1.0
END
