TITL C-2847950-6905-298 0.00247148160480092 125000 -430.585645550393 0 0 77 (C1) n - 1
REM
REM in /home/bkarasulu/work/CARBON/AIRSS/Generating-Clusters/AIREBO/with-SteepDescent/Only-C1/SD-CG-opt/Try1-1.4A-POS3A/HFTN-CG
REM
REM
REM
REM
REM
REM ./C.cell (11c1c37f851c82e70ff6c80c92926a4b)
REM
REM compiler GCC version 9.2.1 20190827 (Red Hat 9.2.1-1)
REM options -cpp -mtune=generic -march=x86-64 -g -O0 -fpre-include=/usr/include/finclude/math-vector-fortran.h
REM seed 2042157105 1144100518 1813395696 -894922813 1938172946 1612822334 -913224067 1652433401 -146199294 1837011254 964435197 -1944917190 -1358148767 199244714 1040381932 213551094 -1603491999 1610977851 -1345345992 1877987034 7967900 1068291875 509950036 795551676 -482118154 -596271370 418194801 300372342 358008085 -413359020 -926383394 1552536869 -463442766
REM
CELL 1.54180   50.00000   50.00000   50.00000   90.00000   90.00000   90.00000
LATT -1
SFAC C  
C      1  0.5035940000000  0.5991100000000  0.4672940000000 1.0
C      1  0.5392840000000  0.4541340000000  0.5033400000000 1.0
C      1  0.5072040000000  0.5190040000000  0.5724800000000 1.0
C      1  0.5107740000000  0.5741710000000  0.4882230000000 1.0
C      1  0.4625890000000  0.5527040000000  0.5426350000000 1.0
C      1  0.4849770000000  0.4319070000000  0.4313550000000 1.0
C      1  0.4690880000000  0.4232410000000  0.4109520000000 1.0
C      1  0.5379130000000  0.4756780000000  0.4500660000000 1.0
C      1  0.4778370000000  0.5352060000000  0.5259990000000 1.0
C      1  0.5115950000000  0.4125140000000  0.5016370000000 1.0
C      1  0.5080110000000  0.4770100000000  0.4936220000000 1.0
C      1  0.4685690000000  0.4726570000000  0.4971520000000 1.0
C      1  0.4324060000000  0.5192890000000  0.4801850000000 1.0
C      1  0.5903840000000  0.5325070000000  0.4935560000000 1.0
C      1  0.4925120000000  0.4805900000000  0.4358380000000 1.0
C      1  0.5260510000000  0.4596530000000  0.4038500000000 1.0
C      1  0.5879030000000  0.5259120000000  0.5445480000000 1.0
C      1  0.5215100000000  0.4796880000000  0.4232870000000 1.0
C      1  0.5200950000000  0.5441050000000  0.4839360000000 1.0
C      1  0.4825040000000  0.5083810000000  0.5382240000000 1.0
C      1  0.4888370000000  0.4550180000000  0.4784520000000 1.0
C      1  0.4409880000000  0.4575070000000  0.5448440000000 1.0
C      1  0.4808520000000  0.5255320000000  0.5806950000000 1.0
C      1  0.4700920000000  0.5504840000000  0.5701810000000 1.0
C      1  0.4918980000000  0.5317880000000  0.4768160000000 1.0
C      1  0.4476400000000  0.4512080000000  0.5132980000000 1.0
C      1  0.4692520000000  0.5525050000000  0.4678390000000 1.0
C      1  0.5118720000000  0.6212260000000  0.4549380000000 1.0
C      1  0.4786510000000  0.4568630000000  0.4471440000000 1.0
C      1  0.5615620000000  0.5182180000000  0.5501400000000 1.0
C      1  0.4599450000000  0.5035580000000  0.5805140000000 1.0
C      1  0.5268720000000  0.4806040000000  0.5207910000000 1.0
C      1  0.5104040000000  0.5800180000000  0.5184250000000 1.0
C      1  0.5059000000000  0.5630990000000  0.5365470000000 1.0
C      1  0.4370250000000  0.4862670000000  0.4735020000000 1.0
C      1  0.5638770000000  0.4809860000000  0.5358640000000 1.0
C      1  0.5135130000000  0.5017380000000  0.5438750000000 1.0
C      1  0.4670000000000  0.5268120000000  0.4982470000000 1.0
C      1  0.5361550000000  0.4528690000000  0.5699030000000 1.0
C      1  0.5348110000000  0.4501880000000  0.4723540000000 1.0
C      1  0.5164790000000  0.4956260000000  0.4723150000000 1.0
C      1  0.5373430000000  0.5271870000000  0.5631330000000 1.0
C      1  0.5459190000000  0.5053370000000  0.4624610000000 1.0
C      1  0.4837470000000  0.4242230000000  0.4880300000000 1.0
C      1  0.5291150000000  0.4272010000000  0.5172370000000 1.0
C      1  0.4907820000000  0.5067620000000  0.4543950000000 1.0
C      1  0.4243500000000  0.4724030000000  0.4994810000000 1.0
C      1  0.4874600000000  0.4853640000000  0.5188120000000 1.0
C      1  0.4513730000000  0.4566370000000  0.4648740000000 1.0
C      1  0.5421580000000  0.5383290000000  0.4629070000000 1.0
C      1  0.4358070000000  0.5265150000000  0.5121270000000 1.0
C      1  0.5470980000000  0.5067390000000  0.5232740000000 1.0
C      1  0.5960220000000  0.5355570000000  0.5200620000000 1.0
C      1  0.4366160000000  0.5539620000000  0.5292590000000 1.0
C      1  0.4674410000000  0.5002370000000  0.4786340000000 1.0
C      1  0.5180840000000  0.5349080000000  0.5375560000000 1.0
C      1  0.4543220000000  0.4368780000000  0.4865250000000 1.0
C      1  0.5426430000000  0.5534920000000  0.4396220000000 1.0
C      1  0.4254080000000  0.4799450000000  0.5291710000000 1.0
C      1  0.5558550000000  0.4693360000000  0.5603040000000 1.0
C      1  0.4850350000000  0.5264350000000  0.4318720000000 1.0
C      1  0.4561440000000  0.5064490000000  0.5520020000000 1.0
C      1  0.4509620000000  0.4777910000000  0.5879490000000 1.0
C      1  0.4838600000000  0.4502150000000  0.5687100000000 1.0
C      1  0.5673550000000  0.4631240000000  0.5151820000000 1.0
C      1  0.4816910000000  0.5768410000000  0.4707750000000 1.0
C      1  0.4565620000000  0.4573910000000  0.5682740000000 1.0
C      1  0.5129130000000  0.4240390000000  0.4710000000000 1.0
C      1  0.5092390000000  0.4213120000000  0.4395950000000 1.0
C      1  0.5709190000000  0.5284070000000  0.4762300000000 1.0
C      1  0.5102400000000  0.4445400000000  0.5688410000000 1.0
C      1  0.4442220000000  0.5391270000000  0.4647870000000 1.0
C      1  0.5360450000000  0.4362570000000  0.4413530000000 1.0
C      1  0.5275980000000  0.5053100000000  0.4119870000000 1.0
C      1  0.5189620000000  0.6443060000000  0.4447380000000 1.0
C      1  0.4348350000000  0.5053880000000  0.5343080000000 1.0
C      1  0.5334500000000  0.5324800000000  0.5096700000000 1.0
END
