TITL C-2847950-6905-677 0.000116552040467986 125000 -884.012816573993 0 0 168 (C1) n - 1
REM
REM in /home/bkarasulu/work/CARBON/AIRSS/Generating-Clusters/AIREBO/with-SteepDescent/Only-C1/SD-CG-opt/Try1-1.4A-POS3A/HFTN-CG
REM
REM
REM
REM
REM
REM ./C.cell (11c1c37f851c82e70ff6c80c92926a4b)
REM
REM compiler GCC version 9.2.1 20190827 (Red Hat 9.2.1-1)
REM options -cpp -mtune=generic -march=x86-64 -g -O0 -fpre-include=/usr/include/finclude/math-vector-fortran.h
REM seed 1918615252 214129549 -1599276265 283840490 1892139169 951925814 -51870411 -1062019280 1392747950 2079684077 2035997130 1267723393 -48560222 -1357400249 -3572326 1738545804 -1453198099 1675760638 -126993779 2143888671 2031233233 1500098400 -1327518302 -977372820 -1647686259 -1009010734 69219395 -1632541128 -1965384574 825363419 -446225371 -187747247 -1674676866
REM
CELL 1.54180   50.00000   50.00000   50.00000   90.00000   90.00000   90.00000
LATT -1
SFAC C  
C      1  0.5378160000000  0.4911460000000  0.3997200000000 1.0
C      1  0.4680000000000  0.4776610000000  0.5950850000000 1.0
C      1  0.5716020000000  0.4821190000000  0.5209710000000 1.0
C      1  0.5520190000000  0.4924140000000  0.5971640000000 1.0
C      1  0.4289470000000  0.5666610000000  0.5189710000000 1.0
C      1  0.4717510000000  0.6040210000000  0.4931630000000 1.0
C      1  0.5843510000000  0.5243900000000  0.4566000000000 1.0
C      1  0.5010730000000  0.4697390000000  0.5960650000000 1.0
C      1  0.4496810000000  0.5958430000000  0.4762640000000 1.0
C      1  0.4792020000000  0.5083290000000  0.3939230000000 1.0
C      1  0.4507600000000  0.5355480000000  0.4846910000000 1.0
C      1  0.4319760000000  0.4698710000000  0.4639370000000 1.0
C      1  0.5343640000000  0.4628650000000  0.5971100000000 1.0
C      1  0.5601480000000  0.5806360000000  0.4627720000000 1.0
C      1  0.4986420000000  0.5620680000000  0.5497860000000 1.0
C      1  0.4882240000000  0.4100250000000  0.4415660000000 1.0
C      1  0.4705530000000  0.5970710000000  0.5206970000000 1.0
C      1  0.4239070000000  0.5546290000000  0.4779910000000 1.0
C      1  0.5332620000000  0.4959380000000  0.5411250000000 1.0
C      1  0.6028040000000  0.4676440000000  0.4951270000000 1.0
C      1  0.5790880000000  0.4633960000000  0.4711340000000 1.0
C      1  0.5354890000000  0.5200380000000  0.6087100000000 1.0
C      1  0.4563400000000  0.4893290000000  0.4553090000000 1.0
C      1  0.4420410000000  0.4862740000000  0.5448380000000 1.0
C      1  0.5075450000000  0.4483120000000  0.4165950000000 1.0
C      1  0.5941450000000  0.4941390000000  0.4488460000000 1.0
C      1  0.4991480000000  0.5244710000000  0.4718770000000 1.0
C      1  0.4364930000000  0.4501710000000  0.5227490000000 1.0
C      1  0.5556960000000  0.5323270000000  0.4726090000000 1.0
C      1  0.5300250000000  0.5942670000000  0.4852540000000 1.0
C      1  0.5885320000000  0.5505110000000  0.5457340000000 1.0
C      1  0.5376490000000  0.4315230000000  0.4907660000000 1.0
C      1  0.5852830000000  0.4316450000000  0.4816460000000 1.0
C      1  0.4855590000000  0.5646120000000  0.4821390000000 1.0
C      1  0.4306880000000  0.5114020000000  0.4762420000000 1.0
C      1  0.5293380000000  0.6125780000000  0.5205720000000 1.0
C      1  0.5293800000000  0.3972150000000  0.5287340000000 1.0
C      1  0.5470370000000  0.4734440000000  0.4765760000000 1.0
C      1  0.4735260000000  0.4455900000000  0.5629820000000 1.0
C      1  0.5506030000000  0.4120390000000  0.5143900000000 1.0
C      1  0.5964370000000  0.5227740000000  0.4946860000000 1.0
C      1  0.4286280000000  0.5810240000000  0.4896600000000 1.0
C      1  0.4137590000000  0.5116470000000  0.4474950000000 1.0
C      1  0.5837490000000  0.5504380000000  0.4790160000000 1.0
C      1  0.4537020000000  0.4053980000000  0.5150380000000 1.0
C      1  0.5541710000000  0.4574860000000  0.5052820000000 1.0
C      1  0.4888500000000  0.5485720000000  0.5080720000000 1.0
C      1  0.5428860000000  0.4859940000000  0.4457780000000 1.0
C      1  0.4566000000000  0.5866950000000  0.4482160000000 1.0
C      1  0.4801320000000  0.5874980000000  0.4321070000000 1.0
C      1  0.5115210000000  0.4065370000000  0.4560800000000 1.0
C      1  0.5417570000000  0.4400710000000  0.5749740000000 1.0
C      1  0.4836150000000  0.5175710000000  0.6044870000000 1.0
C      1  0.5718980000000  0.5769240000000  0.4945360000000 1.0
C      1  0.5345800000000  0.4471000000000  0.5274710000000 1.0
C      1  0.4857130000000  0.5329930000000  0.4426270000000 1.0
C      1  0.4060740000000  0.4725350000000  0.4806550000000 1.0
C      1  0.5220940000000  0.5685730000000  0.4645110000000 1.0
C      1  0.4841010000000  0.5405730000000  0.4001460000000 1.0
C      1  0.5211140000000  0.5205130000000  0.4975430000000 1.0
C      1  0.4132780000000  0.4369170000000  0.4512450000000 1.0
C      1  0.4618350000000  0.5082320000000  0.5820910000000 1.0
C      1  0.4419540000000  0.5605730000000  0.4430510000000 1.0
C      1  0.4565040000000  0.4052920000000  0.4753950000000 1.0
C      1  0.5603310000000  0.6086670000000  0.4908040000000 1.0
C      1  0.4436160000000  0.4912910000000  0.4967120000000 1.0
C      1  0.5633120000000  0.5250510000000  0.5020100000000 1.0
C      1  0.5367430000000  0.5216790000000  0.5747650000000 1.0
C      1  0.4800430000000  0.4981580000000  0.5551870000000 1.0
C      1  0.3862940000000  0.5148510000000  0.4927090000000 1.0
C      1  0.4478050000000  0.4582060000000  0.4916860000000 1.0
C      1  0.4656450000000  0.5214720000000  0.4212060000000 1.0
C      1  0.5614390000000  0.5603710000000  0.4446750000000 1.0
C      1  0.4678750000000  0.4595680000000  0.4500750000000 1.0
C      1  0.5098350000000  0.4496570000000  0.4504930000000 1.0
C      1  0.5384700000000  0.4599580000000  0.4245960000000 1.0
C      1  0.5507230000000  0.5480640000000  0.5585020000000 1.0
C      1  0.5065120000000  0.4774070000000  0.4020770000000 1.0
C      1  0.5130700000000  0.5847710000000  0.4382010000000 1.0
C      1  0.5067400000000  0.4394800000000  0.5145750000000 1.0
C      1  0.4472600000000  0.4664730000000  0.4143690000000 1.0
C      1  0.5107590000000  0.4505970000000  0.4824420000000 1.0
C      1  0.4742780000000  0.4810510000000  0.4122720000000 1.0
C      1  0.4040690000000  0.5195650000000  0.5146630000000 1.0
C      1  0.5447870000000  0.5012810000000  0.5125920000000 1.0
C      1  0.5084840000000  0.5004690000000  0.6064510000000 1.0
C      1  0.4558830000000  0.5170170000000  0.5404390000000 1.0
C      1  0.4924500000000  0.4850490000000  0.5177000000000 1.0
C      1  0.5091970000000  0.5013250000000  0.5724670000000 1.0
C      1  0.4703690000000  0.5081800000000  0.4798850000000 1.0
C      1  0.5861290000000  0.4840800000000  0.4254020000000 1.0
C      1  0.5199280000000  0.5510100000000  0.5136310000000 1.0
C      1  0.4408730000000  0.4474640000000  0.5536810000000 1.0
C      1  0.4536550000000  0.4331690000000  0.4168240000000 1.0
C      1  0.4688930000000  0.5775450000000  0.5554260000000 1.0
C      1  0.4685610000000  0.5507490000000  0.4606840000000 1.0
C      1  0.4610760000000  0.3985080000000  0.5405020000000 1.0
C      1  0.4837030000000  0.4269680000000  0.4152760000000 1.0
C      1  0.5513710000000  0.4261900000000  0.5452990000000 1.0
C      1  0.5361340000000  0.4821270000000  0.5696890000000 1.0
C      1  0.4822240000000  0.4149280000000  0.5538810000000 1.0
C      1  0.4298760000000  0.4204680000000  0.5108370000000 1.0
C      1  0.5148120000000  0.4708860000000  0.5378070000000 1.0
C      1  0.4164960000000  0.5455740000000  0.4494080000000 1.0
C      1  0.5864250000000  0.5230160000000  0.5477310000000 1.0
C      1  0.3937230000000  0.4973110000000  0.4709560000000 1.0
C      1  0.4016310000000  0.4696570000000  0.5225200000000 1.0
C      1  0.4382780000000  0.5858230000000  0.5431560000000 1.0
C      1  0.5593540000000  0.5107760000000  0.4391800000000 1.0
C      1  0.4127230000000  0.5409260000000  0.5303930000000 1.0
C      1  0.5847170000000  0.4328510000000  0.5448170000000 1.0
C      1  0.5599480000000  0.4364410000000  0.4314810000000 1.0
C      1  0.4212810000000  0.4886750000000  0.4205520000000 1.0
C      1  0.5671040000000  0.5692010000000  0.5270850000000 1.0
C      1  0.5671800000000  0.5071170000000  0.5705080000000 1.0
C      1  0.4446890000000  0.5074940000000  0.4339650000000 1.0
C      1  0.4930890000000  0.5158270000000  0.5162180000000 1.0
C      1  0.5192380000000  0.5457420000000  0.5912330000000 1.0
C      1  0.5303300000000  0.5790210000000  0.5151220000000 1.0
C      1  0.5552040000000  0.5390200000000  0.5272800000000 1.0
C      1  0.5438530000000  0.5857310000000  0.5455890000000 1.0
C      1  0.5730040000000  0.4804570000000  0.5547910000000 1.0
C      1  0.4708420000000  0.4692670000000  0.5386800000000 1.0
C      1  0.4883100000000  0.5381400000000  0.5799940000000 1.0
C      1  0.5716800000000  0.4533020000000  0.5656560000000 1.0
C      1  0.4218180000000  0.4951280000000  0.5187030000000 1.0
C      1  0.5630760000000  0.4789120000000  0.4108760000000 1.0
C      1  0.5215170000000  0.4920040000000  0.4790140000000 1.0
C      1  0.5099140000000  0.4159380000000  0.5379950000000 1.0
C      1  0.5256070000000  0.5267070000000  0.5367450000000 1.0
C      1  0.5145310000000  0.6032720000000  0.5457920000000 1.0
C      1  0.5272940000000  0.5401700000000  0.4633100000000 1.0
C      1  0.4937740000000  0.4777160000000  0.4399330000000 1.0
C      1  0.5587780000000  0.4296760000000  0.4643110000000 1.0
C      1  0.4456670000000  0.4149650000000  0.4446430000000 1.0
C      1  0.5178880000000  0.4983790000000  0.4263170000000 1.0
C      1  0.5922880000000  0.4551230000000  0.5206940000000 1.0
C      1  0.4799850000000  0.4155450000000  0.4973400000000 1.0
C      1  0.4685060000000  0.5652080000000  0.5237450000000 1.0
C      1  0.4291840000000  0.5325470000000  0.5515460000000 1.0
C      1  0.4934930000000  0.5285170000000  0.5477730000000 1.0
C      1  0.4934930000000  0.4850230000000  0.4718610000000 1.0
C      1  0.4981980000000  0.5620180000000  0.4182250000000 1.0
C      1  0.4630630000000  0.5570680000000  0.5786150000000 1.0
C      1  0.4502820000000  0.5402250000000  0.5168910000000 1.0
C      1  0.4218590000000  0.4600280000000  0.4350450000000 1.0
C      1  0.5133390000000  0.5321170000000  0.4259070000000 1.0
C      1  0.5018680000000  0.4633080000000  0.5629200000000 1.0
C      1  0.4906370000000  0.4373510000000  0.5911970000000 1.0
C      1  0.5793760000000  0.4253380000000  0.5119790000000 1.0
C      1  0.4710750000000  0.4334010000000  0.4525640000000 1.0
C      1  0.5435060000000  0.5357060000000  0.4347940000000 1.0
C      1  0.4755690000000  0.4409020000000  0.5196630000000 1.0
C      1  0.4457580000000  0.5333250000000  0.5755310000000 1.0
C      1  0.4371240000000  0.4314730000000  0.4735490000000 1.0
C      1  0.5132150000000  0.4243730000000  0.5696780000000 1.0
C      1  0.4813880000000  0.4628980000000  0.4943970000000 1.0
C      1  0.4462960000000  0.4720380000000  0.5754250000000 1.0
C      1  0.5383430000000  0.6019400000000  0.4531230000000 1.0
C      1  0.5247570000000  0.5668990000000  0.5651040000000 1.0
C      1  0.5322200000000  0.4249730000000  0.4447820000000 1.0
C      1  0.4093830000000  0.4466960000000  0.5025170000000 1.0
C      1  0.5918170000000  0.5079250000000  0.5240360000000 1.0
C      1  0.4109680000000  0.4737040000000  0.5505690000000 1.0
C      1  0.5887060000000  0.4942290000000  0.4824170000000 1.0
C      1  0.4961410000000  0.5927560000000  0.4828830000000 1.0
C      1  0.4870890000000  0.6046090000000  0.5454850000000 1.0
C      1  0.5112480000000  0.4109190000000  0.4847100000000 1.0
END
