TITL C-2848507-1641-13 -0.00501537599749176 125000 -709.272574177729 0 0 130 (C1) n - 1
REM
REM in /home/bkarasulu/work/CARBON/AIRSS/Generating-Clusters/AIREBO/with-SteepDescent/Only-C1/SD-CG-opt/Try1-1.4A-POS3A/HFTN-CG
REM
REM
REM
REM
REM
REM ./C.cell (11c1c37f851c82e70ff6c80c92926a4b)
REM
REM compiler GCC version 9.2.1 20190827 (Red Hat 9.2.1-1)
REM options -cpp -mtune=generic -march=x86-64 -g -O0 -fpre-include=/usr/include/finclude/math-vector-fortran.h
REM seed 611096085 -432808177 -1819297794 -2082642781 -536690627 1733770835 -255636807 979202615 1464420384 -1548773001 37550094 232017085 1361534788 1204461229 713651226 2135114071 47743596 420234990 -237705341 -2109776529 -276143060 -790877559 -265153134 1696620731 -300048271 -504509497 1240904390 995847912 -666119198 1541383317 659572457 550098043 -615198189
REM
CELL 1.54180   50.00000   50.00000   50.00000   90.00000   90.00000   90.00000
LATT -1
SFAC C  
C      1  0.4702520000000  0.5125890000000  0.5819710000000 1.0
C      1  0.4542680000000  0.4552770000000  0.4835100000000 1.0
C      1  0.4774090000000  0.5690340000000  0.4290630000000 1.0
C      1  0.4849710000000  0.5170180000000  0.4031340000000 1.0
C      1  0.4845340000000  0.5007570000000  0.4711820000000 1.0
C      1  0.4964700000000  0.4709270000000  0.6099710000000 1.0
C      1  0.4925950000000  0.5861740000000  0.4493310000000 1.0
C      1  0.5570320000000  0.4623090000000  0.4921270000000 1.0
C      1  0.5226990000000  0.5783970000000  0.4885060000000 1.0
C      1  0.6425010000000  0.4705780000000  0.5030740000000 1.0
C      1  0.4815570000000  0.4710600000000  0.3694950000000 1.0
C      1  0.5738320000000  0.4907300000000  0.4696170000000 1.0
C      1  0.4977990000000  0.4281480000000  0.5592830000000 1.0
C      1  0.5332980000000  0.4426470000000  0.4840150000000 1.0
C      1  0.4896560000000  0.5387080000000  0.4598220000000 1.0
C      1  0.5257610000000  0.4417690000000  0.4533790000000 1.0
C      1  0.4848230000000  0.5786580000000  0.5005910000000 1.0
C      1  0.5488480000000  0.5090910000000  0.4773440000000 1.0
C      1  0.5951420000000  0.4988320000000  0.5159670000000 1.0
C      1  0.5236200000000  0.5727640000000  0.4443730000000 1.0
C      1  0.5403660000000  0.5818050000000  0.4660180000000 1.0
C      1  0.4425160000000  0.5170450000000  0.5681620000000 1.0
C      1  0.5472490000000  0.4272950000000  0.5679500000000 1.0
C      1  0.5365920000000  0.4861240000000  0.4214680000000 1.0
C      1  0.4294770000000  0.5625160000000  0.4867370000000 1.0
C      1  0.4570290000000  0.5230690000000  0.4207740000000 1.0
C      1  0.5181780000000  0.4810260000000  0.4482790000000 1.0
C      1  0.4362870000000  0.5050490000000  0.5235430000000 1.0
C      1  0.4643220000000  0.4336300000000  0.5524940000000 1.0
C      1  0.5526230000000  0.5267980000000  0.5016260000000 1.0
C      1  0.4972570000000  0.5882100000000  0.5828470000000 1.0
C      1  0.4632770000000  0.5447610000000  0.4414820000000 1.0
C      1  0.4694760000000  0.4625760000000  0.5645020000000 1.0
C      1  0.5228400000000  0.4509170000000  0.5625450000000 1.0
C      1  0.5435550000000  0.5614850000000  0.6146760000000 1.0
C      1  0.4728900000000  0.4793120000000  0.4474880000000 1.0
C      1  0.4907150000000  0.4207230000000  0.5004190000000 1.0
C      1  0.4457570000000  0.5409550000000  0.4661130000000 1.0
C      1  0.5248830000000  0.5544010000000  0.5346360000000 1.0
C      1  0.5446930000000  0.4550840000000  0.4337770000000 1.0
C      1  0.5033090000000  0.3975090000000  0.5484960000000 1.0
C      1  0.5262730000000  0.5430410000000  0.5063890000000 1.0
C      1  0.5367640000000  0.5230560000000  0.4552120000000 1.0
C      1  0.4818250000000  0.5143160000000  0.5525030000000 1.0
C      1  0.4816260000000  0.4861210000000  0.3902020000000 1.0
C      1  0.4955960000000  0.5146520000000  0.5001930000000 1.0
C      1  0.5519480000000  0.5698310000000  0.5421600000000 1.0
C      1  0.4457350000000  0.4677680000000  0.4564600000000 1.0
C      1  0.5555310000000  0.5320840000000  0.4340520000000 1.0
C      1  0.4647060000000  0.5066550000000  0.5054040000000 1.0
C      1  0.5329460000000  0.5932890000000  0.5393730000000 1.0
C      1  0.4234840000000  0.5538540000000  0.5366640000000 1.0
C      1  0.4504070000000  0.4774120000000  0.5038370000000 1.0
C      1  0.4354380000000  0.4348100000000  0.5500730000000 1.0
C      1  0.4835940000000  0.4475200000000  0.4807250000000 1.0
C      1  0.4191380000000  0.4567110000000  0.5320180000000 1.0
C      1  0.4043010000000  0.4442620000000  0.4676530000000 1.0
C      1  0.4348380000000  0.4331760000000  0.4908990000000 1.0
C      1  0.5125240000000  0.4452890000000  0.5081880000000 1.0
C      1  0.5454040000000  0.5082470000000  0.5274340000000 1.0
C      1  0.5057850000000  0.5612450000000  0.4212950000000 1.0
C      1  0.5094250000000  0.5910750000000  0.5161760000000 1.0
C      1  0.4895100000000  0.5603810000000  0.5566830000000 1.0
C      1  0.4432450000000  0.5327430000000  0.5412500000000 1.0
C      1  0.4126160000000  0.4890240000000  0.5293800000000 1.0
C      1  0.4813710000000  0.5354370000000  0.5997130000000 1.0
C      1  0.4734780000000  0.5421040000000  0.5367390000000 1.0
C      1  0.5244990000000  0.4112020000000  0.4466480000000 1.0
C      1  0.5414680000000  0.4726240000000  0.5809350000000 1.0
C      1  0.4272870000000  0.5163650000000  0.4180890000000 1.0
C      1  0.4987420000000  0.4669760000000  0.5773020000000 1.0
C      1  0.5095350000000  0.5342140000000  0.5538040000000 1.0
C      1  0.5472640000000  0.5279950000000  0.5811920000000 1.0
C      1  0.5750650000000  0.5469240000000  0.5479510000000 1.0
C      1  0.5646790000000  0.5185890000000  0.5534760000000 1.0
C      1  0.4290600000000  0.4929940000000  0.5655160000000 1.0
C      1  0.4715200000000  0.4926830000000  0.4215870000000 1.0
C      1  0.4127260000000  0.5419370000000  0.4708010000000 1.0
C      1  0.5055520000000  0.5494740000000  0.4834140000000 1.0
C      1  0.5264700000000  0.4646100000000  0.5316260000000 1.0
C      1  0.5531640000000  0.4099300000000  0.5468080000000 1.0
C      1  0.4815080000000  0.5892120000000  0.4755800000000 1.0
C      1  0.4845010000000  0.5455980000000  0.5090530000000 1.0
C      1  0.4964800000000  0.4560800000000  0.4503370000000 1.0
C      1  0.5722990000000  0.5533290000000  0.4935200000000 1.0
C      1  0.5530450000000  0.4685440000000  0.3976390000000 1.0
C      1  0.4733630000000  0.4840850000000  0.5908770000000 1.0
C      1  0.5557120000000  0.4626850000000  0.5231470000000 1.0
C      1  0.5457770000000  0.4148540000000  0.5931170000000 1.0
C      1  0.5164980000000  0.4940270000000  0.5177260000000 1.0
C      1  0.6183100000000  0.4779210000000  0.5041530000000 1.0
C      1  0.5029100000000  0.5547800000000  0.5874300000000 1.0
C      1  0.4682070000000  0.4008140000000  0.4866190000000 1.0
C      1  0.5078630000000  0.5289270000000  0.4182650000000 1.0
C      1  0.5834110000000  0.4939270000000  0.5433870000000 1.0
C      1  0.4244480000000  0.4924340000000  0.4661910000000 1.0
C      1  0.4450620000000  0.4734610000000  0.5464510000000 1.0
C      1  0.5775460000000  0.5660250000000  0.5213660000000 1.0
C      1  0.4911600000000  0.4714570000000  0.5155470000000 1.0
C      1  0.4246060000000  0.4449530000000  0.4486730000000 1.0
C      1  0.4030070000000  0.5777430000000  0.5342300000000 1.0
C      1  0.4838900000000  0.4545870000000  0.3486970000000 1.0
C      1  0.5028130000000  0.5881580000000  0.5494300000000 1.0
C      1  0.5635470000000  0.4443490000000  0.4129040000000 1.0
C      1  0.5149150000000  0.3996630000000  0.4923880000000 1.0
C      1  0.4023020000000  0.5174040000000  0.4726930000000 1.0
C      1  0.5065370000000  0.5129790000000  0.4482810000000 1.0
C      1  0.5871650000000  0.5250970000000  0.5052880000000 1.0
C      1  0.5721800000000  0.4680240000000  0.5448180000000 1.0
C      1  0.5374490000000  0.4990370000000  0.5780110000000 1.0
C      1  0.5620970000000  0.4559340000000  0.5680460000000 1.0
C      1  0.4514570000000  0.5116450000000  0.4747430000000 1.0
C      1  0.5871960000000  0.4748720000000  0.4938360000000 1.0
C      1  0.4025240000000  0.4715630000000  0.4819240000000 1.0
C      1  0.5321380000000  0.5477390000000  0.5936040000000 1.0
C      1  0.5259460000000  0.5091270000000  0.5531000000000 1.0
C      1  0.4116990000000  0.4479980000000  0.5034920000000 1.0
C      1  0.4288220000000  0.5765100000000  0.5120710000000 1.0
C      1  0.5369400000000  0.5162550000000  0.4159950000000 1.0
C      1  0.5720790000000  0.5530040000000  0.4434690000000 1.0
C      1  0.4834490000000  0.4169590000000  0.5307610000000 1.0
C      1  0.5343170000000  0.4817070000000  0.4777000000000 1.0
C      1  0.4838530000000  0.4375080000000  0.3288150000000 1.0
C      1  0.4168040000000  0.4999480000000  0.4339250000000 1.0
C      1  0.4420790000000  0.4079970000000  0.4861790000000 1.0
C      1  0.4456880000000  0.5986650000000  0.5135940000000 1.0
C      1  0.5023520000000  0.4756500000000  0.4845020000000 1.0
C      1  0.4720350000000  0.4902590000000  0.5342940000000 1.0
C      1  0.5220660000000  0.3932030000000  0.4669620000000 1.0
C      1  0.5650530000000  0.5669270000000  0.4675620000000 1.0
END
