TITL C-2848505-4874-591 0.000441173963631531 125000 -477.89851996216 0 0 86 (C1) n - 1
REM
REM in /home/bkarasulu/work/CARBON/AIRSS/Generating-Clusters/AIREBO/with-SteepDescent/Only-C1/SD-CG-opt/Try1-1.4A-POS3A/HFTN-CG
REM
REM
REM
REM
REM
REM ./C.cell (11c1c37f851c82e70ff6c80c92926a4b)
REM
REM compiler GCC version 9.2.1 20190827 (Red Hat 9.2.1-1)
REM options -cpp -mtune=generic -march=x86-64 -g -O0 -fpre-include=/usr/include/finclude/math-vector-fortran.h
REM seed -110341556 -1631670806 -223631125 285624184 1457149782 -1955968407 245189849 1627975798 -1148947267 -528608495 686220696 -1874332829 626266229 -135886313 -1239209591 -544916111 202724435 -1216740638 683391891 213216540 1537088574 408805751 -2120092598 -164267125 -601769852 1041940599 1872909471 904297160 1534907972 1851283198 938886877 -2065134389 717722085
REM
CELL 1.54180   50.00000   50.00000   50.00000   90.00000   90.00000   90.00000
LATT -1
SFAC C  
C      1  0.5495210000000  0.4721100000000  0.4876170000000 1.0
C      1  0.5216890000000  0.4213870000000  0.5237040000000 1.0
C      1  0.4650290000000  0.5267230000000  0.4842760000000 1.0
C      1  0.4340660000000  0.5391480000000  0.4776480000000 1.0
C      1  0.4763160000000  0.5781700000000  0.4755240000000 1.0
C      1  0.5589100000000  0.5143070000000  0.4589020000000 1.0
C      1  0.4979530000000  0.5399310000000  0.5248390000000 1.0
C      1  0.4933460000000  0.5038880000000  0.5692170000000 1.0
C      1  0.5620920000000  0.4563330000000  0.5600040000000 1.0
C      1  0.4894910000000  0.4312590000000  0.4610370000000 1.0
C      1  0.4965620000000  0.4399910000000  0.5484560000000 1.0
C      1  0.4580410000000  0.5589300000000  0.4927200000000 1.0
C      1  0.4901050000000  0.4912650000000  0.5377890000000 1.0
C      1  0.5092940000000  0.5503030000000  0.5029830000000 1.0
C      1  0.4246250000000  0.4522070000000  0.4910420000000 1.0
C      1  0.5016450000000  0.4749100000000  0.5723520000000 1.0
C      1  0.5323070000000  0.4650980000000  0.5634280000000 1.0
C      1  0.5268390000000  0.5042540000000  0.4537590000000 1.0
C      1  0.4546820000000  0.4672610000000  0.4552630000000 1.0
C      1  0.5747090000000  0.5110790000000  0.5028500000000 1.0
C      1  0.5988620000000  0.5052240000000  0.5142680000000 1.0
C      1  0.4670740000000  0.5349130000000  0.4140540000000 1.0
C      1  0.5486080000000  0.4288680000000  0.5203340000000 1.0
C      1  0.5140800000000  0.5522030000000  0.4229010000000 1.0
C      1  0.5786670000000  0.5539130000000  0.4837920000000 1.0
C      1  0.4170640000000  0.4941540000000  0.4620940000000 1.0
C      1  0.5268170000000  0.4597570000000  0.4223020000000 1.0
C      1  0.4453590000000  0.5284560000000  0.4348710000000 1.0
C      1  0.4384630000000  0.4724310000000  0.5319970000000 1.0
C      1  0.4499310000000  0.4383690000000  0.4935770000000 1.0
C      1  0.4958340000000  0.5330640000000  0.4164800000000 1.0
C      1  0.4561780000000  0.5616630000000  0.5232530000000 1.0
C      1  0.4773310000000  0.5089840000000  0.4506180000000 1.0
C      1  0.5241250000000  0.4768990000000  0.4701040000000 1.0
C      1  0.5450350000000  0.4863170000000  0.5399820000000 1.0
C      1  0.4760620000000  0.4642420000000  0.5106910000000 1.0
C      1  0.4973970000000  0.5480170000000  0.5520040000000 1.0
C      1  0.5368080000000  0.5285340000000  0.5712170000000 1.0
C      1  0.4695940000000  0.5570560000000  0.5540370000000 1.0
C      1  0.4449660000000  0.5327760000000  0.5346030000000 1.0
C      1  0.5110680000000  0.4431730000000  0.5790430000000 1.0
C      1  0.4948180000000  0.5409100000000  0.4760450000000 1.0
C      1  0.4716850000000  0.5234630000000  0.5174590000000 1.0
C      1  0.5024820000000  0.4630230000000  0.5301150000000 1.0
C      1  0.4968890000000  0.5025400000000  0.5082950000000 1.0
C      1  0.4602620000000  0.4943370000000  0.4750680000000 1.0
C      1  0.5619220000000  0.4850910000000  0.4601800000000 1.0
C      1  0.5861360000000  0.5841000000000  0.4888430000000 1.0
C      1  0.5597700000000  0.5070190000000  0.5591020000000 1.0
C      1  0.4649370000000  0.4402310000000  0.4700370000000 1.0
C      1  0.5256250000000  0.4838990000000  0.4143320000000 1.0
C      1  0.5491670000000  0.4956760000000  0.5083950000000 1.0
C      1  0.4519770000000  0.4840760000000  0.5027940000000 1.0
C      1  0.5248650000000  0.5136920000000  0.5001710000000 1.0
C      1  0.4935300000000  0.4149330000000  0.5278140000000 1.0
C      1  0.4517400000000  0.5339550000000  0.5656270000000 1.0
C      1  0.5555440000000  0.4441670000000  0.4978890000000 1.0
C      1  0.5735370000000  0.5583450000000  0.5398540000000 1.0
C      1  0.4278400000000  0.4754070000000  0.4428780000000 1.0
C      1  0.4153130000000  0.4799850000000  0.4874080000000 1.0
C      1  0.4808460000000  0.4619800000000  0.4261000000000 1.0
C      1  0.4216280000000  0.4940870000000  0.5144030000000 1.0
C      1  0.5299430000000  0.5915520000000  0.4591870000000 1.0
C      1  0.4248750000000  0.5219740000000  0.4556590000000 1.0
C      1  0.5643250000000  0.4333020000000  0.5437720000000 1.0
C      1  0.4672300000000  0.4339210000000  0.5211400000000 1.0
C      1  0.4182090000000  0.5205170000000  0.5276610000000 1.0
C      1  0.5002580000000  0.5830660000000  0.4653370000000 1.0
C      1  0.5779160000000  0.5701600000000  0.5160790000000 1.0
C      1  0.4776490000000  0.4505030000000  0.5741990000000 1.0
C      1  0.5033840000000  0.5049790000000  0.4290860000000 1.0
C      1  0.5210090000000  0.5593700000000  0.4525250000000 1.0
C      1  0.4871910000000  0.4708970000000  0.4577550000000 1.0
C      1  0.4858380000000  0.4822000000000  0.4109310000000 1.0
C      1  0.4620580000000  0.4858350000000  0.5523020000000 1.0
C      1  0.4691140000000  0.5407770000000  0.4535160000000 1.0
C      1  0.4613860000000  0.5092300000000  0.5746210000000 1.0
C      1  0.5613570000000  0.5397880000000  0.5550540000000 1.0
C      1  0.5097390000000  0.5290810000000  0.5691890000000 1.0
C      1  0.5767220000000  0.4795350000000  0.5634230000000 1.0
C      1  0.5299400000000  0.4642380000000  0.5236660000000 1.0
C      1  0.5250090000000  0.5313920000000  0.4714350000000 1.0
C      1  0.4954520000000  0.4771650000000  0.4884110000000 1.0
C      1  0.5718980000000  0.5278140000000  0.4799120000000 1.0
C      1  0.5138600000000  0.4519840000000  0.4493660000000 1.0
C      1  0.4585800000000  0.4522420000000  0.5473320000000 1.0
END
