TITL C-2848499-1157-553 -0.00022886331056497 125000 -162.448203819896 0 0 32 (C1) n - 1
REM
REM in /home/bkarasulu/work/CARBON/AIRSS/Generating-Clusters/AIREBO/with-SteepDescent/Only-C1/SD-CG-opt/Try1-1.4A-POS3A/HFTN-CG
REM
REM
REM
REM
REM
REM ./C.cell (11c1c37f851c82e70ff6c80c92926a4b)
REM
REM compiler GCC version 9.2.1 20190827 (Red Hat 9.2.1-1)
REM options -cpp -mtune=generic -march=x86-64 -g -O0 -fpre-include=/usr/include/finclude/math-vector-fortran.h
REM seed -827179540 239873303 -761219925 -423461913 -344720966 -100561233 1954685650 2023549036 1426494118 -1953788481 -1419509212 -1085487709 -723880497 1196474381 1685418307 -1880572745 783532629 1254833659 -1876624281 -421381932 1939840457 -1950157080 -891265127 -386506847 2019010035 1764044723 -665889967 -1819929781 272635332 1575773293 57143803 1878438438 -944269086
REM
CELL 1.54180   50.00000   50.00000   50.00000   90.00000   90.00000   90.00000
LATT -1
SFAC C  
C      1  0.4972910000000  0.5475680000000  0.4895330000000 1.0
C      1  0.5341680000000  0.5001470000000  0.5113380000000 1.0
C      1  0.5533820000000  0.5404870000000  0.4872270000000 1.0
C      1  0.4493320000000  0.5276440000000  0.5036310000000 1.0
C      1  0.5042530000000  0.5728880000000  0.4742720000000 1.0
C      1  0.4758920000000  0.5031660000000  0.5446620000000 1.0
C      1  0.4971870000000  0.5087220000000  0.4990770000000 1.0
C      1  0.5485960000000  0.4823970000000  0.4862020000000 1.0
C      1  0.4721110000000  0.5512090000000  0.5112610000000 1.0
C      1  0.4844500000000  0.4485090000000  0.5248600000000 1.0
C      1  0.5110640000000  0.5120610000000  0.4439010000000 1.0
C      1  0.5479170000000  0.4444060000000  0.4574500000000 1.0
C      1  0.4611820000000  0.5046640000000  0.4573650000000 1.0
C      1  0.5368940000000  0.4394390000000  0.5250820000000 1.0
C      1  0.4739760000000  0.4902670000000  0.4844750000000 1.0
C      1  0.5229350000000  0.5302110000000  0.4983410000000 1.0
C      1  0.4640680000000  0.4733590000000  0.5353400000000 1.0
C      1  0.5386380000000  0.4593250000000  0.5439710000000 1.0
C      1  0.4985830000000  0.5155560000000  0.4657950000000 1.0
C      1  0.5409250000000  0.4570780000000  0.4802050000000 1.0
C      1  0.4993960000000  0.5061600000000  0.5298930000000 1.0
C      1  0.4703570000000  0.5297110000000  0.4783670000000 1.0
C      1  0.4465820000000  0.5109370000000  0.5396520000000 1.0
C      1  0.4966970000000  0.4468950000000  0.4997610000000 1.0
C      1  0.5239930000000  0.4869370000000  0.5378530000000 1.0
C      1  0.4968550000000  0.4693460000000  0.5452030000000 1.0
C      1  0.5580460000000  0.5123000000000  0.4921350000000 1.0
C      1  0.5108080000000  0.5926810000000  0.4595490000000 1.0
C      1  0.4829440000000  0.4609680000000  0.4795760000000 1.0
C      1  0.4562910000000  0.4955880000000  0.5108120000000 1.0
C      1  0.5248040000000  0.4436650000000  0.4997720000000 1.0
C      1  0.4203840000000  0.5357090000000  0.5034390000000 1.0
END
