TITL C-2848509-3138-142 -0.00208248205816911 125000 -257.274630391656 0 0 46 (C1) n - 1
REM
REM in /home/bkarasulu/work/CARBON/AIRSS/Generating-Clusters/AIREBO/with-SteepDescent/Only-C1/SD-CG-opt/Try1-1.4A-POS3A/HFTN-CG
REM
REM
REM
REM
REM
REM ./C.cell (11c1c37f851c82e70ff6c80c92926a4b)
REM
REM compiler GCC version 9.2.1 20190827 (Red Hat 9.2.1-1)
REM options -cpp -mtune=generic -march=x86-64 -g -O0 -fpre-include=/usr/include/finclude/math-vector-fortran.h
REM seed 478870219 -23716389 1062373696 1034833713 893913668 1664548843 -191171263 1924132505 428925195 910447673 1225506702 -1405597049 -2023791561 -266993811 1386553762 258808239 110457342 -1550514489 1573562565 -304438994 -2030579903 2015097330 287232768 -1766433921 -1417652044 1847227230 122783819 -1976969860 -1133323162 -256800186 -1635413836 -1402218175 -1368127415
REM
CELL 1.54180   50.00000   50.00000   50.00000   90.00000   90.00000   90.00000
LATT -1
SFAC C  
C      1  0.4964980000000  0.5720440000000  0.4953720000000 1.0
C      1  0.4898580000000  0.5522830000000  0.4529190000000 1.0
C      1  0.4714660000000  0.4330280000000  0.5560300000000 1.0
C      1  0.5418470000000  0.4585510000000  0.4923670000000 1.0
C      1  0.4751360000000  0.5623320000000  0.5113520000000 1.0
C      1  0.5428340000000  0.5241040000000  0.4552120000000 1.0
C      1  0.5112170000000  0.4887750000000  0.4721240000000 1.0
C      1  0.4819190000000  0.5041380000000  0.4633480000000 1.0
C      1  0.5041560000000  0.5442000000000  0.5586530000000 1.0
C      1  0.4507900000000  0.5585440000000  0.4975310000000 1.0
C      1  0.4665890000000  0.4331600000000  0.4825350000000 1.0
C      1  0.4575310000000  0.4831000000000  0.4719640000000 1.0
C      1  0.4215340000000  0.5149370000000  0.5697620000000 1.0
C      1  0.4877910000000  0.4955320000000  0.5234490000000 1.0
C      1  0.4983100000000  0.4864820000000  0.5034390000000 1.0
C      1  0.4499790000000  0.5411470000000  0.4761060000000 1.0
C      1  0.5571870000000  0.5062280000000  0.6038680000000 1.0
C      1  0.4673550000000  0.4857510000000  0.4400190000000 1.0
C      1  0.5104520000000  0.5527050000000  0.5273690000000 1.0
C      1  0.4666190000000  0.5161300000000  0.5335500000000 1.0
C      1  0.4786860000000  0.4371970000000  0.5304380000000 1.0
C      1  0.4453490000000  0.4742810000000  0.5021850000000 1.0
C      1  0.5321710000000  0.5319830000000  0.5330830000000 1.0
C      1  0.4429530000000  0.4942320000000  0.5225500000000 1.0
C      1  0.5296590000000  0.5273550000000  0.5635330000000 1.0
C      1  0.5012940000000  0.4600490000000  0.4566230000000 1.0
C      1  0.5284020000000  0.4437220000000  0.5114160000000 1.0
C      1  0.5677180000000  0.5034670000000  0.4865260000000 1.0
C      1  0.4374450000000  0.5104820000000  0.5489340000000 1.0
C      1  0.5417130000000  0.5182540000000  0.5113620000000 1.0
C      1  0.5333100000000  0.5509780000000  0.4694750000000 1.0
C      1  0.5360420000000  0.4973190000000  0.4513520000000 1.0
C      1  0.5373200000000  0.4893810000000  0.4939390000000 1.0
C      1  0.4791250000000  0.5426890000000  0.5357560000000 1.0
C      1  0.5556810000000  0.5338290000000  0.4858700000000 1.0
C      1  0.4916400000000  0.4370870000000  0.4699150000000 1.0
C      1  0.5051060000000  0.4346020000000  0.5214310000000 1.0
C      1  0.5442820000000  0.5177610000000  0.5841840000000 1.0
C      1  0.4606060000000  0.4449780000000  0.5105320000000 1.0
C      1  0.5085890000000  0.5618930000000  0.4717690000000 1.0
C      1  0.5581360000000  0.4777230000000  0.4513440000000 1.0
C      1  0.4443060000000  0.4529550000000  0.4753710000000 1.0
C      1  0.5527680000000  0.4533300000000  0.4662540000000 1.0
C      1  0.4724050000000  0.5323190000000  0.4617240000000 1.0
C      1  0.4865340000000  0.4670260000000  0.4329150000000 1.0
C      1  0.5796910000000  0.4919370000000  0.4645520000000 1.0
END
