TITL C-2848496-4490-217 0.00172793615033435 125000 -800.999930907399 0 0 144 (C1) n - 1
REM
REM in /home/bkarasulu/work/CARBON/AIRSS/Generating-Clusters/AIREBO/with-SteepDescent/Only-C1/SD-CG-opt/Try1-1.4A-POS3A/HFTN-CG
REM
REM
REM
REM
REM
REM ./C.cell (11c1c37f851c82e70ff6c80c92926a4b)
REM
REM compiler GCC version 9.2.1 20190827 (Red Hat 9.2.1-1)
REM options -cpp -mtune=generic -march=x86-64 -g -O0 -fpre-include=/usr/include/finclude/math-vector-fortran.h
REM seed -647186373 -1011008241 280095697 -847603754 -1135762773 703354085 -1553221112 -1059516847 992065810 1251623125 -566322137 -2025603881 1336109228 -667269135 -1917836875 179381407 -127106910 1009546802 724598143 560469750 389858945 2057276108 -1495358858 -95824544 -814257650 929805430 512042904 703305880 -1217617684 1153817988 -1948097711 1808710274 1809890816
REM
CELL 1.54180   50.00000   50.00000   50.00000   90.00000   90.00000   90.00000
LATT -1
SFAC C  
C      1  0.5224720000000  0.5308090000000  0.5387540000000 1.0
C      1  0.5620020000000  0.5528220000000  0.5719150000000 1.0
C      1  0.4976890000000  0.5646600000000  0.5185770000000 1.0
C      1  0.4665000000000  0.4699310000000  0.5088190000000 1.0
C      1  0.4303270000000  0.4364060000000  0.5028950000000 1.0
C      1  0.4655340000000  0.5183810000000  0.3921450000000 1.0
C      1  0.5171270000000  0.3884190000000  0.4981060000000 1.0
C      1  0.4915080000000  0.4102390000000  0.5316140000000 1.0
C      1  0.4150260000000  0.5222400000000  0.5440490000000 1.0
C      1  0.4870550000000  0.5765880000000  0.4358960000000 1.0
C      1  0.5062290000000  0.4928210000000  0.3936070000000 1.0
C      1  0.3968470000000  0.5100290000000  0.4906910000000 1.0
C      1  0.5469970000000  0.4956160000000  0.4670880000000 1.0
C      1  0.5159000000000  0.5231060000000  0.4336160000000 1.0
C      1  0.5132620000000  0.4919700000000  0.4649000000000 1.0
C      1  0.5412590000000  0.4398190000000  0.4280620000000 1.0
C      1  0.4671490000000  0.4481080000000  0.4827430000000 1.0
C      1  0.6022010000000  0.4996910000000  0.4796180000000 1.0
C      1  0.5311450000000  0.4348270000000  0.4941030000000 1.0
C      1  0.4139560000000  0.4649190000000  0.5115770000000 1.0
C      1  0.5064130000000  0.5448090000000  0.5875880000000 1.0
C      1  0.4608290000000  0.4308410000000  0.5177220000000 1.0
C      1  0.5454500000000  0.5574120000000  0.4930950000000 1.0
C      1  0.4431360000000  0.5198910000000  0.5158490000000 1.0
C      1  0.5978160000000  0.4848660000000  0.5023240000000 1.0
C      1  0.5190750000000  0.4467210000000  0.5974200000000 1.0
C      1  0.4731430000000  0.5105850000000  0.5710210000000 1.0
C      1  0.4900090000000  0.4900450000000  0.5498030000000 1.0
C      1  0.5695720000000  0.4207860000000  0.5496430000000 1.0
C      1  0.4276720000000  0.4332550000000  0.4691310000000 1.0
C      1  0.5774520000000  0.5077340000000  0.4377910000000 1.0
C      1  0.4599540000000  0.5448110000000  0.4857030000000 1.0
C      1  0.4809520000000  0.5371910000000  0.5827430000000 1.0
C      1  0.4846120000000  0.4815540000000  0.6070510000000 1.0
C      1  0.5741770000000  0.4935760000000  0.5217140000000 1.0
C      1  0.5600960000000  0.4893890000000  0.5932820000000 1.0
C      1  0.4941460000000  0.4039290000000  0.4787650000000 1.0
C      1  0.5598590000000  0.4643810000000  0.4632130000000 1.0
C      1  0.4197200000000  0.4612820000000  0.4513730000000 1.0
C      1  0.4024760000000  0.5175770000000  0.4611770000000 1.0
C      1  0.5315740000000  0.5879740000000  0.5502710000000 1.0
C      1  0.5838930000000  0.5427560000000  0.5217360000000 1.0
C      1  0.5197920000000  0.5213030000000  0.4808040000000 1.0
C      1  0.4131740000000  0.4821200000000  0.4353150000000 1.0
C      1  0.5150000000000  0.4364310000000  0.4683940000000 1.0
C      1  0.4211860000000  0.4976880000000  0.5058970000000 1.0
C      1  0.4611020000000  0.4991150000000  0.4626940000000 1.0
C      1  0.5992680000000  0.5480100000000  0.4984750000000 1.0
C      1  0.4764960000000  0.5921950000000  0.4804520000000 1.0
C      1  0.5370160000000  0.4083830000000  0.5146710000000 1.0
C      1  0.4305120000000  0.5308270000000  0.4862260000000 1.0
C      1  0.5086420000000  0.4702590000000  0.5374450000000 1.0
C      1  0.5227710000000  0.4852630000000  0.5140310000000 1.0
C      1  0.5093020000000  0.4145220000000  0.5577850000000 1.0
C      1  0.4294160000000  0.5459410000000  0.4470270000000 1.0
C      1  0.5497560000000  0.5293850000000  0.4751260000000 1.0
C      1  0.4560970000000  0.5320090000000  0.4556870000000 1.0
C      1  0.5545310000000  0.5194700000000  0.5922600000000 1.0
C      1  0.5247330000000  0.5247520000000  0.5933130000000 1.0
C      1  0.5920690000000  0.5301290000000  0.4717280000000 1.0
C      1  0.4656010000000  0.5113360000000  0.5378650000000 1.0
C      1  0.4900800000000  0.5330740000000  0.5286250000000 1.0
C      1  0.5546410000000  0.5567880000000  0.4349230000000 1.0
C      1  0.5186440000000  0.5724490000000  0.4948630000000 1.0
C      1  0.5016480000000  0.4242780000000  0.5052680000000 1.0
C      1  0.5082580000000  0.5388160000000  0.4068870000000 1.0
C      1  0.4191980000000  0.5044600000000  0.5730170000000 1.0
C      1  0.4633230000000  0.4919490000000  0.5921580000000 1.0
C      1  0.5598790000000  0.5569250000000  0.5205900000000 1.0
C      1  0.4507480000000  0.4343830000000  0.5562070000000 1.0
C      1  0.4670040000000  0.4698950000000  0.4504050000000 1.0
C      1  0.4388810000000  0.4819410000000  0.5821940000000 1.0
C      1  0.4261070000000  0.5135780000000  0.4369520000000 1.0
C      1  0.5642170000000  0.4478110000000  0.4424760000000 1.0
C      1  0.5340870000000  0.4683770000000  0.5573990000000 1.0
C      1  0.5279160000000  0.4387220000000  0.5685470000000 1.0
C      1  0.4551460000000  0.4385660000000  0.4523960000000 1.0
C      1  0.5664030000000  0.5227150000000  0.5609520000000 1.0
C      1  0.4208360000000  0.4886940000000  0.5445650000000 1.0
C      1  0.4855040000000  0.5184130000000  0.5008900000000 1.0
C      1  0.4997920000000  0.5704670000000  0.4668320000000 1.0
C      1  0.4234260000000  0.4683950000000  0.4803820000000 1.0
C      1  0.5231040000000  0.6020900000000  0.5044600000000 1.0
C      1  0.4977550000000  0.4078590000000  0.4472880000000 1.0
C      1  0.5298040000000  0.6073770000000  0.5280110000000 1.0
C      1  0.4749980000000  0.4248390000000  0.4314520000000 1.0
C      1  0.4928900000000  0.5785710000000  0.5495060000000 1.0
C      1  0.5281940000000  0.4914510000000  0.5816980000000 1.0
C      1  0.4640490000000  0.6108900000000  0.5237200000000 1.0
C      1  0.5666360000000  0.5351560000000  0.4497010000000 1.0
C      1  0.4799890000000  0.6064750000000  0.5455610000000 1.0
C      1  0.5301120000000  0.4901670000000  0.4097040000000 1.0
C      1  0.5100460000000  0.4723960000000  0.5996790000000 1.0
C      1  0.4352320000000  0.5730150000000  0.5024780000000 1.0
C      1  0.3995420000000  0.4652980000000  0.5382290000000 1.0
C      1  0.5283380000000  0.5704650000000  0.4483220000000 1.0
C      1  0.5244170000000  0.4220180000000  0.4422170000000 1.0
C      1  0.4889130000000  0.4739950000000  0.4760810000000 1.0
C      1  0.5437900000000  0.5058770000000  0.4348130000000 1.0
C      1  0.5672260000000  0.4085250000000  0.5020520000000 1.0
C      1  0.5758600000000  0.5593060000000  0.4798880000000 1.0
C      1  0.4768390000000  0.4250290000000  0.5567490000000 1.0
C      1  0.4855740000000  0.5172670000000  0.4473130000000 1.0
C      1  0.4864270000000  0.4699620000000  0.4011110000000 1.0
C      1  0.4785510000000  0.4954680000000  0.4221780000000 1.0
C      1  0.4911470000000  0.5382520000000  0.4738530000000 1.0
C      1  0.4704640000000  0.5551440000000  0.5458080000000 1.0
C      1  0.5420290000000  0.5561020000000  0.5445730000000 1.0
C      1  0.4894490000000  0.5640180000000  0.4131170000000 1.0
C      1  0.4494670000000  0.5108480000000  0.4154490000000 1.0
C      1  0.4262810000000  0.5468750000000  0.5223280000000 1.0
C      1  0.5460750000000  0.5771670000000  0.5782070000000 1.0
C      1  0.5279580000000  0.4620800000000  0.4190040000000 1.0
C      1  0.5505470000000  0.4841180000000  0.4998440000000 1.0
C      1  0.5660960000000  0.4710270000000  0.5458690000000 1.0
C      1  0.4580670000000  0.5965750000000  0.5004520000000 1.0
C      1  0.5289080000000  0.5605460000000  0.4177710000000 1.0
C      1  0.4512240000000  0.4805600000000  0.5362360000000 1.0
C      1  0.4934800000000  0.4481430000000  0.4463580000000 1.0
C      1  0.4248680000000  0.5676020000000  0.4728420000000 1.0
C      1  0.4931220000000  0.4901180000000  0.5024830000000 1.0
C      1  0.5783090000000  0.4376530000000  0.5035050000000 1.0
C      1  0.4477380000000  0.4878960000000  0.4876590000000 1.0
C      1  0.4646560000000  0.5592820000000  0.5125620000000 1.0
C      1  0.5765250000000  0.4762640000000  0.5761520000000 1.0
C      1  0.4776160000000  0.4448390000000  0.4050430000000 1.0
C      1  0.4761040000000  0.5988230000000  0.4516550000000 1.0
C      1  0.5997260000000  0.4979140000000  0.4493550000000 1.0
C      1  0.5816590000000  0.5194290000000  0.5363940000000 1.0
C      1  0.4332900000000  0.4229080000000  0.5339680000000 1.0
C      1  0.4021380000000  0.5461280000000  0.4754160000000 1.0
C      1  0.5549950000000  0.4524030000000  0.4918140000000 1.0
C      1  0.5137690000000  0.5707950000000  0.5738490000000 1.0
C      1  0.5036200000000  0.4777660000000  0.4368430000000 1.0
C      1  0.5405930000000  0.4166400000000  0.5457870000000 1.0
C      1  0.6025850000000  0.4578170000000  0.5110320000000 1.0
C      1  0.4664560000000  0.4157940000000  0.4890140000000 1.0
C      1  0.4887750000000  0.4491780000000  0.5239550000000 1.0
C      1  0.3982500000000  0.5289760000000  0.5152500000000 1.0
C      1  0.5375180000000  0.5119830000000  0.5569640000000 1.0
C      1  0.4447910000000  0.4617940000000  0.5617120000000 1.0
C      1  0.4940500000000  0.5180960000000  0.3908290000000 1.0
C      1  0.5239020000000  0.5164560000000  0.5110990000000 1.0
C      1  0.5810540000000  0.4458850000000  0.5348240000000 1.0
END
