TITL C-2848508-1660-489 0.000789956316300615 125000 -906.13473911534 0 0 170 (C1) n - 1
REM
REM in /home/bkarasulu/work/CARBON/AIRSS/Generating-Clusters/AIREBO/with-SteepDescent/Only-C1/SD-CG-opt/Try1-1.4A-POS3A/HFTN-CG
REM
REM
REM
REM
REM
REM ./C.cell (11c1c37f851c82e70ff6c80c92926a4b)
REM
REM compiler GCC version 9.2.1 20190827 (Red Hat 9.2.1-1)
REM options -cpp -mtune=generic -march=x86-64 -g -O0 -fpre-include=/usr/include/finclude/math-vector-fortran.h
REM seed -113039764 1460128735 -1205328452 -409064669 -1985793090 205274639 2021091686 -1541051343 1963193876 -712119776 -1860007679 1312259852 1033121270 -995070670 1277581021 1878928716 -702154523 -1998546925 -265927487 -1908349731 -784799576 -2052242973 -156274953 -1692421947 1254235086 351785480 955041043 -1639373974 2024018758 -80367626 1283720870 -2091569696 174775256
REM
CELL 1.54180   50.00000   50.00000   50.00000   90.00000   90.00000   90.00000
LATT -1
SFAC C  
C      1  0.5591830000000  0.5664330000000  0.4511950000000 1.0
C      1  0.4396090000000  0.5091680000000  0.4849120000000 1.0
C      1  0.5349410000000  0.4304230000000  0.4605110000000 1.0
C      1  0.4734540000000  0.5292260000000  0.4007570000000 1.0
C      1  0.4974270000000  0.6055230000000  0.4493320000000 1.0
C      1  0.4352990000000  0.4981250000000  0.5229510000000 1.0
C      1  0.5616970000000  0.5064200000000  0.4996440000000 1.0
C      1  0.4185940000000  0.5487270000000  0.5667480000000 1.0
C      1  0.4110110000000  0.4948510000000  0.5560950000000 1.0
C      1  0.3942180000000  0.5156550000000  0.5477930000000 1.0
C      1  0.5109420000000  0.6009310000000  0.4773870000000 1.0
C      1  0.5560960000000  0.5357890000000  0.4132870000000 1.0
C      1  0.4412810000000  0.5902320000000  0.5164590000000 1.0
C      1  0.4972260000000  0.4286380000000  0.5954840000000 1.0
C      1  0.5539910000000  0.4811300000000  0.4784260000000 1.0
C      1  0.4054770000000  0.4996560000000  0.5066920000000 1.0
C      1  0.4437900000000  0.5621530000000  0.5298570000000 1.0
C      1  0.4862570000000  0.5251490000000  0.5470120000000 1.0
C      1  0.4425410000000  0.4842810000000  0.4343920000000 1.0
C      1  0.4654310000000  0.5993740000000  0.4539870000000 1.0
C      1  0.4825430000000  0.4965700000000  0.3978290000000 1.0
C      1  0.5281180000000  0.5053950000000  0.5739550000000 1.0
C      1  0.5233520000000  0.6011250000000  0.5642830000000 1.0
C      1  0.3939280000000  0.4724380000000  0.5165380000000 1.0
C      1  0.4834350000000  0.5786940000000  0.4338590000000 1.0
C      1  0.4948310000000  0.4726260000000  0.5366850000000 1.0
C      1  0.4885430000000  0.4314220000000  0.4830830000000 1.0
C      1  0.4606270000000  0.5818420000000  0.4827290000000 1.0
C      1  0.5647320000000  0.4185720000000  0.5611160000000 1.0
C      1  0.5591750000000  0.4753830000000  0.4366850000000 1.0
C      1  0.4108490000000  0.4976540000000  0.4757480000000 1.0
C      1  0.5007250000000  0.4733040000000  0.6272740000000 1.0
C      1  0.4519800000000  0.5550640000000  0.4274060000000 1.0
C      1  0.4432870000000  0.5286790000000  0.4134190000000 1.0
C      1  0.5442620000000  0.4889950000000  0.5416800000000 1.0
C      1  0.5132360000000  0.4977240000000  0.6100640000000 1.0
C      1  0.4101000000000  0.4326210000000  0.5436760000000 1.0
C      1  0.5978380000000  0.5438810000000  0.4459150000000 1.0
C      1  0.4488770000000  0.3888390000000  0.4815170000000 1.0
C      1  0.4295050000000  0.5709440000000  0.4910310000000 1.0
C      1  0.5217400000000  0.5835100000000  0.4435380000000 1.0
C      1  0.5997320000000  0.4897780000000  0.5047060000000 1.0
C      1  0.5673070000000  0.5709720000000  0.4836590000000 1.0
C      1  0.5395290000000  0.5860010000000  0.5472890000000 1.0
C      1  0.5602450000000  0.5276230000000  0.5813250000000 1.0
C      1  0.6028990000000  0.4992550000000  0.4553760000000 1.0
C      1  0.4191200000000  0.5519330000000  0.4648090000000 1.0
C      1  0.4860550000000  0.4059370000000  0.5221720000000 1.0
C      1  0.5273330000000  0.3898110000000  0.5011240000000 1.0
C      1  0.4695480000000  0.5713480000000  0.4057680000000 1.0
C      1  0.4423410000000  0.4198500000000  0.4843050000000 1.0
C      1  0.5373370000000  0.5395900000000  0.5923920000000 1.0
C      1  0.4928800000000  0.5439320000000  0.6047300000000 1.0
C      1  0.4745330000000  0.5944410000000  0.5115880000000 1.0
C      1  0.5949280000000  0.5254120000000  0.5366650000000 1.0
C      1  0.4998260000000  0.5663290000000  0.5887880000000 1.0
C      1  0.4606380000000  0.4897660000000  0.5014550000000 1.0
C      1  0.4926050000000  0.5513810000000  0.4443650000000 1.0
C      1  0.5449600000000  0.4555580000000  0.5355000000000 1.0
C      1  0.4662490000000  0.4315170000000  0.5213750000000 1.0
C      1  0.4429000000000  0.5032600000000  0.5549710000000 1.0
C      1  0.5312860000000  0.4557720000000  0.4781100000000 1.0
C      1  0.4487840000000  0.4612600000000  0.4587380000000 1.0
C      1  0.4836600000000  0.5071270000000  0.4637850000000 1.0
C      1  0.4985590000000  0.4041910000000  0.5469250000000 1.0
C      1  0.5299170000000  0.4497370000000  0.5807340000000 1.0
C      1  0.5485040000000  0.5352870000000  0.5123410000000 1.0
C      1  0.5129870000000  0.4924170000000  0.3922570000000 1.0
C      1  0.4042070000000  0.4664080000000  0.5454670000000 1.0
C      1  0.4841900000000  0.4639370000000  0.4074050000000 1.0
C      1  0.4680520000000  0.5008610000000  0.4277960000000 1.0
C      1  0.5175000000000  0.4560030000000  0.4110350000000 1.0
C      1  0.4356870000000  0.5282960000000  0.5104020000000 1.0
C      1  0.4191890000000  0.4535090000000  0.4438860000000 1.0
C      1  0.4320080000000  0.5202850000000  0.5987540000000 1.0
C      1  0.4776330000000  0.4566850000000  0.4631050000000 1.0
C      1  0.4790610000000  0.5098840000000  0.5727970000000 1.0
C      1  0.5054860000000  0.5515180000000  0.5073820000000 1.0
C      1  0.4075860000000  0.4466770000000  0.5068860000000 1.0
C      1  0.5183320000000  0.4902140000000  0.5197110000000 1.0
C      1  0.5452600000000  0.4112230000000  0.5152620000000 1.0
C      1  0.5236980000000  0.4855160000000  0.4687140000000 1.0
C      1  0.4958790000000  0.4422410000000  0.5350080000000 1.0
C      1  0.5235970000000  0.5700510000000  0.4182090000000 1.0
C      1  0.4962630000000  0.4517890000000  0.6083360000000 1.0
C      1  0.4664070000000  0.4184530000000  0.4613290000000 1.0
C      1  0.6050900000000  0.5410290000000  0.4918090000000 1.0
C      1  0.4341150000000  0.4547170000000  0.5466620000000 1.0
C      1  0.5063500000000  0.4306630000000  0.5652220000000 1.0
C      1  0.4982720000000  0.4919060000000  0.4383880000000 1.0
C      1  0.4479240000000  0.5349940000000  0.4703140000000 1.0
C      1  0.5513340000000  0.4429930000000  0.5622060000000 1.0
C      1  0.4147570000000  0.5205160000000  0.4535700000000 1.0
C      1  0.5266500000000  0.5094200000000  0.4450530000000 1.0
C      1  0.5945680000000  0.4982640000000  0.5318250000000 1.0
C      1  0.5154840000000  0.4802210000000  0.5593640000000 1.0
C      1  0.4976170000000  0.5883170000000  0.5683870000000 1.0
C      1  0.5118470000000  0.4073370000000  0.4613530000000 1.0
C      1  0.4485280000000  0.4572320000000  0.5732420000000 1.0
C      1  0.4969630000000  0.4777080000000  0.5878010000000 1.0
C      1  0.5224290000000  0.5570560000000  0.5684090000000 1.0
C      1  0.5851680000000  0.4445600000000  0.5073520000000 1.0
C      1  0.5511890000000  0.5618410000000  0.4226580000000 1.0
C      1  0.4673590000000  0.5305500000000  0.4452840000000 1.0
C      1  0.4687360000000  0.4808980000000  0.5757100000000 1.0
C      1  0.4671970000000  0.5506950000000  0.5513300000000 1.0
C      1  0.4371240000000  0.4569580000000  0.4185440000000 1.0
C      1  0.5168040000000  0.5278430000000  0.6084990000000 1.0
C      1  0.5733490000000  0.5302420000000  0.4604820000000 1.0
C      1  0.5754410000000  0.4826370000000  0.5540580000000 1.0
C      1  0.4299030000000  0.5121850000000  0.4312540000000 1.0
C      1  0.5388240000000  0.4817290000000  0.4119420000000 1.0
C      1  0.5638230000000  0.4769990000000  0.5165860000000 1.0
C      1  0.5715640000000  0.4398190000000  0.4487260000000 1.0
C      1  0.5910710000000  0.3961090000000  0.5029520000000 1.0
C      1  0.5004060000000  0.5510510000000  0.4755540000000 1.0
C      1  0.4655290000000  0.4218540000000  0.4275090000000 1.0
C      1  0.4508700000000  0.4616520000000  0.5178990000000 1.0
C      1  0.5099690000000  0.4496450000000  0.4983420000000 1.0
C      1  0.4171420000000  0.5534320000000  0.5398800000000 1.0
C      1  0.5179150000000  0.5243570000000  0.4743220000000 1.0
C      1  0.4852600000000  0.5187460000000  0.5153180000000 1.0
C      1  0.5792640000000  0.4679760000000  0.4631140000000 1.0
C      1  0.5275480000000  0.5713520000000  0.4750650000000 1.0
C      1  0.4449610000000  0.5717820000000  0.4542570000000 1.0
C      1  0.5169070000000  0.5281360000000  0.5566850000000 1.0
C      1  0.4639430000000  0.5411940000000  0.5126360000000 1.0
C      1  0.5181350000000  0.5240640000000  0.5229490000000 1.0
C      1  0.4972610000000  0.3995370000000  0.4910680000000 1.0
C      1  0.5424750000000  0.4473270000000  0.4318530000000 1.0
C      1  0.5361060000000  0.4786950000000  0.5935820000000 1.0
C      1  0.4726550000000  0.3802280000000  0.4825930000000 1.0
C      1  0.5936560000000  0.4650470000000  0.4907680000000 1.0
C      1  0.4850730000000  0.5770970000000  0.5390000000000 1.0
C      1  0.4647210000000  0.4801140000000  0.5428890000000 1.0
C      1  0.4465620000000  0.5328080000000  0.5717640000000 1.0
C      1  0.4974310000000  0.5533390000000  0.4043170000000 1.0
C      1  0.5335020000000  0.6008060000000  0.5101280000000 1.0
C      1  0.4860700000000  0.3990930000000  0.4404910000000 1.0
C      1  0.5748530000000  0.5481630000000  0.5277740000000 1.0
C      1  0.5845840000000  0.4569470000000  0.5345740000000 1.0
C      1  0.5637310000000  0.4189310000000  0.4701270000000 1.0
C      1  0.5482310000000  0.5531340000000  0.5480480000000 1.0
C      1  0.5568040000000  0.5151970000000  0.4374100000000 1.0
C      1  0.4975350000000  0.4594190000000  0.4383630000000 1.0
C      1  0.5600850000000  0.4948310000000  0.5787470000000 1.0
C      1  0.4029860000000  0.5316520000000  0.5190960000000 1.0
C      1  0.5559170000000  0.4001180000000  0.5428820000000 1.0
C      1  0.5015590000000  0.5002570000000  0.4918830000000 1.0
C      1  0.4113370000000  0.4681590000000  0.4699860000000 1.0
C      1  0.5115690000000  0.5327220000000  0.4256580000000 1.0
C      1  0.5724770000000  0.4173680000000  0.4990400000000 1.0
C      1  0.5262650000000  0.4365950000000  0.5213270000000 1.0
C      1  0.5838210000000  0.4964740000000  0.4356250000000 1.0
C      1  0.5906740000000  0.5130810000000  0.4831320000000 1.0
C      1  0.4854390000000  0.4703180000000  0.4913940000000 1.0
C      1  0.4603870000000  0.4438520000000  0.4117090000000 1.0
C      1  0.4699070000000  0.5518820000000  0.4848600000000 1.0
C      1  0.5552970000000  0.5204340000000  0.5488250000000 1.0
C      1  0.5323830000000  0.5145630000000  0.4058890000000 1.0
C      1  0.4322450000000  0.4263770000000  0.5186220000000 1.0
C      1  0.5416820000000  0.5680620000000  0.5058320000000 1.0
C      1  0.4354480000000  0.4528400000000  0.4888710000000 1.0
C      1  0.5443100000000  0.5423320000000  0.4680200000000 1.0
C      1  0.3991530000000  0.5582770000000  0.4982990000000 1.0
C      1  0.5871050000000  0.5594240000000  0.5015020000000 1.0
C      1  0.4717950000000  0.5293030000000  0.5942970000000 1.0
C      1  0.5042240000000  0.4271450000000  0.4353450000000 1.0
C      1  0.5170340000000  0.5701800000000  0.5292010000000 1.0
C      1  0.5034720000000  0.6069930000000  0.5050150000000 1.0
END
