TITL C-2847949-8115-257 -0.00142515476659056 125000 -964.251155762755 0 0 177 (C1) n - 1
REM
REM in /home/bkarasulu/work/CARBON/AIRSS/Generating-Clusters/AIREBO/with-SteepDescent/Only-C1/SD-CG-opt/Try1-1.4A-POS3A/HFTN-CG
REM
REM
REM
REM
REM
REM ./C.cell (11c1c37f851c82e70ff6c80c92926a4b)
REM
REM compiler GCC version 9.2.1 20190827 (Red Hat 9.2.1-1)
REM options -cpp -mtune=generic -march=x86-64 -g -O0 -fpre-include=/usr/include/finclude/math-vector-fortran.h
REM seed -255930920 615213683 299376398 650645575 -38268011 1104780787 -1757089438 607355135 1654763637 963248405 -744642442 -1492183564 1090412790 -1629239234 1529194353 1198958616 -1534637086 1999439728 -1153995485 97445244 240684463 -616162630 846374758 578913101 -344215117 434109069 1455122952 -443585100 1702015743 647524072 1203685515 1807521378 -1877832212
REM
CELL 1.54180   50.00000   50.00000   50.00000   90.00000   90.00000   90.00000
LATT -1
SFAC C  
C      1  0.4336900000000  0.4870210000000  0.4636620000000 1.0
C      1  0.4714440000000  0.5611410000000  0.5821060000000 1.0
C      1  0.5194070000000  0.5087540000000  0.6196850000000 1.0
C      1  0.5373610000000  0.4887520000000  0.5049220000000 1.0
C      1  0.5286030000000  0.5229060000000  0.4439600000000 1.0
C      1  0.3989120000000  0.5047190000000  0.5293100000000 1.0
C      1  0.5804000000000  0.4720780000000  0.5012510000000 1.0
C      1  0.5133300000000  0.4756970000000  0.4330740000000 1.0
C      1  0.5627920000000  0.4690440000000  0.4140280000000 1.0
C      1  0.5743960000000  0.5393410000000  0.4305340000000 1.0
C      1  0.4631850000000  0.4494390000000  0.5997530000000 1.0
C      1  0.5419010000000  0.4881340000000  0.4053550000000 1.0
C      1  0.5843600000000  0.4434030000000  0.5192040000000 1.0
C      1  0.4173320000000  0.5852700000000  0.4792260000000 1.0
C      1  0.4200550000000  0.5222540000000  0.4311500000000 1.0
C      1  0.4154260000000  0.4125930000000  0.4910210000000 1.0
C      1  0.4555660000000  0.4686510000000  0.5387370000000 1.0
C      1  0.6110650000000  0.5084510000000  0.4890680000000 1.0
C      1  0.5361160000000  0.4327810000000  0.4673340000000 1.0
C      1  0.4661020000000  0.4062270000000  0.5398740000000 1.0
C      1  0.5147260000000  0.4913240000000  0.3963970000000 1.0
C      1  0.4591050000000  0.5368570000000  0.5916610000000 1.0
C      1  0.4629900000000  0.5639360000000  0.4861750000000 1.0
C      1  0.4297950000000  0.5356480000000  0.5837090000000 1.0
C      1  0.4586370000000  0.4831360000000  0.6001520000000 1.0
C      1  0.5404380000000  0.4057370000000  0.5514750000000 1.0
C      1  0.4173790000000  0.5386610000000  0.4603870000000 1.0
C      1  0.4965870000000  0.3982660000000  0.4465630000000 1.0
C      1  0.4355980000000  0.5768890000000  0.4971220000000 1.0
C      1  0.4993410000000  0.5214320000000  0.3927240000000 1.0
C      1  0.5537290000000  0.5201950000000  0.5875280000000 1.0
C      1  0.5506540000000  0.5422140000000  0.4074640000000 1.0
C      1  0.4883360000000  0.5499810000000  0.4292480000000 1.0
C      1  0.4234110000000  0.4206650000000  0.4627590000000 1.0
C      1  0.4093450000000  0.4975670000000  0.4815210000000 1.0
C      1  0.4964170000000  0.4494830000000  0.5280550000000 1.0
C      1  0.5199160000000  0.5394980000000  0.4943440000000 1.0
C      1  0.4903580000000  0.4768900000000  0.5896220000000 1.0
C      1  0.4072540000000  0.4586620000000  0.5148620000000 1.0
C      1  0.5072630000000  0.5450540000000  0.5891170000000 1.0
C      1  0.5871950000000  0.4264050000000  0.4706360000000 1.0
C      1  0.5422450000000  0.5856660000000  0.5505970000000 1.0
C      1  0.5854470000000  0.4582130000000  0.4607300000000 1.0
C      1  0.5742220000000  0.5977010000000  0.4280290000000 1.0
C      1  0.4559730000000  0.5587230000000  0.4303740000000 1.0
C      1  0.5686650000000  0.5714710000000  0.4831790000000 1.0
C      1  0.4318070000000  0.4399100000000  0.5530100000000 1.0
C      1  0.5123860000000  0.5673100000000  0.5031660000000 1.0
C      1  0.4938100000000  0.4690630000000  0.5003660000000 1.0
C      1  0.5359860000000  0.5525890000000  0.5456990000000 1.0
C      1  0.5803250000000  0.5262280000000  0.5671880000000 1.0
C      1  0.4408540000000  0.5340560000000  0.4124450000000 1.0
C      1  0.5595190000000  0.5543630000000  0.4571620000000 1.0
C      1  0.4060680000000  0.4979020000000  0.4340440000000 1.0
C      1  0.5177600000000  0.5389030000000  0.4154440000000 1.0
C      1  0.4518600000000  0.5554060000000  0.5412490000000 1.0
C      1  0.4908960000000  0.5797090000000  0.4856600000000 1.0
C      1  0.5096590000000  0.5719130000000  0.4143990000000 1.0
C      1  0.4538030000000  0.4601210000000  0.4583810000000 1.0
C      1  0.4905070000000  0.6019240000000  0.5322390000000 1.0
C      1  0.5025010000000  0.3941140000000  0.4742370000000 1.0
C      1  0.5062410000000  0.5355530000000  0.4662360000000 1.0
C      1  0.4671140000000  0.5145630000000  0.4029720000000 1.0
C      1  0.5695020000000  0.5804710000000  0.5611680000000 1.0
C      1  0.5057580000000  0.4223330000000  0.4291520000000 1.0
C      1  0.4736260000000  0.4283060000000  0.5812370000000 1.0
C      1  0.5119980000000  0.5175720000000  0.5159830000000 1.0
C      1  0.4815240000000  0.4315260000000  0.4088750000000 1.0
C      1  0.5926730000000  0.4989390000000  0.5153280000000 1.0
C      1  0.5817330000000  0.4265190000000  0.4370450000000 1.0
C      1  0.4533270000000  0.4355970000000  0.4210780000000 1.0
C      1  0.5628390000000  0.3967160000000  0.5035180000000 1.0
C      1  0.5492320000000  0.5621160000000  0.5168540000000 1.0
C      1  0.5725890000000  0.3723350000000  0.5119850000000 1.0
C      1  0.4976550000000  0.4499410000000  0.4445610000000 1.0
C      1  0.5264700000000  0.4253530000000  0.5722070000000 1.0
C      1  0.4744980000000  0.5764130000000  0.5515430000000 1.0
C      1  0.4179070000000  0.5273810000000  0.4925480000000 1.0
C      1  0.4642970000000  0.4989830000000  0.4549330000000 1.0
C      1  0.5108410000000  0.5653080000000  0.5639680000000 1.0
C      1  0.4141200000000  0.5349670000000  0.5256220000000 1.0
C      1  0.5477310000000  0.5125290000000  0.4178360000000 1.0
C      1  0.4645490000000  0.5282690000000  0.5483630000000 1.0
C      1  0.5327240000000  0.4126850000000  0.5241530000000 1.0
C      1  0.4805180000000  0.4877450000000  0.5379990000000 1.0
C      1  0.5745250000000  0.5221580000000  0.5046530000000 1.0
C      1  0.5552990000000  0.5215350000000  0.4649790000000 1.0
C      1  0.4359610000000  0.4943180000000  0.5389230000000 1.0
C      1  0.5714470000000  0.4827460000000  0.4439260000000 1.0
C      1  0.4512490000000  0.4591040000000  0.5693730000000 1.0
C      1  0.4901380000000  0.5313670000000  0.5630950000000 1.0
C      1  0.5626350000000  0.4777940000000  0.5528770000000 1.0
C      1  0.4425040000000  0.5131430000000  0.5642350000000 1.0
C      1  0.4497760000000  0.5973320000000  0.5607180000000 1.0
C      1  0.4079290000000  0.4861150000000  0.5563370000000 1.0
C      1  0.5921680000000  0.5678760000000  0.5007950000000 1.0
C      1  0.5168670000000  0.5244700000000  0.5459030000000 1.0
C      1  0.5165720000000  0.4960420000000  0.4578860000000 1.0
C      1  0.5734370000000  0.4472920000000  0.5458820000000 1.0
C      1  0.4408020000000  0.4606930000000  0.4161200000000 1.0
C      1  0.5831940000000  0.5576350000000  0.5540070000000 1.0
C      1  0.5769680000000  0.5484560000000  0.5218600000000 1.0
C      1  0.5304810000000  0.4667970000000  0.5516050000000 1.0
C      1  0.5152200000000  0.4821270000000  0.6100550000000 1.0
C      1  0.4106240000000  0.4550660000000  0.5427010000000 1.0
C      1  0.5284870000000  0.4722320000000  0.4765570000000 1.0
C      1  0.4971150000000  0.4658900000000  0.5580960000000 1.0
C      1  0.4902390000000  0.4957960000000  0.4195680000000 1.0
C      1  0.5017150000000  0.5045310000000  0.5772560000000 1.0
C      1  0.5023060000000  0.5700440000000  0.5330130000000 1.0
C      1  0.4693110000000  0.5947800000000  0.5865700000000 1.0
C      1  0.5593570000000  0.5279510000000  0.5424930000000 1.0
C      1  0.4758250000000  0.6017440000000  0.5035630000000 1.0
C      1  0.4157250000000  0.4514210000000  0.4645150000000 1.0
C      1  0.5453690000000  0.5189720000000  0.4943660000000 1.0
C      1  0.5359640000000  0.6106000000000  0.5113960000000 1.0
C      1  0.5340140000000  0.4357730000000  0.4362550000000 1.0
C      1  0.4539930000000  0.4200250000000  0.5613460000000 1.0
C      1  0.4347840000000  0.4848980000000  0.5774850000000 1.0
C      1  0.5559430000000  0.5822170000000  0.4378060000000 1.0
C      1  0.5103930000000  0.4443810000000  0.4838610000000 1.0
C      1  0.5393110000000  0.4703320000000  0.6037300000000 1.0
C      1  0.5887890000000  0.4990190000000  0.5481670000000 1.0
C      1  0.5528210000000  0.5008610000000  0.5312010000000 1.0
C      1  0.5096850000000  0.4868860000000  0.5245900000000 1.0
C      1  0.6069230000000  0.5373950000000  0.4393940000000 1.0
C      1  0.4796470000000  0.4233540000000  0.5186680000000 1.0
C      1  0.4730800000000  0.5124820000000  0.5938490000000 1.0
C      1  0.5551860000000  0.4878910000000  0.5835300000000 1.0
C      1  0.5806590000000  0.4195480000000  0.5020860000000 1.0
C      1  0.4226820000000  0.5467710000000  0.5564200000000 1.0
C      1  0.5603070000000  0.4451930000000  0.4795950000000 1.0
C      1  0.4265650000000  0.5669160000000  0.5229930000000 1.0
C      1  0.4672780000000  0.5282830000000  0.4404820000000 1.0
C      1  0.5300520000000  0.4449300000000  0.5260330000000 1.0
C      1  0.4676550000000  0.5137730000000  0.5215370000000 1.0
C      1  0.4825000000000  0.4348420000000  0.4684280000000 1.0
C      1  0.4788430000000  0.4608770000000  0.4039530000000 1.0
C      1  0.4216570000000  0.4700240000000  0.4367850000000 1.0
C      1  0.4684310000000  0.3973150000000  0.4438410000000 1.0
C      1  0.5041460000000  0.5930930000000  0.4612450000000 1.0
C      1  0.4564280000000  0.4824050000000  0.4006900000000 1.0
C      1  0.4535370000000  0.4265950000000  0.4526130000000 1.0
C      1  0.4736610000000  0.4726830000000  0.4354240000000 1.0
C      1  0.4781170000000  0.3994430000000  0.4871620000000 1.0
C      1  0.6100360000000  0.5155910000000  0.4636900000000 1.0
C      1  0.5886200000000  0.5090090000000  0.4378200000000 1.0
C      1  0.5621520000000  0.4414620000000  0.4242390000000 1.0
C      1  0.5293600000000  0.5281870000000  0.6009190000000 1.0
C      1  0.4473920000000  0.5331320000000  0.4663450000000 1.0
C      1  0.4496620000000  0.5764500000000  0.4574780000000 1.0
C      1  0.5243100000000  0.6033000000000  0.5359200000000 1.0
C      1  0.5411300000000  0.5841760000000  0.4963880000000 1.0
C      1  0.4168710000000  0.5691070000000  0.4557180000000 1.0
C      1  0.4374500000000  0.5056500000000  0.5086730000000 1.0
C      1  0.3896120000000  0.4984830000000  0.4568280000000 1.0
C      1  0.4591290000000  0.6024880000000  0.4772970000000 1.0
C      1  0.4656260000000  0.4667420000000  0.4868010000000 1.0
C      1  0.4268980000000  0.5904960000000  0.5473380000000 1.0
C      1  0.5416210000000  0.4668810000000  0.4477990000000 1.0
C      1  0.5298570000000  0.4988230000000  0.5636530000000 1.0
C      1  0.5689080000000  0.4925050000000  0.4764040000000 1.0
C      1  0.4599680000000  0.4276570000000  0.4928410000000 1.0
C      1  0.4821480000000  0.5164420000000  0.4749820000000 1.0
C      1  0.4014860000000  0.4852570000000  0.5076870000000 1.0
C      1  0.5079570000000  0.4197790000000  0.5042580000000 1.0
C      1  0.5237800000000  0.5851830000000  0.4375280000000 1.0
C      1  0.5303200000000  0.3973810000000  0.4935790000000 1.0
C      1  0.5031290000000  0.5003870000000  0.4880100000000 1.0
C      1  0.5498080000000  0.4585110000000  0.5072700000000 1.0
C      1  0.5002950000000  0.4348350000000  0.5715750000000 1.0
C      1  0.4986710000000  0.5779650000000  0.5916930000000 1.0
C      1  0.4440050000000  0.4722770000000  0.5069630000000 1.0
C      1  0.5594140000000  0.4286710000000  0.5625000000000 1.0
C      1  0.5262810000000  0.5599630000000  0.4585600000000 1.0
C      1  0.4300730000000  0.4439010000000  0.4944250000000 1.0
C      1  0.4640670000000  0.5325120000000  0.4947870000000 1.0
END
