TITL C-2848499-1157-753 -2.11114387706074e-05 125000 -803.909053357891 0 0 149 (C1) n - 1
REM
REM in /home/bkarasulu/work/CARBON/AIRSS/Generating-Clusters/AIREBO/with-SteepDescent/Only-C1/SD-CG-opt/Try1-1.4A-POS3A/HFTN-CG
REM
REM
REM
REM
REM
REM ./C.cell (11c1c37f851c82e70ff6c80c92926a4b)
REM
REM compiler GCC version 9.2.1 20190827 (Red Hat 9.2.1-1)
REM options -cpp -mtune=generic -march=x86-64 -g -O0 -fpre-include=/usr/include/finclude/math-vector-fortran.h
REM seed 89031115 1706209337 -1271205991 -1206496194 -341431016 -1447030311 -1312944039 -691819082 1353085078 2051327979 191969166 544440993 449565737 66060223 1481081549 1615619557 218093262 -222332153 513523811 1136750588 -962538352 -1833848600 -961684635 618603107 241474157 -832279584 1617658457 1357636571 1476855769 -1229573790 1464169043 1924604892 -446132288
REM
CELL 1.54180   50.00000   50.00000   50.00000   90.00000   90.00000   90.00000
LATT -1
SFAC C  
C      1  0.5275260000000  0.5413260000000  0.4269080000000 1.0
C      1  0.5374400000000  0.5444140000000  0.5122910000000 1.0
C      1  0.5561190000000  0.4340830000000  0.4603360000000 1.0
C      1  0.4935090000000  0.5776760000000  0.4586250000000 1.0
C      1  0.5429160000000  0.5158890000000  0.5578890000000 1.0
C      1  0.4620500000000  0.4899390000000  0.5142820000000 1.0
C      1  0.4122380000000  0.4481790000000  0.5139840000000 1.0
C      1  0.4935700000000  0.5893820000000  0.5473660000000 1.0
C      1  0.4478750000000  0.5272240000000  0.5126080000000 1.0
C      1  0.5874990000000  0.5514700000000  0.4710030000000 1.0
C      1  0.4820850000000  0.4606110000000  0.5665770000000 1.0
C      1  0.5798190000000  0.4897920000000  0.5229390000000 1.0
C      1  0.4796800000000  0.5306750000000  0.4537880000000 1.0
C      1  0.4172540000000  0.5703570000000  0.5108380000000 1.0
C      1  0.5734770000000  0.5017820000000  0.4634770000000 1.0
C      1  0.4860680000000  0.4640790000000  0.4763860000000 1.0
C      1  0.5461890000000  0.5648870000000  0.4891120000000 1.0
C      1  0.5154400000000  0.6007160000000  0.4996920000000 1.0
C      1  0.4789830000000  0.5329610000000  0.5496270000000 1.0
C      1  0.5074060000000  0.4313380000000  0.4582190000000 1.0
C      1  0.5142630000000  0.5113910000000  0.6103610000000 1.0
C      1  0.4136570000000  0.4617860000000  0.4828070000000 1.0
C      1  0.5416050000000  0.4572520000000  0.5024130000000 1.0
C      1  0.4893450000000  0.4931810000000  0.6007650000000 1.0
C      1  0.4695830000000  0.5731320000000  0.5080600000000 1.0
C      1  0.6005150000000  0.5010020000000  0.4798600000000 1.0
C      1  0.5220310000000  0.5028390000000  0.4065630000000 1.0
C      1  0.4660650000000  0.5620060000000  0.4505190000000 1.0
C      1  0.4497920000000  0.4434990000000  0.4424110000000 1.0
C      1  0.4262750000000  0.5522020000000  0.5614290000000 1.0
C      1  0.5521670000000  0.5120820000000  0.4153800000000 1.0
C      1  0.5142840000000  0.4475050000000  0.4291020000000 1.0
C      1  0.4751050000000  0.4249160000000  0.4555390000000 1.0
C      1  0.4377670000000  0.5076350000000  0.4313290000000 1.0
C      1  0.4715980000000  0.5415360000000  0.5876070000000 1.0
C      1  0.5626950000000  0.5417690000000  0.4552020000000 1.0
C      1  0.4910280000000  0.5009590000000  0.4116390000000 1.0
C      1  0.4905740000000  0.5990210000000  0.5148940000000 1.0
C      1  0.5219770000000  0.4009700000000  0.4558420000000 1.0
C      1  0.3942370000000  0.5176810000000  0.4764630000000 1.0
C      1  0.4586550000000  0.5441450000000  0.4225450000000 1.0
C      1  0.4145100000000  0.5291370000000  0.5763430000000 1.0
C      1  0.5550570000000  0.5183670000000  0.5099560000000 1.0
C      1  0.5292130000000  0.4192840000000  0.5002570000000 1.0
C      1  0.5006530000000  0.5456450000000  0.5806680000000 1.0
C      1  0.5033460000000  0.4790730000000  0.4345730000000 1.0
C      1  0.5106630000000  0.4931430000000  0.5742680000000 1.0
C      1  0.4128850000000  0.5585960000000  0.4582310000000 1.0
C      1  0.4873690000000  0.4291060000000  0.4240510000000 1.0
C      1  0.4651810000000  0.5534790000000  0.4827890000000 1.0
C      1  0.4650090000000  0.4722100000000  0.5936030000000 1.0
C      1  0.4379950000000  0.4372230000000  0.5296710000000 1.0
C      1  0.4724220000000  0.4156440000000  0.4881590000000 1.0
C      1  0.5625310000000  0.4392660000000  0.5448900000000 1.0
C      1  0.5972650000000  0.4522290000000  0.4945670000000 1.0
C      1  0.4599160000000  0.4370310000000  0.5630070000000 1.0
C      1  0.4395890000000  0.5863340000000  0.5093100000000 1.0
C      1  0.5013630000000  0.5619730000000  0.5048420000000 1.0
C      1  0.4476320000000  0.4116060000000  0.5094770000000 1.0
C      1  0.5585400000000  0.4292580000000  0.4324440000000 1.0
C      1  0.5638110000000  0.5708560000000  0.5256960000000 1.0
C      1  0.6018330000000  0.5340910000000  0.4860640000000 1.0
C      1  0.4980380000000  0.4134980000000  0.5072750000000 1.0
C      1  0.5946340000000  0.5133970000000  0.5112770000000 1.0
C      1  0.5395960000000  0.4582310000000  0.5855480000000 1.0
C      1  0.4598830000000  0.4577070000000  0.5170220000000 1.0
C      1  0.6139830000000  0.4716670000000  0.4809780000000 1.0
C      1  0.5511220000000  0.4177760000000  0.5211400000000 1.0
C      1  0.5342670000000  0.5369470000000  0.4732760000000 1.0
C      1  0.5136750000000  0.4190900000000  0.5553390000000 1.0
C      1  0.5816370000000  0.4326150000000  0.5175550000000 1.0
C      1  0.5611110000000  0.4382230000000  0.5732770000000 1.0
C      1  0.4214470000000  0.4835640000000  0.4425940000000 1.0
C      1  0.5776310000000  0.5421210000000  0.5177970000000 1.0
C      1  0.5439220000000  0.5635300000000  0.4411780000000 1.0
C      1  0.5095850000000  0.5223970000000  0.5606340000000 1.0
C      1  0.5339230000000  0.5501060000000  0.5760900000000 1.0
C      1  0.5379860000000  0.5810020000000  0.4626930000000 1.0
C      1  0.4323030000000  0.5003290000000  0.5189270000000 1.0
C      1  0.4315960000000  0.4710920000000  0.5878420000000 1.0
C      1  0.5146710000000  0.5972770000000  0.4700100000000 1.0
C      1  0.5706920000000  0.4689230000000  0.4973490000000 1.0
C      1  0.4648260000000  0.5113990000000  0.5856890000000 1.0
C      1  0.4477900000000  0.5270180000000  0.4568460000000 1.0
C      1  0.5096130000000  0.4438600000000  0.5783610000000 1.0
C      1  0.5024530000000  0.5481620000000  0.4069190000000 1.0
C      1  0.4935100000000  0.5024250000000  0.4567250000000 1.0
C      1  0.4393320000000  0.5360920000000  0.4856340000000 1.0
C      1  0.4637380000000  0.4464870000000  0.4894540000000 1.0
C      1  0.4849670000000  0.5266310000000  0.4871320000000 1.0
C      1  0.4803420000000  0.5319720000000  0.4099610000000 1.0
C      1  0.5922050000000  0.4615720000000  0.5302520000000 1.0
C      1  0.5403940000000  0.4057780000000  0.5470990000000 1.0
C      1  0.5565900000000  0.4656900000000  0.4665550000000 1.0
C      1  0.5726390000000  0.5197720000000  0.4349580000000 1.0
C      1  0.5528410000000  0.4896160000000  0.5850550000000 1.0
C      1  0.5551830000000  0.4722090000000  0.4162990000000 1.0
C      1  0.4360220000000  0.5762920000000  0.4518400000000 1.0
C      1  0.5663420000000  0.5300720000000  0.5465010000000 1.0
C      1  0.4311130000000  0.4850630000000  0.5557500000000 1.0
C      1  0.5229810000000  0.5168090000000  0.4482940000000 1.0
C      1  0.5122060000000  0.5756220000000  0.5695280000000 1.0
C      1  0.5381710000000  0.5582140000000  0.5433840000000 1.0
C      1  0.5408270000000  0.4151110000000  0.4728420000000 1.0
C      1  0.5275120000000  0.4833190000000  0.4874190000000 1.0
C      1  0.5436480000000  0.5915310000000  0.5100800000000 1.0
C      1  0.4415250000000  0.4542300000000  0.4707240000000 1.0
C      1  0.4417590000000  0.4870190000000  0.4696410000000 1.0
C      1  0.5092950000000  0.5015390000000  0.5179200000000 1.0
C      1  0.4580820000000  0.4973910000000  0.4115600000000 1.0
C      1  0.4748670000000  0.4653140000000  0.4470570000000 1.0
C      1  0.6000020000000  0.5244120000000  0.4225100000000 1.0
C      1  0.4655320000000  0.4686030000000  0.4155650000000 1.0
C      1  0.4807510000000  0.4942880000000  0.5619510000000 1.0
C      1  0.5123250000000  0.5694350000000  0.5301350000000 1.0
C      1  0.4650760000000  0.5435000000000  0.5241210000000 1.0
C      1  0.4650830000000  0.5843780000000  0.5583140000000 1.0
C      1  0.5054840000000  0.4712010000000  0.5104880000000 1.0
C      1  0.5645210000000  0.4900610000000  0.5531210000000 1.0
C      1  0.5084230000000  0.5586280000000  0.4776280000000 1.0
C      1  0.4356410000000  0.5045460000000  0.5833000000000 1.0
C      1  0.4267260000000  0.5398260000000  0.4334300000000 1.0
C      1  0.4855420000000  0.4605780000000  0.5327350000000 1.0
C      1  0.5496980000000  0.5076930000000  0.4812010000000 1.0
C      1  0.5128650000000  0.4500150000000  0.5435070000000 1.0
C      1  0.5303700000000  0.4843440000000  0.4552380000000 1.0
C      1  0.4121880000000  0.5578850000000  0.5379820000000 1.0
C      1  0.5365270000000  0.5191910000000  0.5900770000000 1.0
C      1  0.4619470000000  0.4156450000000  0.5406200000000 1.0
C      1  0.4723130000000  0.4946510000000  0.4821600000000 1.0
C      1  0.5492180000000  0.4666320000000  0.5337950000000 1.0
C      1  0.4340240000000  0.4537270000000  0.5591350000000 1.0
C      1  0.5390940000000  0.4969060000000  0.5231890000000 1.0
C      1  0.5667570000000  0.4806800000000  0.4389900000000 1.0
C      1  0.5139810000000  0.5247170000000  0.4976910000000 1.0
C      1  0.4225380000000  0.5150600000000  0.5470590000000 1.0
C      1  0.4134140000000  0.4805820000000  0.5098730000000 1.0
C      1  0.5354960000000  0.5310030000000  0.3955040000000 1.0
C      1  0.4565190000000  0.5548870000000  0.5627880000000 1.0
C      1  0.5126220000000  0.4464530000000  0.4882630000000 1.0
C      1  0.4822340000000  0.5037580000000  0.5325200000000 1.0
C      1  0.4097210000000  0.5450510000000  0.4894070000000 1.0
C      1  0.4706850000000  0.4421000000000  0.4063120000000 1.0
C      1  0.4076110000000  0.5314850000000  0.5211980000000 1.0
C      1  0.5275000000000  0.4735300000000  0.5590380000000 1.0
C      1  0.4916690000000  0.4137880000000  0.5334330000000 1.0
C      1  0.5421620000000  0.4471620000000  0.4179940000000 1.0
C      1  0.4259390000000  0.4574200000000  0.4306650000000 1.0
C      1  0.4081830000000  0.4936370000000  0.4722400000000 1.0
END
