TITL C-2848496-4490-393 -0.00143733123320785 125000 -751.957426742256 0 0 135 (C1) n - 1
REM
REM in /home/bkarasulu/work/CARBON/AIRSS/Generating-Clusters/AIREBO/with-SteepDescent/Only-C1/SD-CG-opt/Try1-1.4A-POS3A/HFTN-CG
REM
REM
REM
REM
REM
REM ./C.cell (11c1c37f851c82e70ff6c80c92926a4b)
REM
REM compiler GCC version 9.2.1 20190827 (Red Hat 9.2.1-1)
REM options -cpp -mtune=generic -march=x86-64 -g -O0 -fpre-include=/usr/include/finclude/math-vector-fortran.h
REM seed -1968199158 1016821352 -826012415 1854001526 -1686563670 292433899 1063360831 1579138846 -152280192 -1588150681 -599726885 1269063327 -1394197532 1893978099 1262653680 -1985350570 1007099362 -409029972 -1197948575 1243840868 54822898 -1613362639 2105973192 386803953 -2096072325 2144521999 -420192659 -749010615 1108906949 1133353246 -1508912304 -1196067411 1225523718
REM
CELL 1.54180   50.00000   50.00000   50.00000   90.00000   90.00000   90.00000
LATT -1
SFAC C  
C      1  0.5687000000000  0.4563460000000  0.5693220000000 1.0
C      1  0.5001120000000  0.4664810000000  0.4890340000000 1.0
C      1  0.4659900000000  0.4330080000000  0.5236530000000 1.0
C      1  0.4242140000000  0.4556940000000  0.4701950000000 1.0
C      1  0.4326420000000  0.5595360000000  0.5244720000000 1.0
C      1  0.4090100000000  0.4699820000000  0.4946390000000 1.0
C      1  0.4680880000000  0.5578370000000  0.4369510000000 1.0
C      1  0.4949840000000  0.6324020000000  0.4969540000000 1.0
C      1  0.5635140000000  0.5460720000000  0.5535530000000 1.0
C      1  0.5917290000000  0.4720520000000  0.5113840000000 1.0
C      1  0.4361320000000  0.4883570000000  0.4897610000000 1.0
C      1  0.5684580000000  0.5188280000000  0.4287870000000 1.0
C      1  0.4266360000000  0.4178960000000  0.5621490000000 1.0
C      1  0.5669220000000  0.4282190000000  0.4910350000000 1.0
C      1  0.4346720000000  0.5707100000000  0.4721500000000 1.0
C      1  0.5827700000000  0.4843940000000  0.5390200000000 1.0
C      1  0.5113320000000  0.4847200000000  0.5316270000000 1.0
C      1  0.5126440000000  0.4595190000000  0.4205740000000 1.0
C      1  0.5794090000000  0.5180380000000  0.5426670000000 1.0
C      1  0.5077440000000  0.3690440000000  0.4743980000000 1.0
C      1  0.4429950000000  0.5521140000000  0.5760310000000 1.0
C      1  0.4905390000000  0.4171790000000  0.4779160000000 1.0
C      1  0.4248120000000  0.5389050000000  0.4660050000000 1.0
C      1  0.5614590000000  0.5575050000000  0.5062130000000 1.0
C      1  0.5624160000000  0.5713010000000  0.4688160000000 1.0
C      1  0.4549210000000  0.5346250000000  0.4533340000000 1.0
C      1  0.5141980000000  0.5323330000000  0.4545840000000 1.0
C      1  0.5233310000000  0.5058480000000  0.5553610000000 1.0
C      1  0.4944320000000  0.5470910000000  0.4231690000000 1.0
C      1  0.4527750000000  0.5055410000000  0.5805690000000 1.0
C      1  0.4791430000000  0.5245310000000  0.5240820000000 1.0
C      1  0.4895130000000  0.3901860000000  0.5174790000000 1.0
C      1  0.5084050000000  0.5345770000000  0.5147640000000 1.0
C      1  0.4016240000000  0.5172060000000  0.5121020000000 1.0
C      1  0.5440730000000  0.5463210000000  0.4553110000000 1.0
C      1  0.5377580000000  0.5714430000000  0.4899610000000 1.0
C      1  0.5412810000000  0.4763210000000  0.4150900000000 1.0
C      1  0.4872650000000  0.5130970000000  0.4624800000000 1.0
C      1  0.4403410000000  0.4108590000000  0.4853620000000 1.0
C      1  0.5265720000000  0.4553440000000  0.5018210000000 1.0
C      1  0.5199150000000  0.4968100000000  0.4082620000000 1.0
C      1  0.5045350000000  0.5639920000000  0.4880700000000 1.0
C      1  0.5320160000000  0.4505810000000  0.4709260000000 1.0
C      1  0.5492240000000  0.5361530000000  0.4170630000000 1.0
C      1  0.5254130000000  0.5591510000000  0.5591450000000 1.0
C      1  0.4944630000000  0.4345380000000  0.5357990000000 1.0
C      1  0.4058010000000  0.4897300000000  0.5192190000000 1.0
C      1  0.4761640000000  0.5103910000000  0.5958420000000 1.0
C      1  0.4658760000000  0.5927010000000  0.4837710000000 1.0
C      1  0.5456230000000  0.4284360000000  0.5410990000000 1.0
C      1  0.5804680000000  0.4926850000000  0.4370670000000 1.0
C      1  0.5134280000000  0.4929180000000  0.4986890000000 1.0
C      1  0.5817590000000  0.4443160000000  0.5084350000000 1.0
C      1  0.4380350000000  0.4383720000000  0.4242370000000 1.0
C      1  0.4373870000000  0.5373340000000  0.5496160000000 1.0
C      1  0.4279180000000  0.5100090000000  0.4380100000000 1.0
C      1  0.4893860000000  0.4658250000000  0.5819340000000 1.0
C      1  0.5684840000000  0.4461460000000  0.4416650000000 1.0
C      1  0.5646460000000  0.4794840000000  0.5791830000000 1.0
C      1  0.5198650000000  0.5246290000000  0.4209380000000 1.0
C      1  0.4366720000000  0.4301450000000  0.4662940000000 1.0
C      1  0.4634630000000  0.5654570000000  0.5152560000000 1.0
C      1  0.4083020000000  0.4130070000000  0.5802250000000 1.0
C      1  0.4513200000000  0.4820820000000  0.5301790000000 1.0
C      1  0.4948620000000  0.4825420000000  0.4027220000000 1.0
C      1  0.4732910000000  0.5119110000000  0.4934630000000 1.0
C      1  0.4832310000000  0.4905980000000  0.5594720000000 1.0
C      1  0.4141340000000  0.5001820000000  0.4666760000000 1.0
C      1  0.5107620000000  0.4628510000000  0.4507790000000 1.0
C      1  0.4801490000000  0.4916120000000  0.5198990000000 1.0
C      1  0.5168980000000  0.5482690000000  0.5984800000000 1.0
C      1  0.5349950000000  0.5222790000000  0.6010630000000 1.0
C      1  0.5962910000000  0.4909360000000  0.4612430000000 1.0
C      1  0.4602710000000  0.5039440000000  0.4439400000000 1.0
C      1  0.5989000000000  0.4900830000000  0.4893520000000 1.0
C      1  0.5579810000000  0.5672460000000  0.5351190000000 1.0
C      1  0.5882960000000  0.5402520000000  0.4999740000000 1.0
C      1  0.4961330000000  0.6043190000000  0.4940540000000 1.0
C      1  0.5054640000000  0.5645640000000  0.4481750000000 1.0
C      1  0.5223330000000  0.5005220000000  0.5889240000000 1.0
C      1  0.5140700000000  0.4924100000000  0.4593010000000 1.0
C      1  0.4267840000000  0.4940910000000  0.5688910000000 1.0
C      1  0.5571310000000  0.4396450000000  0.4664810000000 1.0
C      1  0.5651340000000  0.4707180000000  0.4280730000000 1.0
C      1  0.5233910000000  0.5915150000000  0.5098430000000 1.0
C      1  0.4886960000000  0.5394000000000  0.5900690000000 1.0
C      1  0.5647610000000  0.4554400000000  0.5357020000000 1.0
C      1  0.4235430000000  0.4862140000000  0.5414560000000 1.0
C      1  0.5425640000000  0.5039090000000  0.4738910000000 1.0
C      1  0.4668950000000  0.4113050000000  0.5016560000000 1.0
C      1  0.4968510000000  0.4906440000000  0.5969580000000 1.0
C      1  0.5463260000000  0.5460600000000  0.5808100000000 1.0
C      1  0.4941140000000  0.5219260000000  0.5620380000000 1.0
C      1  0.5529020000000  0.5008260000000  0.5044050000000 1.0
C      1  0.4457810000000  0.4248540000000  0.5453750000000 1.0
C      1  0.5175680000000  0.4200090000000  0.3912300000000 1.0
C      1  0.5224950000000  0.4311150000000  0.5186990000000 1.0
C      1  0.5312590000000  0.5823010000000  0.4415190000000 1.0
C      1  0.4809620000000  0.5450610000000  0.4725530000000 1.0
C      1  0.4543140000000  0.5504610000000  0.4898880000000 1.0
C      1  0.5467250000000  0.4127320000000  0.5044810000000 1.0
C      1  0.4088690000000  0.4846380000000  0.4368270000000 1.0
C      1  0.4398520000000  0.5864670000000  0.5047560000000 1.0
C      1  0.4445110000000  0.4768610000000  0.4527980000000 1.0
C      1  0.5311450000000  0.4034470000000  0.5465720000000 1.0
C      1  0.4252580000000  0.4610920000000  0.4306920000000 1.0
C      1  0.4586400000000  0.5108080000000  0.5474840000000 1.0
C      1  0.5378380000000  0.5882400000000  0.5347470000000 1.0
C      1  0.5566690000000  0.5005320000000  0.5593350000000 1.0
C      1  0.4976410000000  0.4604870000000  0.5502770000000 1.0
C      1  0.4843470000000  0.4474550000000  0.4656750000000 1.0
C      1  0.5847910000000  0.5113700000000  0.5097320000000 1.0
C      1  0.4608240000000  0.5802350000000  0.4548250000000 1.0
C      1  0.5512300000000  0.5649880000000  0.4278060000000 1.0
C      1  0.4642140000000  0.5581010000000  0.5878820000000 1.0
C      1  0.5420540000000  0.4755390000000  0.5202620000000 1.0
C      1  0.4970710000000  0.3894170000000  0.4880060000000 1.0
C      1  0.5109220000000  0.5904400000000  0.4676660000000 1.0
C      1  0.4583500000000  0.4593070000000  0.5112770000000 1.0
C      1  0.5056690000000  0.4315130000000  0.4130080000000 1.0
C      1  0.5031060000000  0.4029460000000  0.5388860000000 1.0
C      1  0.4911720000000  0.5623330000000  0.5192940000000 1.0
C      1  0.5292670000000  0.5330530000000  0.5376530000000 1.0
C      1  0.4959310000000  0.5512190000000  0.5488900000000 1.0
C      1  0.5641230000000  0.5213640000000  0.4596050000000 1.0
C      1  0.5250800000000  0.5922130000000  0.5614480000000 1.0
C      1  0.4422980000000  0.5191630000000  0.4878660000000 1.0
C      1  0.4619370000000  0.4322350000000  0.4451100000000 1.0
C      1  0.5508170000000  0.5301310000000  0.5177380000000 1.0
C      1  0.4099970000000  0.5364240000000  0.5300860000000 1.0
C      1  0.4859750000000  0.4207110000000  0.4278920000000 1.0
C      1  0.4607520000000  0.4666480000000  0.4808810000000 1.0
C      1  0.4025920000000  0.5230480000000  0.4850430000000 1.0
C      1  0.5173160000000  0.5225210000000  0.4870170000000 1.0
C      1  0.5797670000000  0.5459580000000  0.4726130000000 1.0
END
