TITL C-2847948-6138-692 -0.0219458281964544 125000 -126.552879211146 0 0 23 (C1) n - 1
REM
REM in /home/bkarasulu/work/CARBON/AIRSS/Generating-Clusters/AIREBO/with-SteepDescent/Only-C1/SD-CG-opt/Try1-1.4A-POS3A/HFTN-CG
REM
REM
REM
REM
REM
REM ./C.cell (11c1c37f851c82e70ff6c80c92926a4b)
REM
REM compiler GCC version 9.2.1 20190827 (Red Hat 9.2.1-1)
REM options -cpp -mtune=generic -march=x86-64 -g -O0 -fpre-include=/usr/include/finclude/math-vector-fortran.h
REM seed 88825574 -745389339 -139119007 -1627816477 -1732422501 173703855 -1970792216 989442780 -1477391040 -1869495230 164406069 -1563904900 2081165529 -765121672 -839224313 -651033970 144127994 -1380356962 -1007123856 -21109579 -1771096725 2013936729 -1643920037 1473078350 93632667 168785284 864555061 -2060168873 -1217949576 240455338 1272831665 -1213936950 1683373701
REM
CELL 1.54180   50.00000   50.00000   50.00000   90.00000   90.00000   90.00000
LATT -1
SFAC C  
C      1  0.5477570000000  0.5543980000000  0.4972860000000 1.0
C      1  0.5036530000000  0.5544120000000  0.5290610000000 1.0
C      1  0.5126770000000  0.4597100000000  0.4762020000000 1.0
C      1  0.5677670000000  0.5185010000000  0.4571770000000 1.0
C      1  0.4632850000000  0.4979760000000  0.5300460000000 1.0
C      1  0.4291180000000  0.6089040000000  0.5608120000000 1.0
C      1  0.4701290000000  0.5224880000000  0.5381560000000 1.0
C      1  0.5259130000000  0.5536550000000  0.5143830000000 1.0
C      1  0.4679170000000  0.4490540000000  0.5068410000000 1.0
C      1  0.5073170000000  0.4059270000000  0.4449740000000 1.0
C      1  0.4496070000000  0.4298180000000  0.5116670000000 1.0
C      1  0.4603200000000  0.5695000000000  0.5446810000000 1.0
C      1  0.4993530000000  0.3990870000000  0.4205520000000 1.0
C      1  0.5230000000000  0.3986410000000  0.4715000000000 1.0
C      1  0.4884910000000  0.4454160000000  0.4902180000000 1.0
C      1  0.5530010000000  0.5323140000000  0.4823510000000 1.0
C      1  0.5284280000000  0.4811900000000  0.4746220000000 1.0
C      1  0.4661070000000  0.4735120000000  0.5198140000000 1.0
C      1  0.5644890000000  0.5755960000000  0.4975520000000 1.0
C      1  0.5068750000000  0.4281280000000  0.4693540000000 1.0
C      1  0.4777110000000  0.5492050000000  0.5376050000000 1.0
C      1  0.4444760000000  0.5887980000000  0.5539650000000 1.0
C      1  0.5426090000000  0.5037710000000  0.4711820000000 1.0
END
