TITL C-2848500-1637-700 0.000142581488751059 125000 -257.01597401631 0 0 47 (C1) n - 1
REM
REM in /home/bkarasulu/work/CARBON/AIRSS/Generating-Clusters/AIREBO/with-SteepDescent/Only-C1/SD-CG-opt/Try1-1.4A-POS3A/HFTN-CG
REM
REM
REM
REM
REM
REM ./C.cell (11c1c37f851c82e70ff6c80c92926a4b)
REM
REM compiler GCC version 9.2.1 20190827 (Red Hat 9.2.1-1)
REM options -cpp -mtune=generic -march=x86-64 -g -O0 -fpre-include=/usr/include/finclude/math-vector-fortran.h
REM seed 1630633542 -1724241048 253097971 989908303 342330848 1905480777 1354154388 -1159974125 1442365209 1538135479 -333350502 1492316203 1289224857 -105898184 1942420199 236067437 -1419710215 -486293439 -1595153873 162440036 -1278316411 900064289 1919052280 -1132189111 -1264136436 -1381575446 -1829174529 -1140093770 1146459519 1549868123 -1648856065 1157674206 2019332460
REM
CELL 1.54180   50.00000   50.00000   50.00000   90.00000   90.00000   90.00000
LATT -1
SFAC C  
C      1  0.4733190000000  0.4974090000000  0.4327600000000 1.0
C      1  0.5343590000000  0.4375140000000  0.5155870000000 1.0
C      1  0.4415240000000  0.5132830000000  0.5151380000000 1.0
C      1  0.5075080000000  0.5184560000000  0.4657020000000 1.0
C      1  0.4420980000000  0.5291220000000  0.4705820000000 1.0
C      1  0.5297370000000  0.5341150000000  0.5401060000000 1.0
C      1  0.4807930000000  0.5419010000000  0.5393130000000 1.0
C      1  0.4941030000000  0.4366210000000  0.4812330000000 1.0
C      1  0.5570170000000  0.5036230000000  0.4938830000000 1.0
C      1  0.5456010000000  0.4826560000000  0.5418390000000 1.0
C      1  0.4476760000000  0.4876970000000  0.5237340000000 1.0
C      1  0.5700250000000  0.5324550000000  0.4949830000000 1.0
C      1  0.5416780000000  0.5370040000000  0.5090170000000 1.0
C      1  0.5189510000000  0.5104250000000  0.4356250000000 1.0
C      1  0.4963780000000  0.5481880000000  0.4535290000000 1.0
C      1  0.5096940000000  0.5656040000000  0.5096260000000 1.0
C      1  0.5485960000000  0.4745300000000  0.4822340000000 1.0
C      1  0.5578070000000  0.4536960000000  0.5012730000000 1.0
C      1  0.4894800000000  0.4664980000000  0.5072100000000 1.0
C      1  0.4820130000000  0.4625420000000  0.5401790000000 1.0
C      1  0.5221270000000  0.4821310000000  0.5583090000000 1.0
C      1  0.4425250000000  0.4471840000000  0.4932150000000 1.0
C      1  0.4667520000000  0.5004960000000  0.5648360000000 1.0
C      1  0.4605840000000  0.4797400000000  0.5468100000000 1.0
C      1  0.5393080000000  0.4601440000000  0.4568770000000 1.0
C      1  0.5472960000000  0.5082140000000  0.5262250000000 1.0
C      1  0.4256710000000  0.5118330000000  0.4894000000000 1.0
C      1  0.5125160000000  0.4847740000000  0.4280280000000 1.0
C      1  0.4925290000000  0.4677260000000  0.4715520000000 1.0
C      1  0.5056420000000  0.5545620000000  0.5347270000000 1.0
C      1  0.4654390000000  0.5346210000000  0.5125200000000 1.0
C      1  0.4775190000000  0.5607300000000  0.4698080000000 1.0
C      1  0.4810320000000  0.4971090000000  0.4628990000000 1.0
C      1  0.5051470000000  0.4949930000000  0.5126390000000 1.0
C      1  0.4934160000000  0.5226380000000  0.5028310000000 1.0
C      1  0.5539330000000  0.4580620000000  0.5321640000000 1.0
C      1  0.5034510000000  0.4609400000000  0.5586650000000 1.0
C      1  0.5165570000000  0.5409320000000  0.4895720000000 1.0
C      1  0.5246080000000  0.4986750000000  0.4874660000000 1.0
C      1  0.4853050000000  0.5188800000000  0.5550560000000 1.0
C      1  0.4580110000000  0.5476440000000  0.4845970000000 1.0
C      1  0.5141060000000  0.4657140000000  0.4484800000000 1.0
C      1  0.5109000000000  0.5062680000000  0.5426900000000 1.0
C      1  0.4566270000000  0.4704350000000  0.4993570000000 1.0
C      1  0.4536470000000  0.4953440000000  0.4793190000000 1.0
C      1  0.5085970000000  0.5586350000000  0.4313820000000 1.0
C      1  0.5083960000000  0.4382370000000  0.5070240000000 1.0
END
