TITL C-2848509-3138-103 -0.00425403317113497 125000 -596.559222775865 0 0 110 (C1) n - 1
REM
REM in /home/bkarasulu/work/CARBON/AIRSS/Generating-Clusters/AIREBO/with-SteepDescent/Only-C1/SD-CG-opt/Try1-1.4A-POS3A/HFTN-CG
REM
REM
REM
REM
REM
REM ./C.cell (11c1c37f851c82e70ff6c80c92926a4b)
REM
REM compiler GCC version 9.2.1 20190827 (Red Hat 9.2.1-1)
REM options -cpp -mtune=generic -march=x86-64 -g -O0 -fpre-include=/usr/include/finclude/math-vector-fortran.h
REM seed 11042864 1919348683 -2081554680 1411945034 -26038710 316537010 -1540345355 1081874450 1995601836 -1105943392 -253387427 1717926891 -773576989 -2084293200 1796532907 2119129736 1811231343 -2109454307 324629735 415944587 830791085 1165645339 890013832 -1147240422 -2068689007 -2147144945 1814857932 1103327990 455009411 352471669 -1738263817 -1785173725 -508096264
REM
CELL 1.54180   50.00000   50.00000   50.00000   90.00000   90.00000   90.00000
LATT -1
SFAC C  
C      1  0.5582000000000  0.4609850000000  0.4978250000000 1.0
C      1  0.5148000000000  0.5364980000000  0.5729840000000 1.0
C      1  0.5175320000000  0.5488840000000  0.4370330000000 1.0
C      1  0.4852090000000  0.5273830000000  0.5820570000000 1.0
C      1  0.4717190000000  0.5697740000000  0.5127890000000 1.0
C      1  0.4591150000000  0.5155250000000  0.4054280000000 1.0
C      1  0.4609200000000  0.4998820000000  0.5532100000000 1.0
C      1  0.4544090000000  0.5076400000000  0.5013550000000 1.0
C      1  0.5603190000000  0.4620620000000  0.4488490000000 1.0
C      1  0.4319810000000  0.4659260000000  0.4651570000000 1.0
C      1  0.4800370000000  0.5825900000000  0.4589410000000 1.0
C      1  0.4713840000000  0.4978050000000  0.5915480000000 1.0
C      1  0.4730290000000  0.5021330000000  0.4240330000000 1.0
C      1  0.4402020000000  0.4851590000000  0.5225880000000 1.0
C      1  0.4296750000000  0.4921810000000  0.4432420000000 1.0
C      1  0.5016290000000  0.5815740000000  0.5365190000000 1.0
C      1  0.5900600000000  0.5321270000000  0.4763610000000 1.0
C      1  0.4226190000000  0.5206440000000  0.4357140000000 1.0
C      1  0.5664770000000  0.5531800000000  0.5033910000000 1.0
C      1  0.5265770000000  0.5413230000000  0.4689360000000 1.0
C      1  0.4808170000000  0.4601630000000  0.4866410000000 1.0
C      1  0.5171100000000  0.4652440000000  0.5503510000000 1.0
C      1  0.5426090000000  0.4810430000000  0.4382900000000 1.0
C      1  0.4640130000000  0.5464120000000  0.5715210000000 1.0
C      1  0.4909930000000  0.5055300000000  0.5278590000000 1.0
C      1  0.5016200000000  0.4270820000000  0.4180450000000 1.0
C      1  0.5653000000000  0.5158630000000  0.5701190000000 1.0
C      1  0.5505750000000  0.5690330000000  0.4469840000000 1.0
C      1  0.5673410000000  0.5446100000000  0.5367770000000 1.0
C      1  0.6000140000000  0.4855550000000  0.4910780000000 1.0
C      1  0.5124540000000  0.4266060000000  0.4446360000000 1.0
C      1  0.4723060000000  0.4879470000000  0.4813170000000 1.0
C      1  0.5357160000000  0.5187590000000  0.5759200000000 1.0
C      1  0.4960120000000  0.5873580000000  0.5056510000000 1.0
C      1  0.5023440000000  0.5860640000000  0.4774650000000 1.0
C      1  0.5492740000000  0.4402490000000  0.5307930000000 1.0
C      1  0.4725970000000  0.4358050000000  0.4072230000000 1.0
C      1  0.4646090000000  0.5269580000000  0.4769990000000 1.0
C      1  0.4580070000000  0.5673500000000  0.4479840000000 1.0
C      1  0.6232120000000  0.4661120000000  0.4930280000000 1.0
C      1  0.4648300000000  0.4490390000000  0.5542730000000 1.0
C      1  0.5011880000000  0.3964690000000  0.4892480000000 1.0
C      1  0.5251450000000  0.4758580000000  0.5933030000000 1.0
C      1  0.5124890000000  0.5462180000000  0.5213930000000 1.0
C      1  0.3961510000000  0.5028520000000  0.5252010000000 1.0
C      1  0.4482350000000  0.5603290000000  0.4215650000000 1.0
C      1  0.4095690000000  0.4664180000000  0.4907640000000 1.0
C      1  0.5103830000000  0.4486660000000  0.4955490000000 1.0
C      1  0.5308080000000  0.5749030000000  0.4722720000000 1.0
C      1  0.5491180000000  0.5854260000000  0.4924990000000 1.0
C      1  0.5159970000000  0.4521950000000  0.4653010000000 1.0
C      1  0.5866810000000  0.4930700000000  0.5185990000000 1.0
C      1  0.5406170000000  0.5367840000000  0.5168680000000 1.0
C      1  0.5695960000000  0.4321800000000  0.5071410000000 1.0
C      1  0.5236620000000  0.4131360000000  0.5728360000000 1.0
C      1  0.4480350000000  0.4391230000000  0.4794290000000 1.0
C      1  0.5687150000000  0.5497510000000  0.4393950000000 1.0
C      1  0.5716600000000  0.4657610000000  0.5287020000000 1.0
C      1  0.4130170000000  0.5207270000000  0.5483800000000 1.0
C      1  0.4873550000000  0.4491830000000  0.5712360000000 1.0
C      1  0.5601010000000  0.4615790000000  0.5581040000000 1.0
C      1  0.4961170000000  0.4105980000000  0.4645370000000 1.0
C      1  0.5023520000000  0.5372550000000  0.4924570000000 1.0
C      1  0.5781060000000  0.5231070000000  0.5141930000000 1.0
C      1  0.4618760000000  0.5230470000000  0.5292930000000 1.0
C      1  0.4965310000000  0.5029290000000  0.5613170000000 1.0
C      1  0.5292440000000  0.4715100000000  0.5122380000000 1.0
C      1  0.4394320000000  0.5331220000000  0.4156160000000 1.0
C      1  0.5743020000000  0.4749160000000  0.4747590000000 1.0
C      1  0.5127840000000  0.4341280000000  0.5588020000000 1.0
C      1  0.4767510000000  0.4278400000000  0.4865530000000 1.0
C      1  0.4446550000000  0.5491600000000  0.4662940000000 1.0
C      1  0.4827900000000  0.5158060000000  0.4528580000000 1.0
C      1  0.5662290000000  0.5041680000000  0.4606370000000 1.0
C      1  0.5713050000000  0.5023990000000  0.5474690000000 1.0
C      1  0.5424720000000  0.5080810000000  0.5030710000000 1.0
C      1  0.5435520000000  0.4382370000000  0.4526020000000 1.0
C      1  0.4332150000000  0.5412810000000  0.5310950000000 1.0
C      1  0.4990100000000  0.4744630000000  0.5275430000000 1.0
C      1  0.5324140000000  0.5227370000000  0.4312650000000 1.0
C      1  0.4493930000000  0.4454170000000  0.4172750000000 1.0
C      1  0.5118660000000  0.5133730000000  0.4545400000000 1.0
C      1  0.4109020000000  0.4834920000000  0.5122950000000 1.0
C      1  0.5181930000000  0.4825620000000  0.4588080000000 1.0
C      1  0.5564340000000  0.5297040000000  0.4808550000000 1.0
C      1  0.4775970000000  0.5553520000000  0.4876520000000 1.0
C      1  0.4939480000000  0.4219450000000  0.3872470000000 1.0
C      1  0.4604900000000  0.4910470000000  0.4527080000000 1.0
C      1  0.4948400000000  0.4764150000000  0.5825820000000 1.0
C      1  0.4211170000000  0.4381840000000  0.4913840000000 1.0
C      1  0.5142240000000  0.5559100000000  0.5531640000000 1.0
C      1  0.4483810000000  0.5860970000000  0.5423120000000 1.0
C      1  0.5194640000000  0.4936040000000  0.4883160000000 1.0
C      1  0.4198610000000  0.5383590000000  0.4577580000000 1.0
C      1  0.5185430000000  0.4343360000000  0.5252930000000 1.0
C      1  0.5595990000000  0.5227520000000  0.4383240000000 1.0
C      1  0.4227720000000  0.4898870000000  0.5518670000000 1.0
C      1  0.4968740000000  0.4147980000000  0.5114250000000 1.0
C      1  0.4940570000000  0.5080150000000  0.4962830000000 1.0
C      1  0.5383090000000  0.4870030000000  0.5639960000000 1.0
C      1  0.4413530000000  0.5346980000000  0.5615490000000 1.0
C      1  0.4806840000000  0.5478620000000  0.5334040000000 1.0
C      1  0.4741930000000  0.5725460000000  0.5544950000000 1.0
C      1  0.4675940000000  0.4730190000000  0.5364770000000 1.0
C      1  0.4336590000000  0.5718020000000  0.5271530000000 1.0
C      1  0.6068210000000  0.5135330000000  0.4786650000000 1.0
C      1  0.5446670000000  0.4950130000000  0.5315610000000 1.0
C      1  0.4468470000000  0.4289110000000  0.5506980000000 1.0
C      1  0.4430540000000  0.4921370000000  0.5781610000000 1.0
C      1  0.4349540000000  0.4607580000000  0.4324530000000 1.0
END
