TITL C-2847947-6848-556 -0.00129458567089598 125000 -1068.65347793653 0 0 200 (C1) n - 1
REM
REM in /home/bkarasulu/work/CARBON/AIRSS/Generating-Clusters/AIREBO/with-SteepDescent/Only-C1/SD-CG-opt/Try1-1.4A-POS3A/HFTN-CG
REM
REM
REM
REM
REM
REM ./C.cell (11c1c37f851c82e70ff6c80c92926a4b)
REM
REM compiler GCC version 9.2.1 20190827 (Red Hat 9.2.1-1)
REM options -cpp -mtune=generic -march=x86-64 -g -O0 -fpre-include=/usr/include/finclude/math-vector-fortran.h
REM seed 130732063 -922776599 -941334768 1141114792 1841284458 -1935545160 125274567 -74802324 -402954817 -343845882 -407217240 1164104071 1006629246 1700820017 -1164999421 1563224316 1030807838 665884888 -803882603 -1296008421 1370441519 735985899 -931690238 22128130 -939935704 1289896020 419474986 -111006380 -569629855 -1989604666 78892320 1669299421 -1124365261
REM
CELL 1.54180   50.00000   50.00000   50.00000   90.00000   90.00000   90.00000
LATT -1
SFAC C  
C      1  0.5514520000000  0.5673470000000  0.5777400000000 1.0
C      1  0.5123460000000  0.3981610000000  0.5473130000000 1.0
C      1  0.4089500000000  0.4554590000000  0.5498970000000 1.0
C      1  0.5574870000000  0.5078340000000  0.4879650000000 1.0
C      1  0.4692320000000  0.6031500000000  0.4517120000000 1.0
C      1  0.4751330000000  0.4329170000000  0.5385130000000 1.0
C      1  0.4019650000000  0.5217800000000  0.5021060000000 1.0
C      1  0.5882730000000  0.4608700000000  0.4562500000000 1.0
C      1  0.4795170000000  0.4370810000000  0.5774500000000 1.0
C      1  0.4774580000000  0.3834460000000  0.4977290000000 1.0
C      1  0.5212120000000  0.4681060000000  0.4282710000000 1.0
C      1  0.5172200000000  0.4793940000000  0.5349900000000 1.0
C      1  0.5081950000000  0.4540110000000  0.4695300000000 1.0
C      1  0.5190780000000  0.5625480000000  0.4360590000000 1.0
C      1  0.4626450000000  0.4862430000000  0.5704310000000 1.0
C      1  0.4899210000000  0.5648610000000  0.4534270000000 1.0
C      1  0.4499290000000  0.5167580000000  0.5237790000000 1.0
C      1  0.5584360000000  0.4201110000000  0.5227440000000 1.0
C      1  0.4171460000000  0.4561980000000  0.4972350000000 1.0
C      1  0.5194500000000  0.4502450000000  0.5221730000000 1.0
C      1  0.4674040000000  0.4142640000000  0.4632310000000 1.0
C      1  0.4188310000000  0.4243800000000  0.4465720000000 1.0
C      1  0.5148290000000  0.4679340000000  0.5732370000000 1.0
C      1  0.4998110000000  0.4687800000000  0.6101840000000 1.0
C      1  0.5861410000000  0.4285810000000  0.5501320000000 1.0
C      1  0.5496880000000  0.4033870000000  0.4944430000000 1.0
C      1  0.4350620000000  0.5683960000000  0.5340690000000 1.0
C      1  0.4248630000000  0.5661100000000  0.5664290000000 1.0
C      1  0.5106630000000  0.4050490000000  0.5205530000000 1.0
C      1  0.5649200000000  0.4532390000000  0.5183910000000 1.0
C      1  0.5943670000000  0.5480670000000  0.4436970000000 1.0
C      1  0.5161860000000  0.3944110000000  0.4334130000000 1.0
C      1  0.4893680000000  0.4490580000000  0.3939160000000 1.0
C      1  0.4899730000000  0.4811810000000  0.4251970000000 1.0
C      1  0.3839420000000  0.4971860000000  0.4708860000000 1.0
C      1  0.5233460000000  0.5790560000000  0.5771780000000 1.0
C      1  0.5966570000000  0.4943250000000  0.5069080000000 1.0
C      1  0.5096910000000  0.5607390000000  0.5023390000000 1.0
C      1  0.5066450000000  0.4891980000000  0.5068690000000 1.0
C      1  0.5134500000000  0.5376060000000  0.5879020000000 1.0
C      1  0.4452430000000  0.4678580000000  0.5395800000000 1.0
C      1  0.4557880000000  0.4042680000000  0.5336540000000 1.0
C      1  0.5166450000000  0.4432340000000  0.6056750000000 1.0
C      1  0.3922540000000  0.5361120000000  0.5279870000000 1.0
C      1  0.6105920000000  0.4597010000000  0.4784830000000 1.0
C      1  0.4899520000000  0.4613390000000  0.4967940000000 1.0
C      1  0.4072520000000  0.4727580000000  0.5242360000000 1.0
C      1  0.4379150000000  0.5692120000000  0.5972720000000 1.0
C      1  0.5168750000000  0.5111850000000  0.4389770000000 1.0
C      1  0.5651300000000  0.5376030000000  0.5226630000000 1.0
C      1  0.4844390000000  0.5156220000000  0.4437190000000 1.0
C      1  0.5223240000000  0.5927260000000  0.5002650000000 1.0
C      1  0.5803300000000  0.4854730000000  0.4784090000000 1.0
C      1  0.5419250000000  0.4534960000000  0.5653110000000 1.0
C      1  0.3977420000000  0.5145730000000  0.4470740000000 1.0
C      1  0.5918140000000  0.4420650000000  0.5008260000000 1.0
C      1  0.4748570000000  0.5208390000000  0.5547430000000 1.0
C      1  0.5071810000000  0.4868770000000  0.4607970000000 1.0
C      1  0.5891450000000  0.5335750000000  0.4727140000000 1.0
C      1  0.4947580000000  0.3987090000000  0.4577380000000 1.0
C      1  0.4847720000000  0.5893710000000  0.4754930000000 1.0
C      1  0.5611620000000  0.5711800000000  0.4653130000000 1.0
C      1  0.5161700000000  0.5807620000000  0.5481180000000 1.0
C      1  0.4821980000000  0.5116580000000  0.5142890000000 1.0
C      1  0.5555440000000  0.5387600000000  0.4739500000000 1.0
C      1  0.4362590000000  0.4871410000000  0.5138240000000 1.0
C      1  0.5626780000000  0.5248340000000  0.4095980000000 1.0
C      1  0.5772760000000  0.5184280000000  0.5782170000000 1.0
C      1  0.4686650000000  0.4992880000000  0.4856410000000 1.0
C      1  0.4835620000000  0.5709260000000  0.4200160000000 1.0
C      1  0.5301190000000  0.5349250000000  0.4525280000000 1.0
C      1  0.5889650000000  0.5272130000000  0.5029240000000 1.0
C      1  0.4878810000000  0.4604530000000  0.5538690000000 1.0
C      1  0.6126470000000  0.5204520000000  0.5245570000000 1.0
C      1  0.5421490000000  0.4485780000000  0.5968900000000 1.0
C      1  0.4561120000000  0.5438060000000  0.4267350000000 1.0
C      1  0.4044800000000  0.5608370000000  0.4869890000000 1.0
C      1  0.3932320000000  0.4419840000000  0.4825780000000 1.0
C      1  0.4863690000000  0.6045070000000  0.5278010000000 1.0
C      1  0.5455510000000  0.5849710000000  0.5335630000000 1.0
C      1  0.5052800000000  0.4249630000000  0.5876890000000 1.0
C      1  0.5452100000000  0.5014280000000  0.5563120000000 1.0
C      1  0.4538310000000  0.4209030000000  0.5621360000000 1.0
C      1  0.4459340000000  0.5231810000000  0.4510230000000 1.0
C      1  0.5858670000000  0.5642700000000  0.5209870000000 1.0
C      1  0.4348420000000  0.4756280000000  0.4073670000000 1.0
C      1  0.4682580000000  0.4583100000000  0.4264480000000 1.0
C      1  0.4323120000000  0.5262180000000  0.4974930000000 1.0
C      1  0.5870420000000  0.5416800000000  0.5607880000000 1.0
C      1  0.4667530000000  0.4716950000000  0.5142870000000 1.0
C      1  0.5557980000000  0.4148900000000  0.5570610000000 1.0
C      1  0.4768950000000  0.5648890000000  0.5899580000000 1.0
C      1  0.4714220000000  0.4864950000000  0.6017950000000 1.0
C      1  0.5530750000000  0.5626920000000  0.4353390000000 1.0
C      1  0.6032250000000  0.5029190000000  0.5940720000000 1.0
C      1  0.5404930000000  0.5372090000000  0.5726800000000 1.0
C      1  0.5635310000000  0.4911060000000  0.4493910000000 1.0
C      1  0.4356250000000  0.4379710000000  0.5398450000000 1.0
C      1  0.5203290000000  0.6080340000000  0.5305730000000 1.0
C      1  0.5364950000000  0.4360750000000  0.5406090000000 1.0
C      1  0.4546570000000  0.4500570000000  0.3968400000000 1.0
C      1  0.4518470000000  0.4597000000000  0.4545130000000 1.0
C      1  0.4441210000000  0.4391040000000  0.5071040000000 1.0
C      1  0.4301540000000  0.4758730000000  0.4385540000000 1.0
C      1  0.5335630000000  0.4780590000000  0.4893280000000 1.0
C      1  0.4151310000000  0.5372740000000  0.5706100000000 1.0
C      1  0.5357870000000  0.4171900000000  0.4394740000000 1.0
C      1  0.6008810000000  0.5702980000000  0.4622650000000 1.0
C      1  0.5723430000000  0.5457020000000  0.4252860000000 1.0
C      1  0.5013750000000  0.3832480000000  0.4826240000000 1.0
C      1  0.5369980000000  0.6121630000000  0.4783870000000 1.0
C      1  0.4208310000000  0.5800840000000  0.4718160000000 1.0
C      1  0.4394880000000  0.5053070000000  0.4750640000000 1.0
C      1  0.5674270000000  0.5670210000000  0.5494270000000 1.0
C      1  0.4327660000000  0.5971740000000  0.5161070000000 1.0
C      1  0.4634600000000  0.5977060000000  0.5521950000000 1.0
C      1  0.4092320000000  0.4937070000000  0.4219530000000 1.0
C      1  0.4439630000000  0.4154220000000  0.4402590000000 1.0
C      1  0.4655410000000  0.5121390000000  0.4186650000000 1.0
C      1  0.5529110000000  0.5782650000000  0.5036310000000 1.0
C      1  0.5910320000000  0.4897170000000  0.5673490000000 1.0
C      1  0.3920890000000  0.5317740000000  0.5553920000000 1.0
C      1  0.4221810000000  0.5233820000000  0.4264200000000 1.0
C      1  0.4451760000000  0.4380130000000  0.4731300000000 1.0
C      1  0.4753160000000  0.5380310000000  0.4612640000000 1.0
C      1  0.4361750000000  0.4061880000000  0.4867310000000 1.0
C      1  0.4405950000000  0.4993730000000  0.5514700000000 1.0
C      1  0.6032840000000  0.4651280000000  0.5230240000000 1.0
C      1  0.5598690000000  0.4088940000000  0.4620110000000 1.0
C      1  0.4931890000000  0.4311410000000  0.5121020000000 1.0
C      1  0.5385610000000  0.4783000000000  0.4556980000000 1.0
C      1  0.5243510000000  0.4116150000000  0.5697010000000 1.0
C      1  0.5377160000000  0.5288840000000  0.5397850000000 1.0
C      1  0.5463280000000  0.5982720000000  0.4572590000000 1.0
C      1  0.4314480000000  0.5369680000000  0.3967410000000 1.0
C      1  0.6100930000000  0.5355790000000  0.5468860000000 1.0
C      1  0.4665100000000  0.5671430000000  0.5642410000000 1.0
C      1  0.4776840000000  0.4906160000000  0.3785620000000 1.0
C      1  0.4431260000000  0.5489300000000  0.4809630000000 1.0
C      1  0.4587920000000  0.4929460000000  0.3995210000000 1.0
C      1  0.5245390000000  0.4898580000000  0.5974040000000 1.0
C      1  0.4972380000000  0.5624170000000  0.5324660000000 1.0
C      1  0.5835690000000  0.5764770000000  0.4903400000000 1.0
C      1  0.4524260000000  0.4576280000000  0.5775530000000 1.0
C      1  0.5061750000000  0.5312630000000  0.5290940000000 1.0
C      1  0.5120790000000  0.4986520000000  0.5606620000000 1.0
C      1  0.5241090000000  0.5181610000000  0.5033480000000 1.0
C      1  0.4404050000000  0.5945860000000  0.5756810000000 1.0
C      1  0.4986340000000  0.5024890000000  0.6138080000000 1.0
C      1  0.4923040000000  0.5326820000000  0.3940700000000 1.0
C      1  0.5791180000000  0.4955040000000  0.5360140000000 1.0
C      1  0.4563640000000  0.4218310000000  0.4159430000000 1.0
C      1  0.5330400000000  0.4460790000000  0.4916520000000 1.0
C      1  0.4354890000000  0.5181420000000  0.5753270000000 1.0
C      1  0.5124610000000  0.4682210000000  0.3954050000000 1.0
C      1  0.4124120000000  0.4548000000000  0.4575970000000 1.0
C      1  0.5581650000000  0.4740270000000  0.5516770000000 1.0
C      1  0.5046250000000  0.5633860000000  0.5914830000000 1.0
C      1  0.5584230000000  0.4835670000000  0.5118160000000 1.0
C      1  0.5471260000000  0.5088570000000  0.5890620000000 1.0
C      1  0.4670540000000  0.5765740000000  0.5257780000000 1.0
C      1  0.5696350000000  0.4365740000000  0.4461620000000 1.0
C      1  0.4782190000000  0.4901810000000  0.5404270000000 1.0
C      1  0.5051060000000  0.5162720000000  0.4777650000000 1.0
C      1  0.4625110000000  0.5419240000000  0.3933890000000 1.0
C      1  0.4920590000000  0.5149220000000  0.5828440000000 1.0
C      1  0.4607690000000  0.5841130000000  0.4341140000000 1.0
C      1  0.5024540000000  0.5004420000000  0.3996910000000 1.0
C      1  0.5641810000000  0.4933340000000  0.4173230000000 1.0
C      1  0.4742490000000  0.4852700000000  0.4551710000000 1.0
C      1  0.4670700000000  0.4158180000000  0.4972010000000 1.0
C      1  0.5632740000000  0.4323530000000  0.4850630000000 1.0
C      1  0.4254040000000  0.4549020000000  0.5745380000000 1.0
C      1  0.3955720000000  0.5353690000000  0.4731420000000 1.0
C      1  0.5982490000000  0.4196610000000  0.5255840000000 1.0
C      1  0.6198530000000  0.4895940000000  0.4825000000000 1.0
C      1  0.5222580000000  0.3928680000000  0.4981800000000 1.0
C      1  0.6087020000000  0.5089970000000  0.4630180000000 1.0
C      1  0.4664880000000  0.5671350000000  0.4931440000000 1.0
C      1  0.4398410000000  0.5625560000000  0.4499770000000 1.0
C      1  0.5053850000000  0.4296820000000  0.4481890000000 1.0
C      1  0.5442800000000  0.4472310000000  0.4270310000000 1.0
C      1  0.5893320000000  0.4600670000000  0.5507970000000 1.0
C      1  0.4411050000000  0.5896430000000  0.4906600000000 1.0
C      1  0.4204600000000  0.4819030000000  0.4765720000000 1.0
C      1  0.5748320000000  0.4622100000000  0.4244400000000 1.0
C      1  0.4554130000000  0.5432010000000  0.5444450000000 1.0
C      1  0.5057720000000  0.5562630000000  0.4054050000000 1.0
C      1  0.4852080000000  0.5387170000000  0.4938040000000 1.0
C      1  0.3971120000000  0.4907890000000  0.4985670000000 1.0
C      1  0.4075090000000  0.5587320000000  0.5163330000000 1.0
C      1  0.5292000000000  0.5947060000000  0.4361750000000 1.0
C      1  0.4875520000000  0.4320350000000  0.4227750000000 1.0
C      1  0.5335500000000  0.5070960000000  0.4117890000000 1.0
C      1  0.4580850000000  0.5483340000000  0.6059270000000 1.0
C      1  0.4605510000000  0.5186750000000  0.5951040000000 1.0
C      1  0.5953930000000  0.4973840000000  0.4419270000000 1.0
C      1  0.5403130000000  0.5466860000000  0.5033020000000 1.0
C      1  0.4367550000000  0.3975370000000  0.5155760000000 1.0
C      1  0.4935100000000  0.6099190000000  0.4968910000000 1.0
END
