TITL C-2847951-7423-5 0.00246306408525689 125000 -686.178956295946 0 0 125 (C1) n - 1
REM
REM in /home/bkarasulu/work/CARBON/AIRSS/Generating-Clusters/AIREBO/with-SteepDescent/Only-C1/SD-CG-opt/Try1-1.4A-POS3A/HFTN-CG
REM
REM
REM
REM
REM
REM ./C.cell (11c1c37f851c82e70ff6c80c92926a4b)
REM
REM compiler GCC version 9.2.1 20190827 (Red Hat 9.2.1-1)
REM options -cpp -mtune=generic -march=x86-64 -g -O0 -fpre-include=/usr/include/finclude/math-vector-fortran.h
REM seed -640512911 361567141 -800357104 -1200527733 296549791 -984290012 -335212863 1061757645 796988049 566623144 889696230 -1559976946 -715563649 -2145168235 -703962543 -10425387 1035862710 -155625292 1531492335 1038107751 -715767250 -224003274 102568456 -947448876 2039573580 -800877163 563569587 -105067134 -681100341 1339614142 1647133334 1984228316 1241862403
REM
CELL 1.54180   50.00000   50.00000   50.00000   90.00000   90.00000   90.00000
LATT -1
SFAC C  
C      1  0.5409180000000  0.5652150000000  0.5510140000000 1.0
C      1  0.5324000000000  0.4942370000000  0.4905350000000 1.0
C      1  0.5317370000000  0.4234850000000  0.4761330000000 1.0
C      1  0.4615460000000  0.5626170000000  0.5058840000000 1.0
C      1  0.5688050000000  0.5256840000000  0.5278050000000 1.0
C      1  0.4681320000000  0.5872420000000  0.4599660000000 1.0
C      1  0.6119610000000  0.4523270000000  0.5209900000000 1.0
C      1  0.5349530000000  0.4685720000000  0.4601350000000 1.0
C      1  0.5603710000000  0.5641900000000  0.4382440000000 1.0
C      1  0.4863950000000  0.5616640000000  0.4464760000000 1.0
C      1  0.6073530000000  0.4837110000000  0.4609560000000 1.0
C      1  0.4981740000000  0.4228260000000  0.5503000000000 1.0
C      1  0.5633630000000  0.5038280000000  0.5607780000000 1.0
C      1  0.4970200000000  0.4452680000000  0.4528430000000 1.0
C      1  0.5187850000000  0.5424250000000  0.5403480000000 1.0
C      1  0.4406750000000  0.5785660000000  0.4690620000000 1.0
C      1  0.4840840000000  0.5997900000000  0.4150690000000 1.0
C      1  0.4566440000000  0.4687760000000  0.4828470000000 1.0
C      1  0.5859550000000  0.4982560000000  0.4723670000000 1.0
C      1  0.4155480000000  0.5772010000000  0.4871790000000 1.0
C      1  0.4157390000000  0.4926080000000  0.5373450000000 1.0
C      1  0.5668060000000  0.5225860000000  0.4288270000000 1.0
C      1  0.4924760000000  0.5826860000000  0.5340200000000 1.0
C      1  0.4752970000000  0.4705830000000  0.5734420000000 1.0
C      1  0.5060730000000  0.5384880000000  0.4620880000000 1.0
C      1  0.5465180000000  0.4369710000000  0.5407690000000 1.0
C      1  0.4269890000000  0.4157940000000  0.5112300000000 1.0
C      1  0.4239560000000  0.4518490000000  0.5690760000000 1.0
C      1  0.4207860000000  0.5182920000000  0.5811360000000 1.0
C      1  0.4387400000000  0.4310580000000  0.4910460000000 1.0
C      1  0.5810850000000  0.5269210000000  0.4565260000000 1.0
C      1  0.4927000000000  0.3948650000000  0.5613640000000 1.0
C      1  0.5424720000000  0.4531640000000  0.4114610000000 1.0
C      1  0.4087360000000  0.4998850000000  0.5685410000000 1.0
C      1  0.5385600000000  0.4235140000000  0.4490450000000 1.0
C      1  0.4915560000000  0.5743440000000  0.5609940000000 1.0
C      1  0.3843920000000  0.5179400000000  0.4717210000000 1.0
C      1  0.4803930000000  0.5286980000000  0.5227630000000 1.0
C      1  0.5494100000000  0.4162540000000  0.5184550000000 1.0
C      1  0.4409470000000  0.5128750000000  0.4322460000000 1.0
C      1  0.4710500000000  0.4752510000000  0.4550300000000 1.0
C      1  0.5135010000000  0.5876000000000  0.4790350000000 1.0
C      1  0.4518890000000  0.4233710000000  0.4445630000000 1.0
C      1  0.5944930000000  0.5072660000000  0.5553420000000 1.0
C      1  0.4870410000000  0.5955640000000  0.4841070000000 1.0
C      1  0.4150480000000  0.5475770000000  0.5038600000000 1.0
C      1  0.5558680000000  0.4732990000000  0.5737800000000 1.0
C      1  0.5499330000000  0.5335310000000  0.5517140000000 1.0
C      1  0.5178750000000  0.4458880000000  0.4011700000000 1.0
C      1  0.4920140000000  0.4756060000000  0.5237510000000 1.0
C      1  0.5509630000000  0.4856260000000  0.5367670000000 1.0
C      1  0.4843890000000  0.5452460000000  0.4866960000000 1.0
C      1  0.4685980000000  0.5526400000000  0.5620700000000 1.0
C      1  0.5205730000000  0.4619890000000  0.4902460000000 1.0
C      1  0.4418690000000  0.5476290000000  0.4828680000000 1.0
C      1  0.4775040000000  0.5879670000000  0.5086680000000 1.0
C      1  0.4382800000000  0.5370870000000  0.5648760000000 1.0
C      1  0.4951430000000  0.5337250000000  0.5607530000000 1.0
C      1  0.5439830000000  0.4493430000000  0.4391240000000 1.0
C      1  0.4226340000000  0.5327880000000  0.4370820000000 1.0
C      1  0.5118510000000  0.5377090000000  0.5894630000000 1.0
C      1  0.4742110000000  0.4885040000000  0.5481360000000 1.0
C      1  0.4103690000000  0.5169220000000  0.5182430000000 1.0
C      1  0.5001610000000  0.5749040000000  0.4189590000000 1.0
C      1  0.5460240000000  0.5306230000000  0.4751470000000 1.0
C      1  0.4502060000000  0.4994230000000  0.4585170000000 1.0
C      1  0.5746340000000  0.5558310000000  0.4634200000000 1.0
C      1  0.4739040000000  0.4410600000000  0.5523220000000 1.0
C      1  0.5489030000000  0.5773600000000  0.5231610000000 1.0
C      1  0.5214010000000  0.4766010000000  0.5408220000000 1.0
C      1  0.5692160000000  0.5356180000000  0.4970260000000 1.0
C      1  0.5229970000000  0.4361790000000  0.5616080000000 1.0
C      1  0.4168620000000  0.5358070000000  0.4635510000000 1.0
C      1  0.4264100000000  0.4833360000000  0.4772830000000 1.0
C      1  0.5013850000000  0.4803240000000  0.5864910000000 1.0
C      1  0.5932850000000  0.5148060000000  0.4986560000000 1.0
C      1  0.5158440000000  0.5655470000000  0.5728330000000 1.0
C      1  0.5151810000000  0.5106190000000  0.5148590000000 1.0
C      1  0.4459670000000  0.4947800000000  0.5305610000000 1.0
C      1  0.5531080000000  0.4297850000000  0.4940370000000 1.0
C      1  0.5217570000000  0.4490760000000  0.5208440000000 1.0
C      1  0.6015370000000  0.5166850000000  0.5288410000000 1.0
C      1  0.5444140000000  0.5149190000000  0.4462910000000 1.0
C      1  0.5561580000000  0.5010710000000  0.5120370000000 1.0
C      1  0.5626700000000  0.5480510000000  0.4139380000000 1.0
C      1  0.5171620000000  0.5063390000000  0.4625740000000 1.0
C      1  0.4523110000000  0.5553130000000  0.5325650000000 1.0
C      1  0.5172570000000  0.5611980000000  0.3996460000000 1.0
C      1  0.5434610000000  0.5547050000000  0.3943810000000 1.0
C      1  0.5694170000000  0.4532920000000  0.4953260000000 1.0
C      1  0.4082050000000  0.4642470000000  0.5505430000000 1.0
C      1  0.5060480000000  0.5073090000000  0.5884990000000 1.0
C      1  0.4552540000000  0.5226000000000  0.5397540000000 1.0
C      1  0.4216760000000  0.5438360000000  0.5356890000000 1.0
C      1  0.5027620000000  0.4216060000000  0.5166300000000 1.0
C      1  0.4879990000000  0.3715530000000  0.5706130000000 1.0
C      1  0.4681000000000  0.4506430000000  0.4357810000000 1.0
C      1  0.5027640000000  0.4788030000000  0.4561760000000 1.0
C      1  0.4608800000000  0.5213610000000  0.4809200000000 1.0
C      1  0.5031410000000  0.5062870000000  0.5463720000000 1.0
C      1  0.5848980000000  0.4557560000000  0.5192190000000 1.0
C      1  0.5267510000000  0.3998470000000  0.5177140000000 1.0
C      1  0.4859410000000  0.5015330000000  0.5070700000000 1.0
C      1  0.5269500000000  0.5675500000000  0.4991080000000 1.0
C      1  0.5294110000000  0.5336470000000  0.5001170000000 1.0
C      1  0.4746740000000  0.4513280000000  0.5241660000000 1.0
C      1  0.4564840000000  0.4949850000000  0.5004910000000 1.0
C      1  0.5674000000000  0.4590540000000  0.5445430000000 1.0
C      1  0.4686030000000  0.6063390000000  0.4346040000000 1.0
C      1  0.5237710000000  0.4657710000000  0.5721580000000 1.0
C      1  0.4916840000000  0.3825180000000  0.4816790000000 1.0
C      1  0.4815600000000  0.4076180000000  0.4781670000000 1.0
C      1  0.4097200000000  0.5080350000000  0.4863510000000 1.0
C      1  0.5008840000000  0.4347630000000  0.4849640000000 1.0
C      1  0.5606060000000  0.4792220000000  0.4788790000000 1.0
C      1  0.4996770000000  0.5553600000000  0.5153660000000 1.0
C      1  0.4558740000000  0.4155280000000  0.4699920000000 1.0
C      1  0.4202190000000  0.4533320000000  0.4781430000000 1.0
C      1  0.4502010000000  0.4502780000000  0.5717050000000 1.0
C      1  0.5001130000000  0.4370750000000  0.4199900000000 1.0
C      1  0.4698090000000  0.4433410000000  0.4958430000000 1.0
C      1  0.5153280000000  0.5760940000000  0.4527080000000 1.0
C      1  0.5357970000000  0.5531340000000  0.4542510000000 1.0
C      1  0.4473490000000  0.4330360000000  0.4151260000000 1.0
C      1  0.5603080000000  0.5659730000000  0.4926030000000 1.0
END
