TITL C-2847945-6269-1 0.00121086744620649 125000 -662.246334261004 0 0 123 (C1) n - 1
REM
REM in /home/bkarasulu/work/CARBON/AIRSS/Generating-Clusters/AIREBO/with-SteepDescent/Only-C1/SD-CG-opt/Try1-1.4A-POS3A/HFTN-CG
REM
REM
REM
REM
REM
REM ./C.cell (11c1c37f851c82e70ff6c80c92926a4b)
REM
REM compiler GCC version 9.2.1 20190827 (Red Hat 9.2.1-1)
REM options -cpp -mtune=generic -march=x86-64 -g -O0 -fpre-include=/usr/include/finclude/math-vector-fortran.h
REM seed -136148418 -801349916 -1325344348 -594752976 -817698662 -2026367522 422059562 2130600852 -150185642 -1349517129 1004878419 -564552165 -1094764281 -1014445129 1020777564 1645982862 1309509345 -1833084603 -1324418345 -826988877 853336580 -796773397 -1946812627 -1924209768 693700325 1245214694 1670081340 -515783515 827973127 1885445233 -1352988218 -91125680 -1827369633
REM
CELL 1.54180   50.00000   50.00000   50.00000   90.00000   90.00000   90.00000
LATT -1
SFAC C  
C      1  0.4906260000000  0.4338340000000  0.4774140000000 1.0
C      1  0.5150350000000  0.5657780000000  0.4445280000000 1.0
C      1  0.4774130000000  0.5827250000000  0.4588860000000 1.0
C      1  0.4554580000000  0.5851720000000  0.5330350000000 1.0
C      1  0.5162780000000  0.4811230000000  0.4656500000000 1.0
C      1  0.5216390000000  0.4653050000000  0.4386550000000 1.0
C      1  0.5132560000000  0.4922510000000  0.4971560000000 1.0
C      1  0.5636890000000  0.4362420000000  0.4885990000000 1.0
C      1  0.5095050000000  0.4275510000000  0.4337350000000 1.0
C      1  0.4450190000000  0.4858100000000  0.5402600000000 1.0
C      1  0.4848180000000  0.4805900000000  0.4616720000000 1.0
C      1  0.5277880000000  0.4833170000000  0.5330290000000 1.0
C      1  0.4967830000000  0.4135750000000  0.5239530000000 1.0
C      1  0.4456550000000  0.4458090000000  0.4545800000000 1.0
C      1  0.5169310000000  0.5175370000000  0.5646040000000 1.0
C      1  0.4641970000000  0.5796950000000  0.5589750000000 1.0
C      1  0.4323270000000  0.4314550000000  0.5197880000000 1.0
C      1  0.5043040000000  0.3972320000000  0.5001760000000 1.0
C      1  0.5265720000000  0.4067420000000  0.4843360000000 1.0
C      1  0.5729370000000  0.5442580000000  0.5191430000000 1.0
C      1  0.5561750000000  0.4756170000000  0.5227080000000 1.0
C      1  0.4178820000000  0.4783150000000  0.5211510000000 1.0
C      1  0.4261230000000  0.5640930000000  0.4929760000000 1.0
C      1  0.5008070000000  0.5186060000000  0.5068220000000 1.0
C      1  0.5743940000000  0.4863330000000  0.5480120000000 1.0
C      1  0.5576710000000  0.4803730000000  0.4719150000000 1.0
C      1  0.5042100000000  0.4655430000000  0.5161670000000 1.0
C      1  0.5445450000000  0.5205670000000  0.5043440000000 1.0
C      1  0.5514460000000  0.4456460000000  0.6069150000000 1.0
C      1  0.4683550000000  0.4158770000000  0.5272740000000 1.0
C      1  0.5146060000000  0.4216930000000  0.4599990000000 1.0
C      1  0.5278760000000  0.5487490000000  0.5426920000000 1.0
C      1  0.5514870000000  0.4583110000000  0.4369590000000 1.0
C      1  0.4555690000000  0.4903880000000  0.4368790000000 1.0
C      1  0.4949120000000  0.4439570000000  0.5628020000000 1.0
C      1  0.4800940000000  0.5310720000000  0.4828620000000 1.0
C      1  0.3985780000000  0.4913370000000  0.5026060000000 1.0
C      1  0.5123800000000  0.4631110000000  0.5834110000000 1.0
C      1  0.5103510000000  0.5090080000000  0.3978560000000 1.0
C      1  0.4533210000000  0.5350200000000  0.4038620000000 1.0
C      1  0.4778500000000  0.5917460000000  0.5106590000000 1.0
C      1  0.4318800000000  0.5124540000000  0.5033190000000 1.0
C      1  0.5242590000000  0.5168780000000  0.5313940000000 1.0
C      1  0.5274840000000  0.5613110000000  0.5169760000000 1.0
C      1  0.4313240000000  0.4564280000000  0.5078800000000 1.0
C      1  0.4778100000000  0.4084900000000  0.4892290000000 1.0
C      1  0.4478280000000  0.5416550000000  0.4811340000000 1.0
C      1  0.4729490000000  0.5239280000000  0.4248090000000 1.0
C      1  0.4917970000000  0.4549500000000  0.4256340000000 1.0
C      1  0.6160230000000  0.4944020000000  0.4519280000000 1.0
C      1  0.5907630000000  0.4838840000000  0.4635670000000 1.0
C      1  0.4663640000000  0.5058360000000  0.4652460000000 1.0
C      1  0.5424640000000  0.4609090000000  0.5851210000000 1.0
C      1  0.5251090000000  0.5122070000000  0.4550490000000 1.0
C      1  0.5605490000000  0.4392720000000  0.4156800000000 1.0
C      1  0.4945690000000  0.5002620000000  0.6050960000000 1.0
C      1  0.5768250000000  0.4533790000000  0.5110420000000 1.0
C      1  0.5547170000000  0.4906960000000  0.5825420000000 1.0
C      1  0.5500290000000  0.4140910000000  0.4993290000000 1.0
C      1  0.5096720000000  0.5178820000000  0.5951450000000 1.0
C      1  0.4172790000000  0.5391750000000  0.5145580000000 1.0
C      1  0.5102070000000  0.5563290000000  0.4909070000000 1.0
C      1  0.5454630000000  0.4517290000000  0.4701660000000 1.0
C      1  0.4849550000000  0.5598650000000  0.5101390000000 1.0
C      1  0.5019920000000  0.6017990000000  0.4558090000000 1.0
C      1  0.4899790000000  0.5493570000000  0.5551880000000 1.0
C      1  0.4653280000000  0.5444090000000  0.5322950000000 1.0
C      1  0.5119050000000  0.5554900000000  0.4186320000000 1.0
C      1  0.4830930000000  0.4491880000000  0.5938440000000 1.0
C      1  0.5375410000000  0.5869210000000  0.4890530000000 1.0
C      1  0.5046960000000  0.6037450000000  0.5400450000000 1.0
C      1  0.4440130000000  0.4174190000000  0.4696130000000 1.0
C      1  0.5119130000000  0.5907090000000  0.5111370000000 1.0
C      1  0.5571860000000  0.5323560000000  0.4206060000000 1.0
C      1  0.4701490000000  0.4438120000000  0.5437830000000 1.0
C      1  0.4396000000000  0.4350610000000  0.5471280000000 1.0
C      1  0.5460330000000  0.4899110000000  0.4970780000000 1.0
C      1  0.5495710000000  0.5133000000000  0.4366920000000 1.0
C      1  0.4381770000000  0.5621780000000  0.5234750000000 1.0
C      1  0.4207060000000  0.4610280000000  0.4561310000000 1.0
C      1  0.5069630000000  0.4823880000000  0.4142400000000 1.0
C      1  0.4649430000000  0.5706090000000  0.4864720000000 1.0
C      1  0.4705370000000  0.4561350000000  0.4723540000000 1.0
C      1  0.5705440000000  0.5197980000000  0.5433460000000 1.0
C      1  0.4877700000000  0.5159630000000  0.5487720000000 1.0
C      1  0.4315880000000  0.5167530000000  0.5359660000000 1.0
C      1  0.5083990000000  0.4371790000000  0.5345020000000 1.0
C      1  0.4715770000000  0.4701670000000  0.5256250000000 1.0
C      1  0.6259680000000  0.5024580000000  0.4217980000000 1.0
C      1  0.4270090000000  0.5864810000000  0.4724630000000 1.0
C      1  0.5467140000000  0.5655920000000  0.5652030000000 1.0
C      1  0.4962870000000  0.5031650000000  0.4389460000000 1.0
C      1  0.4576460000000  0.4677310000000  0.4972870000000 1.0
C      1  0.4322340000000  0.4603180000000  0.5587820000000 1.0
C      1  0.4462490000000  0.5896260000000  0.4566640000000 1.0
C      1  0.5004490000000  0.5310310000000  0.4105810000000 1.0
C      1  0.5764260000000  0.5112580000000  0.5117100000000 1.0
C      1  0.5569150000000  0.5640380000000  0.5055930000000 1.0
C      1  0.5153030000000  0.4535050000000  0.4854700000000 1.0
C      1  0.4655780000000  0.4980940000000  0.5646850000000 1.0
C      1  0.5968560000000  0.4885770000000  0.4244520000000 1.0
C      1  0.5923600000000  0.4835390000000  0.5083480000000 1.0
C      1  0.4416940000000  0.5189890000000  0.4373470000000 1.0
C      1  0.5621290000000  0.4595220000000  0.5586390000000 1.0
C      1  0.4579570000000  0.4989040000000  0.4949240000000 1.0
C      1  0.5155690000000  0.5638760000000  0.5700370000000 1.0
C      1  0.5276650000000  0.5311610000000  0.4801920000000 1.0
C      1  0.5477370000000  0.5105650000000  0.5646540000000 1.0
C      1  0.3993250000000  0.5175220000000  0.4807890000000 1.0
C      1  0.5648130000000  0.4400700000000  0.5387920000000 1.0
C      1  0.4524910000000  0.5580850000000  0.5713340000000 1.0
C      1  0.4933500000000  0.5534570000000  0.4641980000000 1.0
C      1  0.4292830000000  0.5231320000000  0.4649230000000 1.0
C      1  0.4629690000000  0.4623760000000  0.4336380000000 1.0
C      1  0.4722680000000  0.5143080000000  0.5183220000000 1.0
C      1  0.5531120000000  0.4152810000000  0.5283710000000 1.0
C      1  0.4511330000000  0.5282900000000  0.5586710000000 1.0
C      1  0.4480150000000  0.4109600000000  0.5017230000000 1.0
C      1  0.4936240000000  0.5846280000000  0.5612610000000 1.0
C      1  0.5665740000000  0.4884510000000  0.4401050000000 1.0
C      1  0.4806140000000  0.4813150000000  0.5858050000000 1.0
C      1  0.4217000000000  0.4925430000000  0.4776970000000 1.0
C      1  0.5285980000000  0.5881010000000  0.4618760000000 1.0
END
