TITL C-2848507-1641-12 -2034.93432918838 125000 -755.898877559939 0 0 146 (C1) n - 1
REM
REM in /home/bkarasulu/work/CARBON/AIRSS/Generating-Clusters/AIREBO/with-SteepDescent/Only-C1/SD-CG-opt/Try1-1.4A-POS3A/HFTN-CG
REM
REM
REM
REM
REM
REM ./C.cell (11c1c37f851c82e70ff6c80c92926a4b)
REM
REM compiler GCC version 9.2.1 20190827 (Red Hat 9.2.1-1)
REM options -cpp -mtune=generic -march=x86-64 -g -O0 -fpre-include=/usr/include/finclude/math-vector-fortran.h
REM seed -104058320 374284930 -2009338879 134459400 190472993 -1338415463 -413963945 -1785438564 -934506437 1745120282 1493664165 -1337513322 -855749369 -1004034236 763396636 1617682602 1651910709 -255746757 -647680867 -776571132 -534231617 648182057 462847029 1048931307 1985016901 2096324369 1231430364 -156280140 964952334 -1372171031 1023372024 -88957793 1506337912
REM
CELL 1.54180   50.00000   50.00000   50.00000   90.00000   90.00000   90.00000
LATT -1
SFAC C  
C      1  0.4975320000000  0.5211360000000  0.6000400000000 1.0
C      1  0.4210970000000  0.4903280000000  0.5518180000000 1.0
C      1  0.5190320000000  0.5545870000000  0.3911440000000 1.0
C      1  0.5281920000000  0.4511770000000  0.5913220000000 1.0
C      1  0.4923030000000  0.4612610000000  0.4357670000000 1.0
C      1  0.4598540000000  0.5901930000000  0.5265870000000 1.0
C      1  0.5184980000000  0.4409950000000  0.4435140000000 1.0
C      1  0.5502400000000  0.4779560000000  0.5273220000000 1.0
C      1  0.4507880000000  0.4506410000000  0.4577450000000 1.0
C      1  0.5070880000000  0.4109360000000  0.5424070000000 1.0
C      1  0.5463740000000  0.5150940000000  0.4917270000000 1.0
C      1  0.4015570000000  0.5362750000000  0.5090170000000 1.0
C      1  0.5334920000000  0.4685050000000  0.5038820000000 1.0
C      1  0.5220150000000  0.5265730000000  0.3930170000000 1.0
C      1  0.4826800000000  0.5630010000000  0.5788550000000 1.0
C      1  0.5102600000000  0.5692910000000  0.4128880000000 1.0
C      1  0.5503680000000  0.4880310000000  0.4712910000000 1.0
C      1  0.5365600000000  0.4405180000000  0.4848130000000 1.0
C      1  0.4707520000000  0.4995410000000  0.5246120000000 1.0
C      1  0.5022180000000  0.5760400000000  0.5567970000000 1.0
C      1  0.4917550000000  0.5814460000000  0.5187080000000 1.0
C      1  0.4558850000000  0.4116260000000  0.5073720000000 1.0
C      1  0.5215030000000  0.5875150000000  0.5343540000000 1.0
C      1  0.5275050000000  0.5818500000000  0.5017170000000 1.0
C      1  0.5013240000000  0.4933470000000  0.5337980000000 1.0
C      1  0.5120450000000  0.5039530000000  0.5634810000000 1.0
C      1  0.5062840000000  0.5455860000000  0.4921170000000 1.0
C      1  0.4719460000000  0.3912860000000  0.5143090000000 1.0
C      1  0.5674520000000  0.5196030000000  0.5455870000000 1.0
C      1  0.4991260000000  0.3995350000000  0.5165940000000 1.0
C      1  0.5551110000000  0.4333570000000  0.5387810000000 1.0
C      1  0.4446300000000  0.5330380000000  0.5764180000000 1.0
C      1  0.4811360000000  0.4958460000000  0.5697290000000 1.0
C      1  0.5024950000000  0.4670940000000  0.5150120000000 1.0
C      1  0.5001930000000  0.4362570000000  0.5008730000000 1.0
C      1  0.4290160000000  0.5069350000000  0.4441920000000 1.0
C      1  0.5861710000000  0.5361480000000  0.4676080000000 1.0
C      1  0.5787700000000  0.4844290000000  0.4163790000000 1.0
C      1  0.5451520000000  0.4842480000000  0.4171350000000 1.0
C      1  0.4379180000000  0.5737230000000  0.4506840000000 1.0
C      1  0.4951200000000  0.4251510000000  0.4627440000000 1.0
C      1  0.4066550000000  0.5382670000000  0.4807170000000 1.0
C      1  0.5394350000000  0.4805880000000  0.5828490000000 1.0
C      1  0.4903890000000  0.5501890000000  0.5175770000000 1.0
C      1  0.4415100000000  0.5202620000000  0.4959490000000 1.0
C      1  0.4664710000000  0.4666990000000  0.5323240000000 1.0
C      1  0.5308570000000  0.4302110000000  0.5143660000000 1.0
C      1  0.5256830000000  0.5028190000000  0.6008730000000 1.0
C      1  0.5235180000000  0.5078110000000  0.4286710000000 1.0
C      1  0.5971340000000  0.5004890000000  0.4281340000000 1.0
C      1  0.5484430000000  0.5122900000000  0.3981760000000 1.0
C      1  0.5371330000000  0.5468290000000  0.4829640000000 1.0
C      1  0.4099970000000  0.5565960000000  0.5271990000000 1.0
C      1  0.5435120000000  0.5692400000000  0.5527480000000 1.0
C      1  0.5092710000000  0.5553310000000  0.4407330000000 1.0
C      1  0.4987870000000  0.5377770000000  0.5472530000000 1.0
C      1  0.5471990000000  0.4006710000000  0.5185120000000 1.0
C      1  0.4584270000000  0.5236470000000  0.4478230000000 1.0
C      1  0.5222330000000  0.4689430000000  0.4718010000000 1.0
C      1  0.4363310000000  0.5393600000000  0.6051490000000 1.0
C      1  0.4425610000000  0.4283910000000  0.4822810000000 1.0
C      1  0.4048690000000  0.5134550000000  0.5635400000000 1.0
C      1  0.4691910000000  0.4387390000000  0.5146330000000 1.0
C      1  0.5324800000000  0.5003360000000  0.5384280000000 1.0
C      1  0.4520400000000  0.4714180000000  0.5804590000000 1.0
C      1  0.5780710000000  0.4694890000000  0.4746150000000 1.0
C      1  0.5500060000000  0.5397660000000  0.5667120000000 1.0
C      1  0.4056900000000  0.4648810000000  0.5041310000000 1.0
C      1  0.4808550000000  0.4792890000000  0.4917920000000 1.0
C      1  0.4451460000000  0.4600820000000  0.5077190000000 1.0
C      1  0.5862540000000  0.4915860000000  0.5502040000000 1.0
C      1  0.5348100000000  0.4072590000000  0.5464880000000 1.0
C      1  0.5799070000000  0.4735310000000  0.5717690000000 1.0
C      1  0.4014440000000  0.5217530000000  0.4584330000000 1.0
C      1  0.5343380000000  0.4182080000000  0.4631720000000 1.0
C      1  0.4575340000000  0.5415560000000  0.5170980000000 1.0
C      1  0.5627860000000  0.4532920000000  0.5652720000000 1.0
C      1  0.5240040000000  0.5292170000000  0.5803230000000 1.0
C      1  0.4752850000000  0.4629650000000  0.5613030000000 1.0
C      1  0.4007780000000  0.4809790000000  0.5256670000000 1.0
C      1  0.5093750000000  0.4525460000000  0.5434590000000 1.0
C      1  0.5930050000000  0.4478780000000  0.4610230000000 1.0
C      1  0.4835610000000  0.5129170000000  0.4960670000000 1.0
C      1  0.5095650000000  0.4450550000000  0.4109540000000 1.0
C      1  0.4517560000000  0.5216620000000  0.4145320000000 1.0
C      1  0.4705540000000  0.5007380000000  0.4077920000000 1.0
C      1  0.4153120000000  0.4792400000000  0.4825480000000 1.0
C      1  0.5257700000000  0.5471990000000  0.5359420000000 1.0
C      1  0.4414060000000  0.5641020000000  0.5298180000000 1.0
C      1  0.4045930000000  0.4151980000000  0.5180050000000 1.0
C      1  0.5390110000000  0.5501750000000  0.4505870000000 1.0
C      1  0.4598990000000  0.5903020000000  0.4952150000000 1.0
C      1  0.5627440000000  0.5489610000000  0.4040690000000 1.0
C      1  0.5784440000000  0.5225300000000  0.4955150000000 1.0
C      1  0.4880530000000  0.5594070000000  0.4669920000000 1.0
C      1  0.4175580000000  0.5626100000000  0.4724900000000 1.0
C      1  0.4352270000000  0.4739190000000  0.4384560000000 1.0
C      1  0.5575430000000  0.5707200000000  0.4932310000000 1.0
C      1  0.4370840000000  0.5014700000000  0.5239460000000 1.0
C      1  0.4712990000000  0.5771440000000  0.5528080000000 1.0
C      1  0.5344730000000  0.4637690000000  0.5539100000000 1.0
C      1  0.5416130000000  0.5245810000000  0.5240420000000 1.0
C      1  0.5987200000000  0.5141990000000  0.4518220000000 1.0
C      1  0.4475270000000  0.4876770000000  0.4879870000000 1.0
C      1  0.5428290000000  0.4647280000000  0.4450720000000 1.0
C      1  0.4200340000000  0.4371870000000  0.5049060000000 1.0
C      1  0.5929570000000  0.4986430000000  0.4793250000000 1.0
C      1  0.5851920000000  0.4472780000000  0.5328440000000 1.0
C      1  0.4049020000000  0.5109400000000  0.5200780000000 1.0
C      1  0.4788210000000  0.4488840000000  0.4772500000000 1.0
C      1  0.6042280000000  0.4276160000000  0.4503050000000 1.0
C      1  0.5701330000000  0.5788490000000  0.5400400000000 1.0
C      1  0.5112660000000  0.4078040000000  0.4858940000000 1.0
C      1  0.5756110000000  0.5647360000000  0.5174790000000 1.0
C      1  0.4975850000000  0.4184290000000  0.6103310000000 1.0
C      1  0.5302390000000  0.4634730000000  0.3970150000000 1.0
C      1  0.5087780000000  0.5086090000000  0.4556290000000 1.0
C      1  0.4052110000000  0.4911120000000  0.4607410000000 1.0
C      1  0.5828890000000  0.5372760000000  0.5209410000000 1.0
C      1  0.5131350000000  0.5150820000000  0.4845640000000 1.0
C      1  0.4955300000000  0.4815080000000  0.4611940000000 1.0
C      1  0.5899030000000  0.4741720000000  0.5283690000000 1.0
C      1  0.5565210000000  0.4294190000000  0.4416520000000 1.0
C      1  0.4932610000000  0.4341510000000  0.5630840000000 1.0
C      1  0.4491920000000  0.5656630000000  0.4816760000000 1.0
C      1  0.4259480000000  0.5484690000000  0.5558080000000 1.0
C      1  0.4667060000000  0.5777060000000  0.4478730000000 1.0
C      1  0.5449460000000  0.5328900000000  0.4251280000000 1.0
C      1  0.5566270000000  0.5070270000000  0.5752760000000 1.0
C      1  0.4783380000000  0.5297290000000  0.5733150000000 1.0
C      1  0.4781410000000  0.6096180000000  0.4807200000000 1.0
C      1  0.4772720000000  0.6328520000000  0.4674080000000 1.0
C      1  0.4670470000000  0.4775500000000  0.4273030000000 1.0
C      1  0.4984470000000  0.5857430000000  0.4858320000000 1.0
C      1  0.4631310000000  0.4189680000000  0.4569000000000 1.0
C      1  0.4691330000000  0.5257680000000  0.5408230000000 1.0
C      1  0.4981700000000  0.5130940000000  0.4082420000000 1.0
C      1  0.4632070000000  0.4915800000000  0.4580670000000 1.0
C      1  0.4476760000000  0.5019010000000  0.5695960000000 1.0
C      1  0.4154470000000  0.4652340000000  0.5681570000000 1.0
C      1  0.4974450000000  0.4224390000000  0.3953770000000 1.0
C      1  0.4906870000000  0.5284590000000  0.4381390000000 1.0
C      1  0.5744900000000  0.4837350000000  0.5041560000000 1.0
C      1  0.5692750000000  0.5589300000000  0.4635580000000 1.0
C      1  0.4659550000000  0.5362350000000  0.4785150000000 1.0
C      1  0.5071310000000  0.4342520000000  0.5901910000000 1.0
END
