TITL C-2847951-7423-500 -0.000759579619476308 125000 -995.902978671469 0 0 187 (C1) n - 1
REM
REM in /home/bkarasulu/work/CARBON/AIRSS/Generating-Clusters/AIREBO/with-SteepDescent/Only-C1/SD-CG-opt/Try1-1.4A-POS3A/HFTN-CG
REM
REM
REM
REM
REM
REM ./C.cell (11c1c37f851c82e70ff6c80c92926a4b)
REM
REM compiler GCC version 9.2.1 20190827 (Red Hat 9.2.1-1)
REM options -cpp -mtune=generic -march=x86-64 -g -O0 -fpre-include=/usr/include/finclude/math-vector-fortran.h
REM seed -2140599586 -950992533 -624840222 -762738227 684392653 819770501 -1181169136 1926401352 1090115538 -1847609444 -278845891 2093835039 -1331332924 -1597039936 382608346 -641721274 1933990377 -1941424696 917841476 -327859582 -2085057905 -39949828 -1303702988 1136087575 222977223 240771599 1886756275 -419259890 1638864438 2087409365 803953324 556451181 1191413436
REM
CELL 1.54180   50.00000   50.00000   50.00000   90.00000   90.00000   90.00000
LATT -1
SFAC C  
C      1  0.4425500000000  0.5405260000000  0.4708200000000 1.0
C      1  0.5177060000000  0.4399660000000  0.5463830000000 1.0
C      1  0.5592770000000  0.4461970000000  0.4503900000000 1.0
C      1  0.5313940000000  0.4439500000000  0.4101530000000 1.0
C      1  0.5407260000000  0.4631610000000  0.5557750000000 1.0
C      1  0.4174900000000  0.5584990000000  0.4967400000000 1.0
C      1  0.3677260000000  0.4777670000000  0.4882320000000 1.0
C      1  0.5169020000000  0.6077250000000  0.4359440000000 1.0
C      1  0.5052450000000  0.4982800000000  0.6114660000000 1.0
C      1  0.5935210000000  0.5375200000000  0.5379360000000 1.0
C      1  0.4232300000000  0.5064740000000  0.4039010000000 1.0
C      1  0.4262900000000  0.4482100000000  0.5801570000000 1.0
C      1  0.5013470000000  0.6120840000000  0.4597030000000 1.0
C      1  0.4079700000000  0.4850320000000  0.4561300000000 1.0
C      1  0.5143000000000  0.5053120000000  0.5439220000000 1.0
C      1  0.5350220000000  0.4490860000000  0.4818050000000 1.0
C      1  0.4452440000000  0.5753780000000  0.4931810000000 1.0
C      1  0.5058850000000  0.5274960000000  0.4905220000000 1.0
C      1  0.5132430000000  0.6178550000000  0.5244400000000 1.0
C      1  0.4970470000000  0.4405270000000  0.5851500000000 1.0
C      1  0.4841550000000  0.4617550000000  0.4744780000000 1.0
C      1  0.5562600000000  0.5095850000000  0.4548770000000 1.0
C      1  0.5057110000000  0.5758700000000  0.5123190000000 1.0
C      1  0.5063710000000  0.5226890000000  0.3948730000000 1.0
C      1  0.4926510000000  0.3967440000000  0.4938220000000 1.0
C      1  0.6025220000000  0.5234490000000  0.5092920000000 1.0
C      1  0.4493400000000  0.5550950000000  0.5201790000000 1.0
C      1  0.4691910000000  0.5584790000000  0.5451900000000 1.0
C      1  0.4114480000000  0.4428110000000  0.5510190000000 1.0
C      1  0.5383590000000  0.4260140000000  0.5697190000000 1.0
C      1  0.5602400000000  0.5423280000000  0.4004300000000 1.0
C      1  0.5388370000000  0.5619600000000  0.5515830000000 1.0
C      1  0.4617870000000  0.4391800000000  0.4865900000000 1.0
C      1  0.4729360000000  0.4252140000000  0.5690280000000 1.0
C      1  0.4308330000000  0.5658910000000  0.4541070000000 1.0
C      1  0.4459370000000  0.4751550000000  0.4504610000000 1.0
C      1  0.5722530000000  0.4134130000000  0.4692430000000 1.0
C      1  0.5419790000000  0.4905330000000  0.4306040000000 1.0
C      1  0.5671080000000  0.6109440000000  0.5163540000000 1.0
C      1  0.5800120000000  0.5336640000000  0.4338810000000 1.0
C      1  0.5580990000000  0.4913280000000  0.4047740000000 1.0
C      1  0.5076740000000  0.4647250000000  0.6064610000000 1.0
C      1  0.4305470000000  0.4419030000000  0.4994330000000 1.0
C      1  0.5492910000000  0.5757860000000  0.5223270000000 1.0
C      1  0.5732960000000  0.5146070000000  0.4053900000000 1.0
C      1  0.5028170000000  0.4114740000000  0.4556840000000 1.0
C      1  0.4220440000000  0.5255150000000  0.4895120000000 1.0
C      1  0.5533080000000  0.5557820000000  0.5990510000000 1.0
C      1  0.5199960000000  0.3921070000000  0.4753370000000 1.0
C      1  0.4085700000000  0.4929910000000  0.4231230000000 1.0
C      1  0.4599460000000  0.5985320000000  0.5357020000000 1.0
C      1  0.5419600000000  0.4263760000000  0.5016490000000 1.0
C      1  0.4758040000000  0.4619810000000  0.4412630000000 1.0
C      1  0.5608950000000  0.5359960000000  0.5315820000000 1.0
C      1  0.4408220000000  0.4831840000000  0.5527670000000 1.0
C      1  0.4791490000000  0.5179140000000  0.3958680000000 1.0
C      1  0.6017850000000  0.4561810000000  0.4932370000000 1.0
C      1  0.5586350000000  0.5999430000000  0.4717200000000 1.0
C      1  0.5093890000000  0.4906800000000  0.5172760000000 1.0
C      1  0.4398430000000  0.5290990000000  0.4087760000000 1.0
C      1  0.5073630000000  0.5619050000000  0.4166790000000 1.0
C      1  0.5045410000000  0.4697930000000  0.3962510000000 1.0
C      1  0.4892440000000  0.4590570000000  0.5423500000000 1.0
C      1  0.4679960000000  0.5438250000000  0.4844320000000 1.0
C      1  0.4911010000000  0.6083200000000  0.5358650000000 1.0
C      1  0.5226780000000  0.5112480000000  0.4586580000000 1.0
C      1  0.5642570000000  0.4940530000000  0.4840520000000 1.0
C      1  0.5332730000000  0.5649940000000  0.4956390000000 1.0
C      1  0.5662350000000  0.4788040000000  0.5822900000000 1.0
C      1  0.4089860000000  0.4962720000000  0.5103180000000 1.0
C      1  0.4761650000000  0.5961630000000  0.4618070000000 1.0
C      1  0.4567140000000  0.5816600000000  0.4382800000000 1.0
C      1  0.5720720000000  0.4630340000000  0.4770290000000 1.0
C      1  0.4674900000000  0.4727340000000  0.5641770000000 1.0
C      1  0.4484530000000  0.4204530000000  0.5295740000000 1.0
C      1  0.5774790000000  0.5549980000000  0.5809060000000 1.0
C      1  0.5894460000000  0.4882560000000  0.5604910000000 1.0
C      1  0.3935850000000  0.4769420000000  0.4923710000000 1.0
C      1  0.4107330000000  0.5390870000000  0.4470920000000 1.0
C      1  0.5032450000000  0.4605670000000  0.5027330000000 1.0
C      1  0.4898180000000  0.4293260000000  0.5031290000000 1.0
C      1  0.5059810000000  0.5718630000000  0.5715010000000 1.0
C      1  0.5497780000000  0.5383530000000  0.5020280000000 1.0
C      1  0.3999860000000  0.5162160000000  0.5363510000000 1.0
C      1  0.5908720000000  0.4373490000000  0.4535840000000 1.0
C      1  0.4554630000000  0.5493050000000  0.3986130000000 1.0
C      1  0.4605470000000  0.3875000000000  0.4871840000000 1.0
C      1  0.4739850000000  0.5266730000000  0.5485930000000 1.0
C      1  0.5981180000000  0.4944320000000  0.4622670000000 1.0
C      1  0.4853840000000  0.5012240000000  0.4683750000000 1.0
C      1  0.4622410000000  0.5115800000000  0.4517490000000 1.0
C      1  0.5962370000000  0.4957020000000  0.4955090000000 1.0
C      1  0.5103730000000  0.4127820000000  0.5744360000000 1.0
C      1  0.5028290000000  0.5500470000000  0.4664230000000 1.0
C      1  0.5247030000000  0.5818950000000  0.4331310000000 1.0
C      1  0.5933070000000  0.5237950000000  0.4598500000000 1.0
C      1  0.4110770000000  0.4298440000000  0.5197770000000 1.0
C      1  0.4734040000000  0.5640110000000  0.4201810000000 1.0
C      1  0.5316070000000  0.5672320000000  0.4625520000000 1.0
C      1  0.4135040000000  0.4566740000000  0.4741220000000 1.0
C      1  0.5508060000000  0.5426200000000  0.4488220000000 1.0
C      1  0.5122750000000  0.4687520000000  0.5735690000000 1.0
C      1  0.4496500000000  0.4014760000000  0.4650350000000 1.0
C      1  0.4446000000000  0.5114820000000  0.5457370000000 1.0
C      1  0.4175970000000  0.5701890000000  0.5435480000000 1.0
C      1  0.4927680000000  0.3876010000000  0.5265720000000 1.0
C      1  0.4413070000000  0.5311150000000  0.4381670000000 1.0
C      1  0.5003560000000  0.4030940000000  0.5499850000000 1.0
C      1  0.4659470000000  0.4388000000000  0.3903060000000 1.0
C      1  0.5205950000000  0.5164640000000  0.4251230000000 1.0
C      1  0.4919360000000  0.5429520000000  0.4386650000000 1.0
C      1  0.5325080000000  0.5134820000000  0.5714530000000 1.0
C      1  0.4842790000000  0.5032900000000  0.5011140000000 1.0
C      1  0.6043800000000  0.4728080000000  0.5165700000000 1.0
C      1  0.5386800000000  0.4700410000000  0.3964940000000 1.0
C      1  0.4426120000000  0.5943820000000  0.4670240000000 1.0
C      1  0.4594960000000  0.3984090000000  0.5529890000000 1.0
C      1  0.4597640000000  0.4379350000000  0.4536930000000 1.0
C      1  0.4407550000000  0.4871940000000  0.5095250000000 1.0
C      1  0.4616850000000  0.3929060000000  0.5186420000000 1.0
C      1  0.5586100000000  0.4943170000000  0.5175940000000 1.0
C      1  0.5564200000000  0.5346110000000  0.5652700000000 1.0
C      1  0.5747070000000  0.5103510000000  0.5805450000000 1.0
C      1  0.5370080000000  0.5138410000000  0.4893850000000 1.0
C      1  0.4871950000000  0.5111020000000  0.4286600000000 1.0
C      1  0.5720560000000  0.5928320000000  0.4942100000000 1.0
C      1  0.5983880000000  0.5560070000000  0.5626620000000 1.0
C      1  0.4918930000000  0.4952720000000  0.5674130000000 1.0
C      1  0.4221660000000  0.4668600000000  0.5294920000000 1.0
C      1  0.5305720000000  0.4077170000000  0.4392160000000 1.0
C      1  0.5434840000000  0.4302290000000  0.4305360000000 1.0
C      1  0.5352200000000  0.6030290000000  0.5075890000000 1.0
C      1  0.5917120000000  0.5394060000000  0.4846650000000 1.0
C      1  0.5080110000000  0.4815520000000  0.4604780000000 1.0
C      1  0.5576410000000  0.4051980000000  0.5680770000000 1.0
C      1  0.5048190000000  0.5258170000000  0.5973230000000 1.0
C      1  0.3957920000000  0.5166350000000  0.4526360000000 1.0
C      1  0.4748580000000  0.4101870000000  0.4439220000000 1.0
C      1  0.4287760000000  0.4283870000000  0.4624760000000 1.0
C      1  0.5458790000000  0.4030240000000  0.4811590000000 1.0
C      1  0.5970690000000  0.4694430000000  0.4465250000000 1.0
C      1  0.4406870000000  0.5851960000000  0.5527420000000 1.0
C      1  0.5799300000000  0.4340190000000  0.4918470000000 1.0
C      1  0.5187220000000  0.4250560000000  0.5200620000000 1.0
C      1  0.5270330000000  0.5349540000000  0.5346150000000 1.0
C      1  0.5732980000000  0.5626760000000  0.5001920000000 1.0
C      1  0.4348400000000  0.5013580000000  0.4690950000000 1.0
C      1  0.5342750000000  0.4756690000000  0.5028690000000 1.0
C      1  0.4622490000000  0.4891440000000  0.5934960000000 1.0
C      1  0.4894220000000  0.4799840000000  0.4221050000000 1.0
C      1  0.4182620000000  0.5405190000000  0.5529390000000 1.0
C      1  0.5389340000000  0.4715290000000  0.4565650000000 1.0
C      1  0.4560630000000  0.5674260000000  0.5732880000000 1.0
C      1  0.4560460000000  0.4788140000000  0.4831830000000 1.0
C      1  0.5862160000000  0.5561080000000  0.4090950000000 1.0
C      1  0.4744590000000  0.4309310000000  0.4191520000000 1.0
C      1  0.4518450000000  0.4514710000000  0.5232970000000 1.0
C      1  0.5450970000000  0.4921380000000  0.5475190000000 1.0
C      1  0.3899850000000  0.4979270000000  0.5564660000000 1.0
C      1  0.5021430000000  0.4376720000000  0.4071380000000 1.0
C      1  0.4745600000000  0.5327000000000  0.5151370000000 1.0
C      1  0.4279210000000  0.5295240000000  0.5222330000000 1.0
C      1  0.4826860000000  0.5714450000000  0.4799990000000 1.0
C      1  0.4926260000000  0.5769260000000  0.5436010000000 1.0
C      1  0.5059110000000  0.5448740000000  0.5166150000000 1.0
C      1  0.5520910000000  0.4525360000000  0.5860090000000 1.0
C      1  0.5664800000000  0.4311670000000  0.5195160000000 1.0
C      1  0.4042460000000  0.5702630000000  0.5180910000000 1.0
C      1  0.5311170000000  0.5435500000000  0.6096500000000 1.0
C      1  0.5081340000000  0.4387320000000  0.4688880000000 1.0
C      1  0.4734360000000  0.5848100000000  0.5092020000000 1.0
C      1  0.4379770000000  0.4674760000000  0.5905260000000 1.0
C      1  0.5263020000000  0.5984650000000  0.4749570000000 1.0
C      1  0.4748190000000  0.5207830000000  0.5820750000000 1.0
C      1  0.4426460000000  0.5282450000000  0.5733880000000 1.0
C      1  0.5366760000000  0.5458140000000  0.4191660000000 1.0
C      1  0.4675630000000  0.5521390000000  0.5930880000000 1.0
C      1  0.4810750000000  0.4273200000000  0.5359270000000 1.0
C      1  0.5182560000000  0.5443430000000  0.5721420000000 1.0
C      1  0.4815830000000  0.4557760000000  0.3780070000000 1.0
C      1  0.4717700000000  0.4777460000000  0.5197670000000 1.0
C      1  0.4848890000000  0.4611060000000  0.6318620000000 1.0
C      1  0.5855120000000  0.5049170000000  0.5328340000000 1.0
C      1  0.4073750000000  0.4760260000000  0.5587070000000 1.0
C      1  0.5677620000000  0.4505960000000  0.5392260000000 1.0
C      1  0.4777120000000  0.4874030000000  0.6191200000000 1.0
C      1  0.5909110000000  0.4660250000000  0.5396490000000 1.0
END
