TITL C-2848500-1637-606 0.00223444833873102 125000 -1026.32588800202 0 0 194 (C1) n - 1
REM
REM in /home/bkarasulu/work/CARBON/AIRSS/Generating-Clusters/AIREBO/with-SteepDescent/Only-C1/SD-CG-opt/Try1-1.4A-POS3A/HFTN-CG
REM
REM
REM
REM
REM
REM ./C.cell (11c1c37f851c82e70ff6c80c92926a4b)
REM
REM compiler GCC version 9.2.1 20190827 (Red Hat 9.2.1-1)
REM options -cpp -mtune=generic -march=x86-64 -g -O0 -fpre-include=/usr/include/finclude/math-vector-fortran.h
REM seed -120693524 -1936401566 -971970750 1514980117 -593278289 -1539056381 -1786212194 1664073354 659130936 1946933340 1768076779 -775485016 -443548573 897948243 -910774245 -740252586 -270497598 -997268679 1505369538 -2012392679 -2003631273 1203060766 -1553853042 744699688 560475755 57365018 -900264602 229537395 -320766946 1519890883 2046468424 -985132132 1704304410
REM
CELL 1.54180   50.00000   50.00000   50.00000   90.00000   90.00000   90.00000
LATT -1
SFAC C  
C      1  0.5328500000000  0.5309800000000  0.5594180000000 1.0
C      1  0.5492710000000  0.5079430000000  0.5022670000000 1.0
C      1  0.4191020000000  0.4725790000000  0.6004810000000 1.0
C      1  0.5216610000000  0.5237960000000  0.5907380000000 1.0
C      1  0.5847240000000  0.5075070000000  0.4012610000000 1.0
C      1  0.5818650000000  0.5211590000000  0.5374350000000 1.0
C      1  0.4784000000000  0.5937240000000  0.4322740000000 1.0
C      1  0.4324360000000  0.5218070000000  0.4660130000000 1.0
C      1  0.5248060000000  0.4114930000000  0.4667860000000 1.0
C      1  0.5821700000000  0.4388830000000  0.5306460000000 1.0
C      1  0.4338470000000  0.5286280000000  0.5054970000000 1.0
C      1  0.5030140000000  0.4988090000000  0.5914870000000 1.0
C      1  0.5453970000000  0.4654780000000  0.4085680000000 1.0
C      1  0.5444540000000  0.4075880000000  0.5530330000000 1.0
C      1  0.5095970000000  0.5122590000000  0.5033860000000 1.0
C      1  0.6157940000000  0.4659140000000  0.4884810000000 1.0
C      1  0.5216530000000  0.4488510000000  0.5768620000000 1.0
C      1  0.5616420000000  0.4741240000000  0.5177050000000 1.0
C      1  0.4823940000000  0.4286270000000  0.4423750000000 1.0
C      1  0.4765840000000  0.5777400000000  0.4861860000000 1.0
C      1  0.4110330000000  0.4927480000000  0.5799840000000 1.0
C      1  0.4242800000000  0.4352050000000  0.4681880000000 1.0
C      1  0.4191490000000  0.5074940000000  0.4290880000000 1.0
C      1  0.5806390000000  0.5178110000000  0.5771580000000 1.0
C      1  0.3997110000000  0.5147480000000  0.5597010000000 1.0
C      1  0.4472940000000  0.4539990000000  0.5964120000000 1.0
C      1  0.3994270000000  0.4790640000000  0.4815370000000 1.0
C      1  0.5409170000000  0.4918760000000  0.5578170000000 1.0
C      1  0.5483500000000  0.4378390000000  0.5272000000000 1.0
C      1  0.5224580000000  0.4495230000000  0.5428650000000 1.0
C      1  0.5160890000000  0.5901780000000  0.5681820000000 1.0
C      1  0.3947970000000  0.5235660000000  0.5114380000000 1.0
C      1  0.4861200000000  0.5293190000000  0.4755360000000 1.0
C      1  0.4087720000000  0.5462250000000  0.4660800000000 1.0
C      1  0.4988210000000  0.4608000000000  0.3863410000000 1.0
C      1  0.4827300000000  0.4189810000000  0.5700620000000 1.0
C      1  0.5447920000000  0.5481360000000  0.5934420000000 1.0
C      1  0.4746950000000  0.4726320000000  0.4930770000000 1.0
C      1  0.5559990000000  0.5620760000000  0.5495960000000 1.0
C      1  0.4942250000000  0.5403700000000  0.5149570000000 1.0
C      1  0.5284210000000  0.4840070000000  0.4314760000000 1.0
C      1  0.4000800000000  0.5485090000000  0.5556840000000 1.0
C      1  0.4716580000000  0.5057220000000  0.4288240000000 1.0
C      1  0.5540730000000  0.4949290000000  0.4011700000000 1.0
C      1  0.5241260000000  0.5626160000000  0.5541010000000 1.0
C      1  0.4621770000000  0.5452820000000  0.5598150000000 1.0
C      1  0.5250370000000  0.4192330000000  0.4998450000000 1.0
C      1  0.4671820000000  0.4093320000000  0.5436060000000 1.0
C      1  0.5598170000000  0.4691320000000  0.5488400000000 1.0
C      1  0.4620220000000  0.5373300000000  0.6018600000000 1.0
C      1  0.5154770000000  0.4174070000000  0.5654430000000 1.0
C      1  0.4438740000000  0.4687240000000  0.4081020000000 1.0
C      1  0.4239780000000  0.4759760000000  0.4333410000000 1.0
C      1  0.4979580000000  0.5415630000000  0.5753260000000 1.0
C      1  0.4489140000000  0.4042520000000  0.4540100000000 1.0
C      1  0.4432640000000  0.5707560000000  0.5616720000000 1.0
C      1  0.5722490000000  0.4335230000000  0.4781710000000 1.0
C      1  0.5906080000000  0.4937800000000  0.5552270000000 1.0
C      1  0.4428890000000  0.4319700000000  0.4406710000000 1.0
C      1  0.6098480000000  0.4752420000000  0.4581520000000 1.0
C      1  0.4455400000000  0.3969630000000  0.4993270000000 1.0
C      1  0.5303750000000  0.5482000000000  0.3942360000000 1.0
C      1  0.4568650000000  0.4976070000000  0.5616540000000 1.0
C      1  0.4908290000000  0.4720440000000  0.5516650000000 1.0
C      1  0.5505050000000  0.5156070000000  0.5354240000000 1.0
C      1  0.5018240000000  0.4922510000000  0.5278000000000 1.0
C      1  0.4980240000000  0.4508510000000  0.6012540000000 1.0
C      1  0.4620420000000  0.4450340000000  0.4184670000000 1.0
C      1  0.5246050000000  0.5078840000000  0.4553800000000 1.0
C      1  0.4593440000000  0.4729930000000  0.5185920000000 1.0
C      1  0.4753470000000  0.6101750000000  0.5508030000000 1.0
C      1  0.5480880000000  0.5488780000000  0.4681960000000 1.0
C      1  0.5520070000000  0.4785030000000  0.4853670000000 1.0
C      1  0.6012810000000  0.5061430000000  0.4521600000000 1.0
C      1  0.4548120000000  0.5801590000000  0.5122480000000 1.0
C      1  0.4717830000000  0.5005330000000  0.4800670000000 1.0
C      1  0.4685550000000  0.5572610000000  0.4449610000000 1.0
C      1  0.5107040000000  0.5328220000000  0.4369030000000 1.0
C      1  0.4606630000000  0.4798630000000  0.6096350000000 1.0
C      1  0.4317820000000  0.5580770000000  0.4881640000000 1.0
C      1  0.4992460000000  0.5595190000000  0.4528870000000 1.0
C      1  0.4875980000000  0.5547070000000  0.6111250000000 1.0
C      1  0.4728900000000  0.4850740000000  0.4534580000000 1.0
C      1  0.5619950000000  0.4899030000000  0.5828420000000 1.0
C      1  0.4045140000000  0.5287220000000  0.4383940000000 1.0
C      1  0.5803380000000  0.4802680000000  0.4425790000000 1.0
C      1  0.5846660000000  0.4702480000000  0.4806630000000 1.0
C      1  0.5684310000000  0.4507190000000  0.4173060000000 1.0
C      1  0.5569420000000  0.4975850000000  0.4576330000000 1.0
C      1  0.5143410000000  0.4812540000000  0.5695810000000 1.0
C      1  0.5529730000000  0.4579800000000  0.5864930000000 1.0
C      1  0.5752340000000  0.4471010000000  0.4469690000000 1.0
C      1  0.5160420000000  0.5496950000000  0.6120700000000 1.0
C      1  0.5001440000000  0.4661070000000  0.4567900000000 1.0
C      1  0.4891410000000  0.3990540000000  0.5240820000000 1.0
C      1  0.5096730000000  0.4893750000000  0.4796830000000 1.0
C      1  0.5199360000000  0.4458860000000  0.4053500000000 1.0
C      1  0.5359130000000  0.5196690000000  0.3886950000000 1.0
C      1  0.4652140000000  0.5249150000000  0.5139000000000 1.0
C      1  0.4431640000000  0.5156970000000  0.4131780000000 1.0
C      1  0.6019000000000  0.5298570000000  0.5113720000000 1.0
C      1  0.5508310000000  0.5620530000000  0.4397610000000 1.0
C      1  0.5879190000000  0.5490070000000  0.4703300000000 1.0
C      1  0.4278310000000  0.4634580000000  0.5210260000000 1.0
C      1  0.4644490000000  0.5487510000000  0.4896570000000 1.0
C      1  0.4891820000000  0.5931440000000  0.5717400000000 1.0
C      1  0.5152190000000  0.5026250000000  0.4061430000000 1.0
C      1  0.4345100000000  0.4199920000000  0.5456430000000 1.0
C      1  0.5277860000000  0.4713810000000  0.5208260000000 1.0
C      1  0.5432900000000  0.5841300000000  0.5266110000000 1.0
C      1  0.4183200000000  0.5658910000000  0.5450890000000 1.0
C      1  0.5802750000000  0.5501990000000  0.4435700000000 1.0
C      1  0.4294790000000  0.4022970000000  0.4763000000000 1.0
C      1  0.4942880000000  0.4318660000000  0.4926560000000 1.0
C      1  0.5686370000000  0.5622330000000  0.4898950000000 1.0
C      1  0.5682440000000  0.5459820000000  0.5769380000000 1.0
C      1  0.4473760000000  0.4438780000000  0.4898330000000 1.0
C      1  0.3899330000000  0.4927210000000  0.5361210000000 1.0
C      1  0.5095010000000  0.5146290000000  0.5483550000000 1.0
C      1  0.4749020000000  0.3957990000000  0.4635640000000 1.0
C      1  0.5235470000000  0.5763040000000  0.4360400000000 1.0
C      1  0.4608780000000  0.5272830000000  0.4528260000000 1.0
C      1  0.5540030000000  0.4014680000000  0.5012140000000 1.0
C      1  0.5645880000000  0.4081430000000  0.4568830000000 1.0
C      1  0.4483830000000  0.4933380000000  0.3906700000000 1.0
C      1  0.4869750000000  0.5350500000000  0.5457600000000 1.0
C      1  0.4187260000000  0.5220590000000  0.5324730000000 1.0
C      1  0.5928800000000  0.4856700000000  0.5231840000000 1.0
C      1  0.4750240000000  0.4343120000000  0.5954190000000 1.0
C      1  0.4817720000000  0.4809570000000  0.4077980000000 1.0
C      1  0.4840330000000  0.6003610000000  0.4617490000000 1.0
C      1  0.4614590000000  0.4484670000000  0.5378630000000 1.0
C      1  0.4229890000000  0.4519020000000  0.5478930000000 1.0
C      1  0.5778800000000  0.4194630000000  0.5079120000000 1.0
C      1  0.4005210000000  0.4791320000000  0.5147990000000 1.0
C      1  0.4718490000000  0.5123460000000  0.3855470000000 1.0
C      1  0.4413610000000  0.5553460000000  0.5920090000000 1.0
C      1  0.5482760000000  0.5083460000000  0.6052010000000 1.0
C      1  0.5438920000000  0.4343310000000  0.4503410000000 1.0
C      1  0.4910700000000  0.5262720000000  0.4099190000000 1.0
C      1  0.5177790000000  0.4103700000000  0.5321330000000 1.0
C      1  0.4044930000000  0.5102290000000  0.4823690000000 1.0
C      1  0.4687370000000  0.4994410000000  0.5309940000000 1.0
C      1  0.4685280000000  0.5794840000000  0.5404360000000 1.0
C      1  0.4507830000000  0.5833330000000  0.4483700000000 1.0
C      1  0.4471740000000  0.4425440000000  0.5681880000000 1.0
C      1  0.4789190000000  0.4024010000000  0.4944140000000 1.0
C      1  0.5998480000000  0.5603510000000  0.5190140000000 1.0
C      1  0.5135310000000  0.6005480000000  0.5255420000000 1.0
C      1  0.5090050000000  0.5762570000000  0.4808290000000 1.0
C      1  0.4619830000000  0.5428980000000  0.4165380000000 1.0
C      1  0.4400750000000  0.5877950000000  0.4738670000000 1.0
C      1  0.4096750000000  0.4609070000000  0.4581610000000 1.0
C      1  0.5985310000000  0.5214260000000  0.4784630000000 1.0
C      1  0.5020200000000  0.5564520000000  0.3986840000000 1.0
C      1  0.5091100000000  0.4867450000000  0.3792960000000 1.0
C      1  0.5392170000000  0.5394370000000  0.5054120000000 1.0
C      1  0.5225950000000  0.5669360000000  0.5058220000000 1.0
C      1  0.4696150000000  0.5059640000000  0.5911030000000 1.0
C      1  0.4428450000000  0.5016490000000  0.4894660000000 1.0
C      1  0.4902780000000  0.4767070000000  0.6089090000000 1.0
C      1  0.5643240000000  0.5890270000000  0.5059840000000 1.0
C      1  0.5881760000000  0.5235100000000  0.4293810000000 1.0
C      1  0.5052830000000  0.6204030000000  0.5030800000000 1.0
C      1  0.5198860000000  0.5327050000000  0.4782370000000 1.0
C      1  0.4778290000000  0.5670980000000  0.5809930000000 1.0
C      1  0.5917810000000  0.4596260000000  0.5529890000000 1.0
C      1  0.4746580000000  0.4477680000000  0.4698790000000 1.0
C      1  0.5583900000000  0.3884140000000  0.4758980000000 1.0
C      1  0.6196950000000  0.4739600000000  0.5138400000000 1.0
C      1  0.4322130000000  0.4791650000000  0.5634510000000 1.0
C      1  0.4312740000000  0.4738840000000  0.4901160000000 1.0
C      1  0.5452720000000  0.4463830000000  0.4944140000000 1.0
C      1  0.4787720000000  0.6115270000000  0.5185020000000 1.0
C      1  0.4407890000000  0.5238470000000  0.5550420000000 1.0
C      1  0.4537250000000  0.6087020000000  0.4956380000000 1.0
C      1  0.5006580000000  0.4035050000000  0.4465020000000 1.0
C      1  0.4239570000000  0.5718430000000  0.5182530000000 1.0
C      1  0.4905680000000  0.4415670000000  0.5462730000000 1.0
C      1  0.5561350000000  0.5144610000000  0.4280320000000 1.0
C      1  0.5561640000000  0.4373250000000  0.5603000000000 1.0
C      1  0.5340130000000  0.4650360000000  0.4597870000000 1.0
C      1  0.3838100000000  0.5374650000000  0.4844290000000 1.0
C      1  0.5136060000000  0.4587360000000  0.4935820000000 1.0
C      1  0.5000670000000  0.5697150000000  0.5311390000000 1.0
C      1  0.5083710000000  0.6092140000000  0.4779670000000 1.0
C      1  0.4497490000000  0.4633820000000  0.4517610000000 1.0
C      1  0.5385780000000  0.5385470000000  0.4238540000000 1.0
C      1  0.5809130000000  0.5052360000000  0.5009070000000 1.0
C      1  0.4939080000000  0.4547030000000  0.4253710000000 1.0
C      1  0.4992270000000  0.5786310000000  0.4178590000000 1.0
C      1  0.5204810000000  0.4250580000000  0.4289860000000 1.0
C      1  0.4520120000000  0.4235850000000  0.5167010000000 1.0
C      1  0.5680140000000  0.5485670000000  0.5210340000000 1.0
END
