TITL C-2848500-1637-348 -0.000541573215429001 125000 -358.986003468212 0 0 65 (C1) n - 1
REM
REM in /home/bkarasulu/work/CARBON/AIRSS/Generating-Clusters/AIREBO/with-SteepDescent/Only-C1/SD-CG-opt/Try1-1.4A-POS3A/HFTN-CG
REM
REM
REM
REM
REM
REM ./C.cell (11c1c37f851c82e70ff6c80c92926a4b)
REM
REM compiler GCC version 9.2.1 20190827 (Red Hat 9.2.1-1)
REM options -cpp -mtune=generic -march=x86-64 -g -O0 -fpre-include=/usr/include/finclude/math-vector-fortran.h
REM seed 233021929 -1716013927 -1157388331 -398053990 -2139615303 -1205377625 48510251 -1900480837 -746402565 -883753086 -346864762 1763077250 -467942794 1126818882 1477954099 47802871 -746819482 -295967807 1524492888 846917210 -137733744 44066737 420623666 972947626 820391043 552160678 603307821 -929438964 -1375515563 379651287 -945574077 -1819140412 -1618140229
REM
CELL 1.54180   50.00000   50.00000   50.00000   90.00000   90.00000   90.00000
LATT -1
SFAC C  
C      1  0.5536970000000  0.5037430000000  0.5189270000000 1.0
C      1  0.5576940000000  0.5315590000000  0.5083850000000 1.0
C      1  0.4905820000000  0.5173320000000  0.4921600000000 1.0
C      1  0.5220570000000  0.5267460000000  0.4444360000000 1.0
C      1  0.4523180000000  0.5268730000000  0.4877350000000 1.0
C      1  0.5360520000000  0.5040390000000  0.4328990000000 1.0
C      1  0.4463070000000  0.4751440000000  0.5548270000000 1.0
C      1  0.5065030000000  0.4341620000000  0.5376020000000 1.0
C      1  0.5339000000000  0.4553860000000  0.5005280000000 1.0
C      1  0.5529610000000  0.4625160000000  0.4532850000000 1.0
C      1  0.5330330000000  0.5050490000000  0.5528810000000 1.0
C      1  0.5364380000000  0.5473270000000  0.5177350000000 1.0
C      1  0.5310190000000  0.5286550000000  0.4734950000000 1.0
C      1  0.4918720000000  0.5424280000000  0.5239730000000 1.0
C      1  0.5151880000000  0.4991000000000  0.4791780000000 1.0
C      1  0.5002250000000  0.4937620000000  0.4502840000000 1.0
C      1  0.4778600000000  0.4301060000000  0.4501880000000 1.0
C      1  0.4393370000000  0.5267030000000  0.5191640000000 1.0
C      1  0.5269870000000  0.4557890000000  0.4408980000000 1.0
C      1  0.4491450000000  0.5699420000000  0.5248120000000 1.0
C      1  0.5063810000000  0.4407500000000  0.4531420000000 1.0
C      1  0.5065800000000  0.4742610000000  0.5018600000000 1.0
C      1  0.5462970000000  0.4560920000000  0.5298350000000 1.0
C      1  0.4741720000000  0.5084320000000  0.4454450000000 1.0
C      1  0.4887700000000  0.5768050000000  0.5039870000000 1.0
C      1  0.4572590000000  0.4433950000000  0.4643290000000 1.0
C      1  0.4675240000000  0.4730810000000  0.4754570000000 1.0
C      1  0.4910020000000  0.4339420000000  0.5078060000000 1.0
C      1  0.5237840000000  0.4534700000000  0.5476030000000 1.0
C      1  0.4833430000000  0.4631380000000  0.5226590000000 1.0
C      1  0.4994730000000  0.5738430000000  0.5345260000000 1.0
C      1  0.5598260000000  0.4917700000000  0.4469740000000 1.0
C      1  0.4283860000000  0.4951660000000  0.4729720000000 1.0
C      1  0.5091080000000  0.4812560000000  0.5562400000000 1.0
C      1  0.5609310000000  0.5300830000000  0.4794940000000 1.0
C      1  0.4775280000000  0.4800670000000  0.5474760000000 1.0
C      1  0.4678420000000  0.5633730000000  0.4902230000000 1.0
C      1  0.5169470000000  0.4806690000000  0.4301090000000 1.0
C      1  0.4364010000000  0.5546430000000  0.4992090000000 1.0
C      1  0.4527900000000  0.4886190000000  0.5255070000000 1.0
C      1  0.5746910000000  0.4854200000000  0.4872990000000 1.0
C      1  0.5658020000000  0.5014500000000  0.5503680000000 1.0
C      1  0.4237740000000  0.4687550000000  0.4908180000000 1.0
C      1  0.4533120000000  0.4964060000000  0.4593120000000 1.0
C      1  0.5244100000000  0.5552990000000  0.5430530000000 1.0
C      1  0.4650920000000  0.5164450000000  0.5696470000000 1.0
C      1  0.5108590000000  0.5444890000000  0.4958320000000 1.0
C      1  0.4941690000000  0.5325570000000  0.4428130000000 1.0
C      1  0.4414640000000  0.4467050000000  0.4901490000000 1.0
C      1  0.4267430000000  0.4987440000000  0.5067260000000 1.0
C      1  0.5577290000000  0.4507130000000  0.4784860000000 1.0
C      1  0.5755250000000  0.5078050000000  0.4682870000000 1.0
C      1  0.4963250000000  0.5108550000000  0.5670720000000 1.0
C      1  0.4585530000000  0.4425020000000  0.5118310000000 1.0
C      1  0.4787030000000  0.5397750000000  0.4703110000000 1.0
C      1  0.5435530000000  0.4855790000000  0.4921860000000 1.0
C      1  0.4655000000000  0.5525920000000  0.5377210000000 1.0
C      1  0.4516960000000  0.5298090000000  0.5499330000000 1.0
C      1  0.4654670000000  0.4971380000000  0.4972550000000 1.0
C      1  0.4930050000000  0.4528590000000  0.4793550000000 1.0
C      1  0.5127290000000  0.5768090000000  0.4854190000000 1.0
C      1  0.5724330000000  0.4599360000000  0.5082260000000 1.0
C      1  0.4992350000000  0.5160010000000  0.5350700000000 1.0
C      1  0.5213660000000  0.5342360000000  0.5625330000000 1.0
C      1  0.5203470000000  0.4979050000000  0.5220510000000 1.0
END
