TITL C-2848507-1641-269 -0.000177383545521734 125000 -386.848843491013 0 0 72 (C1) n - 1
REM
REM in /home/bkarasulu/work/CARBON/AIRSS/Generating-Clusters/AIREBO/with-SteepDescent/Only-C1/SD-CG-opt/Try1-1.4A-POS3A/HFTN-CG
REM
REM
REM
REM
REM
REM ./C.cell (11c1c37f851c82e70ff6c80c92926a4b)
REM
REM compiler GCC version 9.2.1 20190827 (Red Hat 9.2.1-1)
REM options -cpp -mtune=generic -march=x86-64 -g -O0 -fpre-include=/usr/include/finclude/math-vector-fortran.h
REM seed -2102700044 1926136718 -26986174 -686629247 -957313500 -771500223 709530057 -105496350 1877015430 1930771548 -380517395 -1893580493 1013377779 1256192729 -1809431240 1031245879 670033974 2041014551 2054905406 -2059262866 2073751116 -1395640730 -984888866 978235193 -1633031125 1520654685 -557108873 -107336439 -757429686 -755452877 -831799218 -992964443 -987424975
REM
CELL 1.54180   50.00000   50.00000   50.00000   90.00000   90.00000   90.00000
LATT -1
SFAC C  
C      1  0.4784330000000  0.5602960000000  0.4490500000000 1.0
C      1  0.5661080000000  0.4662070000000  0.5145660000000 1.0
C      1  0.4976570000000  0.5732340000000  0.4295420000000 1.0
C      1  0.4218340000000  0.4598370000000  0.5122810000000 1.0
C      1  0.4236800000000  0.5385550000000  0.5128760000000 1.0
C      1  0.4570860000000  0.4358690000000  0.5421520000000 1.0
C      1  0.4997780000000  0.5426440000000  0.5412970000000 1.0
C      1  0.5335460000000  0.4990430000000  0.5140260000000 1.0
C      1  0.5677850000000  0.4784810000000  0.4834440000000 1.0
C      1  0.4428220000000  0.4790270000000  0.5508360000000 1.0
C      1  0.4714430000000  0.5004450000000  0.4555980000000 1.0
C      1  0.5899730000000  0.5056860000000  0.5222570000000 1.0
C      1  0.5523690000000  0.5322640000000  0.5022520000000 1.0
C      1  0.5099700000000  0.5707480000000  0.5301570000000 1.0
C      1  0.4530810000000  0.4760680000000  0.4299250000000 1.0
C      1  0.4835230000000  0.5687260000000  0.4756350000000 1.0
C      1  0.5200450000000  0.5551350000000  0.4387000000000 1.0
C      1  0.5345930000000  0.4446250000000  0.4904940000000 1.0
C      1  0.4522270000000  0.4095680000000  0.5443410000000 1.0
C      1  0.4400690000000  0.4718820000000  0.4541070000000 1.0
C      1  0.5107030000000  0.5762050000000  0.4798520000000 1.0
C      1  0.4143920000000  0.4907180000000  0.5092940000000 1.0
C      1  0.4478980000000  0.4957130000000  0.5123090000000 1.0
C      1  0.5484300000000  0.4975050000000  0.5628460000000 1.0
C      1  0.5098440000000  0.5259270000000  0.4368260000000 1.0
C      1  0.5267940000000  0.4601840000000  0.5197130000000 1.0
C      1  0.5174440000000  0.5188510000000  0.5760780000000 1.0
C      1  0.4617240000000  0.5512980000000  0.5498670000000 1.0
C      1  0.5710780000000  0.5051470000000  0.4663450000000 1.0
C      1  0.4817350000000  0.4481570000000  0.5456180000000 1.0
C      1  0.5049260000000  0.4581850000000  0.4506350000000 1.0
C      1  0.5054340000000  0.4966320000000  0.5796280000000 1.0
C      1  0.4678120000000  0.4986910000000  0.5484620000000 1.0
C      1  0.4721690000000  0.5506440000000  0.4964860000000 1.0
C      1  0.4843630000000  0.5193940000000  0.4895810000000 1.0
C      1  0.4796540000000  0.5319310000000  0.4457350000000 1.0
C      1  0.4541890000000  0.5226700000000  0.4746880000000 1.0
C      1  0.5518010000000  0.4147190000000  0.5199100000000 1.0
C      1  0.4808150000000  0.4885960000000  0.4258100000000 1.0
C      1  0.4828600000000  0.4582680000000  0.4929050000000 1.0
C      1  0.5296870000000  0.5604800000000  0.4653470000000 1.0
C      1  0.5319390000000  0.4664490000000  0.4468680000000 1.0
C      1  0.5315900000000  0.4924030000000  0.4363600000000 1.0
C      1  0.5469240000000  0.5442110000000  0.5269160000000 1.0
C      1  0.4959920000000  0.4800380000000  0.5522340000000 1.0
C      1  0.4936670000000  0.4678290000000  0.5205730000000 1.0
C      1  0.4406370000000  0.4929290000000  0.4794610000000 1.0
C      1  0.4393310000000  0.5448250000000  0.4919320000000 1.0
C      1  0.5373570000000  0.5708570000000  0.5281420000000 1.0
C      1  0.4784300000000  0.5608940000000  0.5240490000000 1.0
C      1  0.4248020000000  0.4637630000000  0.4819550000000 1.0
C      1  0.5652820000000  0.5032180000000  0.5066380000000 1.0
C      1  0.5525160000000  0.4429200000000  0.5337440000000 1.0
C      1  0.5288050000000  0.4843950000000  0.5435010000000 1.0
C      1  0.5348400000000  0.5247630000000  0.5477290000000 1.0
C      1  0.4780340000000  0.4348480000000  0.4797460000000 1.0
C      1  0.4342170000000  0.5186870000000  0.5295840000000 1.0
C      1  0.4899050000000  0.4345270000000  0.4545130000000 1.0
C      1  0.4949760000000  0.4824460000000  0.4722860000000 1.0
C      1  0.5402140000000  0.4162970000000  0.4969180000000 1.0
C      1  0.5484070000000  0.4603520000000  0.4685880000000 1.0
C      1  0.4372390000000  0.4553200000000  0.5359190000000 1.0
C      1  0.5218270000000  0.4789850000000  0.4917950000000 1.0
C      1  0.5420360000000  0.5382660000000  0.4775120000000 1.0
C      1  0.4523180000000  0.5261060000000  0.5507600000000 1.0
C      1  0.5574920000000  0.4434790000000  0.5610420000000 1.0
C      1  0.5532790000000  0.5924440000000  0.5277490000000 1.0
C      1  0.5067390000000  0.4987450000000  0.4205460000000 1.0
C      1  0.5099480000000  0.5127150000000  0.4681640000000 1.0
C      1  0.4813030000000  0.4997450000000  0.5172630000000 1.0
C      1  0.5420710000000  0.5139240000000  0.4568830000000 1.0
C      1  0.5081100000000  0.5153640000000  0.5291570000000 1.0
END
