TITL C-2848508-1660-664 -0.00119987674335073 125000 -204.172856205893 0 0 39 (C1) n - 1
REM
REM in /home/bkarasulu/work/CARBON/AIRSS/Generating-Clusters/AIREBO/with-SteepDescent/Only-C1/SD-CG-opt/Try1-1.4A-POS3A/HFTN-CG
REM
REM
REM
REM
REM
REM ./C.cell (11c1c37f851c82e70ff6c80c92926a4b)
REM
REM compiler GCC version 9.2.1 20190827 (Red Hat 9.2.1-1)
REM options -cpp -mtune=generic -march=x86-64 -g -O0 -fpre-include=/usr/include/finclude/math-vector-fortran.h
REM seed -993803712 -171551610 -1067701757 1971502028 -220985544 -460409521 -1259887821 -674006178 571386499 -1277423074 2145323172 -246682821 -1515574572 1010743148 1893387043 -1976398034 318502299 -2089012750 1411816185 574015153 -1515223508 627885165 1251607152 -681508830 2063071586 2134018748 -952533912 -2112159672 -286453589 1488535228 1983788520 273549648 -795307826
REM
CELL 1.54180   50.00000   50.00000   50.00000   90.00000   90.00000   90.00000
LATT -1
SFAC C  
C      1  0.4945880000000  0.5687190000000  0.5170250000000 1.0
C      1  0.5182920000000  0.5576270000000  0.5277280000000 1.0
C      1  0.5168830000000  0.5308800000000  0.5320550000000 1.0
C      1  0.5615530000000  0.4937630000000  0.5157320000000 1.0
C      1  0.4517330000000  0.5041660000000  0.4556080000000 1.0
C      1  0.5035180000000  0.4535090000000  0.5083280000000 1.0
C      1  0.5065720000000  0.4943870000000  0.5635170000000 1.0
C      1  0.5094410000000  0.4833970000000  0.5140150000000 1.0
C      1  0.5208760000000  0.4643510000000  0.4378810000000 1.0
C      1  0.5199760000000  0.5109820000000  0.5865080000000 1.0
C      1  0.4846850000000  0.4969710000000  0.4534870000000 1.0
C      1  0.5261900000000  0.4422560000000  0.4262670000000 1.0
C      1  0.5578590000000  0.5046950000000  0.5453130000000 1.0
C      1  0.4777950000000  0.4990160000000  0.4867210000000 1.0
C      1  0.4786750000000  0.5440230000000  0.5119610000000 1.0
C      1  0.4613770000000  0.4744850000000  0.4943160000000 1.0
C      1  0.4483180000000  0.5232720000000  0.4748540000000 1.0
C      1  0.4659600000000  0.4987390000000  0.5394220000000 1.0
C      1  0.4415090000000  0.4787430000000  0.5121970000000 1.0
C      1  0.4778150000000  0.5327280000000  0.4822210000000 1.0
C      1  0.5130570000000  0.4887730000000  0.4534700000000 1.0
C      1  0.5184720000000  0.4230960000000  0.5059830000000 1.0
C      1  0.5564150000000  0.5142370000000  0.4651470000000 1.0
C      1  0.4871570000000  0.5944260000000  0.5127420000000 1.0
C      1  0.5076900000000  0.5221980000000  0.4742570000000 1.0
C      1  0.5366030000000  0.4835090000000  0.5316060000000 1.0
C      1  0.5576980000000  0.4903470000000  0.4864660000000 1.0
C      1  0.5318520000000  0.5171060000000  0.4537560000000 1.0
C      1  0.4304060000000  0.5242800000000  0.4953540000000 1.0
C      1  0.4945540000000  0.5139540000000  0.5127060000000 1.0
C      1  0.4609790000000  0.5296010000000  0.5331580000000 1.0
C      1  0.5691860000000  0.4668520000000  0.4763190000000 1.0
C      1  0.5299390000000  0.5157170000000  0.5542460000000 1.0
C      1  0.4620130000000  0.4929380000000  0.4283110000000 1.0
C      1  0.4751150000000  0.4512460000000  0.4934730000000 1.0
C      1  0.4379540000000  0.5086040000000  0.5217650000000 1.0
C      1  0.4907930000000  0.4872500000000  0.5422000000000 1.0
C      1  0.4922370000000  0.4252550000000  0.4886750000000 1.0
C      1  0.5242660000000  0.4939030000000  0.4852100000000 1.0
END
