TITL C-2847952-8118-7 0.00102598785054314 125000 -103.465614099813 0 0 20 (C1) n - 1
REM
REM in /home/bkarasulu/work/CARBON/AIRSS/Generating-Clusters/AIREBO/with-SteepDescent/Only-C1/SD-CG-opt/Try1-1.4A-POS3A/HFTN-CG
REM
REM
REM
REM
REM
REM ./C.cell (11c1c37f851c82e70ff6c80c92926a4b)
REM
REM compiler GCC version 9.2.1 20190827 (Red Hat 9.2.1-1)
REM options -cpp -mtune=generic -march=x86-64 -g -O0 -fpre-include=/usr/include/finclude/math-vector-fortran.h
REM seed 230189960 -498096369 2120916492 -452998931 1244970048 -964539671 1074924438 -52704085 -800460705 1488472910 581750959 87487386 -1995412354 -567824940 -506963772 1287957321 1079914324 -345758152 1825413755 188953892 -1863748510 110507338 1035264108 195825432 1089608973 1678137501 2052912390 -731123887 -7672081 1795346229 1683772969 1686512573 -115526842
REM
CELL 1.54180   50.00000   50.00000   50.00000   90.00000   90.00000   90.00000
LATT -1
SFAC C  
C      1  0.4764380000000  0.4962190000000  0.4900910000000 1.0
C      1  0.4891530000000  0.4769470000000  0.5092860000000 1.0
C      1  0.4870070000000  0.5542640000000  0.4870230000000 1.0
C      1  0.5266690000000  0.5074180000000  0.5363760000000 1.0
C      1  0.4898130000000  0.5219290000000  0.4923670000000 1.0
C      1  0.5561000000000  0.4468430000000  0.4970940000000 1.0
C      1  0.5384460000000  0.5577520000000  0.4708370000000 1.0
C      1  0.4762820000000  0.4597490000000  0.5245080000000 1.0
C      1  0.5198730000000  0.5175850000000  0.5067620000000 1.0
C      1  0.4447200000000  0.4909100000000  0.4790520000000 1.0
C      1  0.4493770000000  0.4231250000000  0.5521840000000 1.0
C      1  0.5740710000000  0.5829330000000  0.4415150000000 1.0
C      1  0.4359490000000  0.4042140000000  0.5643960000000 1.0
C      1  0.5390910000000  0.4639040000000  0.5055240000000 1.0
C      1  0.4726140000000  0.5748260000000  0.4910690000000 1.0
C      1  0.4637460000000  0.4405390000000  0.5380460000000 1.0
C      1  0.5183150000000  0.4844070000000  0.5126160000000 1.0
C      1  0.5570690000000  0.5693440000000  0.4561200000000 1.0
C      1  0.5184500000000  0.5425090000000  0.4856790000000 1.0
C      1  0.4668180000000  0.4845830000000  0.4594550000000 1.0
END
