TITL C-2848508-1660-543 -0.00634138234566192 125000 -850.928482297439 0 0 159 (C1) n - 1
REM
REM in /home/bkarasulu/work/CARBON/AIRSS/Generating-Clusters/AIREBO/with-SteepDescent/Only-C1/SD-CG-opt/Try1-1.4A-POS3A/HFTN-CG
REM
REM
REM
REM
REM
REM ./C.cell (11c1c37f851c82e70ff6c80c92926a4b)
REM
REM compiler GCC version 9.2.1 20190827 (Red Hat 9.2.1-1)
REM options -cpp -mtune=generic -march=x86-64 -g -O0 -fpre-include=/usr/include/finclude/math-vector-fortran.h
REM seed 1635589564 -900582059 422988296 -724458013 992488530 -334370188 -704458184 -814764992 -383351927 1779645329 -469673022 247976407 1864996808 1200600138 1592121879 2015796793 1383009447 172804787 -1311233348 -376883628 1601523973 1817641724 507949260 629935152 1174600448 138976076 417565910 -1401391735 -471417648 494414306 -1154970030 -896250254 -83692934
REM
CELL 1.54180   50.00000   50.00000   50.00000   90.00000   90.00000   90.00000
LATT -1
SFAC C  
C      1  0.5493310000000  0.4822210000000  0.6012280000000 1.0
C      1  0.4216910000000  0.4760390000000  0.5720440000000 1.0
C      1  0.5700630000000  0.5483670000000  0.5202370000000 1.0
C      1  0.4142080000000  0.5641560000000  0.4909190000000 1.0
C      1  0.4808210000000  0.5131380000000  0.4086550000000 1.0
C      1  0.5299170000000  0.5086950000000  0.5633960000000 1.0
C      1  0.4680510000000  0.4469810000000  0.4737740000000 1.0
C      1  0.5057980000000  0.4302490000000  0.5111470000000 1.0
C      1  0.4318010000000  0.5481100000000  0.4460930000000 1.0
C      1  0.4491540000000  0.5292470000000  0.5808440000000 1.0
C      1  0.4859920000000  0.4640320000000  0.4971170000000 1.0
C      1  0.4591800000000  0.5003530000000  0.5400960000000 1.0
C      1  0.4476030000000  0.4627140000000  0.5766470000000 1.0
C      1  0.5533860000000  0.4612740000000  0.5748690000000 1.0
C      1  0.4424440000000  0.4667870000000  0.4326110000000 1.0
C      1  0.4573660000000  0.5050210000000  0.5897380000000 1.0
C      1  0.4133290000000  0.5050030000000  0.5591710000000 1.0
C      1  0.5317920000000  0.5937460000000  0.4958100000000 1.0
C      1  0.5157400000000  0.3987260000000  0.5336420000000 1.0
C      1  0.4367410000000  0.4479930000000  0.4673640000000 1.0
C      1  0.4833800000000  0.5061140000000  0.6057620000000 1.0
C      1  0.4474010000000  0.5867960000000  0.4993180000000 1.0
C      1  0.4682100000000  0.4757900000000  0.5992080000000 1.0
C      1  0.5790280000000  0.4660870000000  0.5575300000000 1.0
C      1  0.5949950000000  0.4814750000000  0.5217780000000 1.0
C      1  0.4693150000000  0.4711430000000  0.4038780000000 1.0
C      1  0.4095400000000  0.5155760000000  0.5134510000000 1.0
C      1  0.4407740000000  0.5703640000000  0.4702080000000 1.0
C      1  0.4224120000000  0.5527850000000  0.5450000000000 1.0
C      1  0.4408620000000  0.4749660000000  0.5266390000000 1.0
C      1  0.4971740000000  0.5296950000000  0.4295900000000 1.0
C      1  0.4972950000000  0.4765260000000  0.5816090000000 1.0
C      1  0.5173790000000  0.4786820000000  0.5204440000000 1.0
C      1  0.4904490000000  0.4977140000000  0.4981150000000 1.0
C      1  0.5115590000000  0.5441430000000  0.5618920000000 1.0
C      1  0.5012080000000  0.4360490000000  0.4042680000000 1.0
C      1  0.4989250000000  0.5813690000000  0.5793700000000 1.0
C      1  0.5098670000000  0.5673090000000  0.6008170000000 1.0
C      1  0.5367580000000  0.5063300000000  0.5959900000000 1.0
C      1  0.5660320000000  0.5865340000000  0.5590730000000 1.0
C      1  0.4050490000000  0.4833830000000  0.4219840000000 1.0
C      1  0.5168360000000  0.4845500000000  0.4587400000000 1.0
C      1  0.4419960000000  0.5920790000000  0.5249410000000 1.0
C      1  0.3907680000000  0.5027190000000  0.4878230000000 1.0
C      1  0.4536090000000  0.4965650000000  0.4205680000000 1.0
C      1  0.5355610000000  0.5278070000000  0.4847730000000 1.0
C      1  0.5703760000000  0.4373320000000  0.4660380000000 1.0
C      1  0.4815150000000  0.5976630000000  0.5406720000000 1.0
C      1  0.5198070000000  0.5357890000000  0.5223120000000 1.0
C      1  0.5402780000000  0.5557320000000  0.5277680000000 1.0
C      1  0.4732400000000  0.4747950000000  0.5576150000000 1.0
C      1  0.4735760000000  0.5691080000000  0.4930440000000 1.0
C      1  0.4630920000000  0.4299180000000  0.4992530000000 1.0
C      1  0.5601220000000  0.4116500000000  0.4680900000000 1.0
C      1  0.4563140000000  0.5397390000000  0.5296350000000 1.0
C      1  0.5518610000000  0.4944090000000  0.4096190000000 1.0
C      1  0.5959000000000  0.5420500000000  0.5295740000000 1.0
C      1  0.5251780000000  0.5381080000000  0.5924570000000 1.0
C      1  0.4975350000000  0.3872420000000  0.4869920000000 1.0
C      1  0.4858350000000  0.5148870000000  0.5237790000000 1.0
C      1  0.4109170000000  0.4780140000000  0.5407160000000 1.0
C      1  0.4267830000000  0.5358210000000  0.4838020000000 1.0
C      1  0.4961740000000  0.5751160000000  0.4683580000000 1.0
C      1  0.4678950000000  0.4035290000000  0.4807290000000 1.0
C      1  0.4872070000000  0.4025390000000  0.5155470000000 1.0
C      1  0.5552630000000  0.5389660000000  0.5743400000000 1.0
C      1  0.4994190000000  0.5021650000000  0.3909220000000 1.0
C      1  0.4999780000000  0.5699140000000  0.5339220000000 1.0
C      1  0.5296530000000  0.5393180000000  0.4266200000000 1.0
C      1  0.5410700000000  0.5036710000000  0.4623650000000 1.0
C      1  0.5702230000000  0.4881170000000  0.4528920000000 1.0
C      1  0.4376050000000  0.5233810000000  0.5528390000000 1.0
C      1  0.4910930000000  0.4468740000000  0.5840030000000 1.0
C      1  0.5371440000000  0.3999960000000  0.4502370000000 1.0
C      1  0.5581390000000  0.5524620000000  0.4903110000000 1.0
C      1  0.5173950000000  0.5804390000000  0.4444940000000 1.0
C      1  0.5717740000000  0.4495030000000  0.4932780000000 1.0
C      1  0.4140620000000  0.5150290000000  0.4665930000000 1.0
C      1  0.5337190000000  0.4393310000000  0.4992280000000 1.0
C      1  0.5543950000000  0.5193180000000  0.5120650000000 1.0
C      1  0.4921110000000  0.5318570000000  0.5973450000000 1.0
C      1  0.5888850000000  0.5135710000000  0.4927400000000 1.0
C      1  0.4913950000000  0.4600570000000  0.4399600000000 1.0
C      1  0.4794800000000  0.4275390000000  0.4200160000000 1.0
C      1  0.5197140000000  0.5912990000000  0.5643130000000 1.0
C      1  0.4935650000000  0.5080460000000  0.4513340000000 1.0
C      1  0.5463230000000  0.5150540000000  0.4332290000000 1.0
C      1  0.4839550000000  0.5372510000000  0.5493210000000 1.0
C      1  0.5917080000000  0.4881910000000  0.4751530000000 1.0
C      1  0.4766300000000  0.4847840000000  0.4425410000000 1.0
C      1  0.4671540000000  0.5811120000000  0.4516240000000 1.0
C      1  0.4627430000000  0.4219770000000  0.5548070000000 1.0
C      1  0.5761390000000  0.5375350000000  0.4473780000000 1.0
C      1  0.4593090000000  0.5435890000000  0.4799920000000 1.0
C      1  0.4425180000000  0.5200250000000  0.5074040000000 1.0
C      1  0.4435320000000  0.5734280000000  0.5467750000000 1.0
C      1  0.4223740000000  0.4952130000000  0.4072000000000 1.0
C      1  0.4701270000000  0.5486840000000  0.5847740000000 1.0
C      1  0.6022880000000  0.5140250000000  0.5239940000000 1.0
C      1  0.5269230000000  0.3934080000000  0.4794230000000 1.0
C      1  0.5055420000000  0.5432610000000  0.4804720000000 1.0
C      1  0.5171810000000  0.5073290000000  0.5345060000000 1.0
C      1  0.5414930000000  0.4323140000000  0.5670260000000 1.0
C      1  0.5528550000000  0.5219740000000  0.5448670000000 1.0
C      1  0.4571040000000  0.4136200000000  0.5268270000000 1.0
C      1  0.5805630000000  0.5194550000000  0.5627010000000 1.0
C      1  0.4208200000000  0.4584300000000  0.4955640000000 1.0
C      1  0.5134790000000  0.4569820000000  0.4783710000000 1.0
C      1  0.5670160000000  0.4565680000000  0.4422960000000 1.0
C      1  0.4880560000000  0.4372950000000  0.5550630000000 1.0
C      1  0.5461330000000  0.4141490000000  0.5383320000000 1.0
C      1  0.5275630000000  0.4621250000000  0.5443660000000 1.0
C      1  0.4414870000000  0.5154730000000  0.4464930000000 1.0
C      1  0.5723580000000  0.4741100000000  0.4155280000000 1.0
C      1  0.4148780000000  0.4704170000000  0.4484710000000 1.0
C      1  0.4298090000000  0.4354650000000  0.4365290000000 1.0
C      1  0.5490720000000  0.5789420000000  0.4800410000000 1.0
C      1  0.4831420000000  0.4313280000000  0.4505370000000 1.0
C      1  0.5125630000000  0.5653900000000  0.4210310000000 1.0
C      1  0.5957870000000  0.4946770000000  0.5515590000000 1.0
C      1  0.4508660000000  0.5045800000000  0.4782540000000 1.0
C      1  0.4458370000000  0.4319470000000  0.5740030000000 1.0
C      1  0.4236190000000  0.4845130000000  0.4748610000000 1.0
C      1  0.5053970000000  0.6024810000000  0.4863110000000 1.0
C      1  0.5430880000000  0.6017760000000  0.5473220000000 1.0
C      1  0.5279200000000  0.4287900000000  0.4105760000000 1.0
C      1  0.5798030000000  0.5362400000000  0.4749570000000 1.0
C      1  0.4851630000000  0.5579850000000  0.4148630000000 1.0
C      1  0.5290220000000  0.5851240000000  0.5246120000000 1.0
C      1  0.4936010000000  0.6009370000000  0.5123400000000 1.0
C      1  0.5249470000000  0.4295880000000  0.4617170000000 1.0
C      1  0.5171920000000  0.4313210000000  0.5432370000000 1.0
C      1  0.4107500000000  0.5475620000000  0.5184500000000 1.0
C      1  0.4379450000000  0.5610360000000  0.4220700000000 1.0
C      1  0.5961200000000  0.4667900000000  0.4944230000000 1.0
C      1  0.4051430000000  0.4820420000000  0.5101020000000 1.0
C      1  0.5466360000000  0.4678460000000  0.5071610000000 1.0
C      1  0.5670560000000  0.4912490000000  0.5064870000000 1.0
C      1  0.4900070000000  0.4612030000000  0.5309090000000 1.0
C      1  0.5233290000000  0.4826460000000  0.4051400000000 1.0
C      1  0.4754850000000  0.5690320000000  0.5580320000000 1.0
C      1  0.4974010000000  0.4203970000000  0.4794080000000 1.0
C      1  0.5851210000000  0.4441280000000  0.5412700000000 1.0
C      1  0.4533490000000  0.4424590000000  0.4127560000000 1.0
C      1  0.5391220000000  0.5638690000000  0.5591080000000 1.0
C      1  0.4911270000000  0.5462660000000  0.5111240000000 1.0
C      1  0.5553020000000  0.5544620000000  0.4391950000000 1.0
C      1  0.5481690000000  0.4096020000000  0.4987910000000 1.0
C      1  0.5199010000000  0.4664750000000  0.4319910000000 1.0
C      1  0.5677320000000  0.4287400000000  0.5189810000000 1.0
C      1  0.4639210000000  0.5724320000000  0.4247240000000 1.0
C      1  0.5391970000000  0.4432140000000  0.4366840000000 1.0
C      1  0.5243990000000  0.4784550000000  0.5703010000000 1.0
C      1  0.4968470000000  0.4631850000000  0.3974380000000 1.0
C      1  0.4814420000000  0.5194870000000  0.4771200000000 1.0
C      1  0.5445190000000  0.5775570000000  0.4525000000000 1.0
C      1  0.4402010000000  0.4424730000000  0.5164960000000 1.0
C      1  0.4555670000000  0.4778940000000  0.4987940000000 1.0
C      1  0.5786550000000  0.5109350000000  0.4293180000000 1.0
END
