TITL C-2848499-1157-25 0.000531310207510887 125000 -521.568406066816 0 0 92 (C1) n - 1
REM
REM in /home/bkarasulu/work/CARBON/AIRSS/Generating-Clusters/AIREBO/with-SteepDescent/Only-C1/SD-CG-opt/Try1-1.4A-POS3A/HFTN-CG
REM
REM
REM
REM
REM
REM ./C.cell (11c1c37f851c82e70ff6c80c92926a4b)
REM
REM compiler GCC version 9.2.1 20190827 (Red Hat 9.2.1-1)
REM options -cpp -mtune=generic -march=x86-64 -g -O0 -fpre-include=/usr/include/finclude/math-vector-fortran.h
REM seed -829878504 -880097017 761704450 1586934830 -1326530707 -532793778 -1798130970 103876327 881942938 640602576 1498398775 346865682 -1140915825 1880338807 -2028189541 1115124165 -259956830 1420417825 -592098493 -1856668858 -2011612628 -1316722497 1322378039 401215511 499436065 -2077087675 1373944601 -2014657406 360756301 -863371851 2134507098 -226600052 -1377936405
REM
CELL 1.54180   50.00000   50.00000   50.00000   90.00000   90.00000   90.00000
LATT -1
SFAC C  
C      1  0.5261090000000  0.4210220000000  0.5149260000000 1.0
C      1  0.5141650000000  0.5243980000000  0.5354920000000 1.0
C      1  0.5001770000000  0.5144020000000  0.5915500000000 1.0
C      1  0.5138670000000  0.4969770000000  0.4490090000000 1.0
C      1  0.5675150000000  0.4536040000000  0.4600240000000 1.0
C      1  0.5646000000000  0.4660400000000  0.5465940000000 1.0
C      1  0.5277900000000  0.4883340000000  0.4761450000000 1.0
C      1  0.5471810000000  0.5096140000000  0.4861900000000 1.0
C      1  0.4216950000000  0.4658140000000  0.4478490000000 1.0
C      1  0.4436040000000  0.4972450000000  0.5550270000000 1.0
C      1  0.4769780000000  0.4572540000000  0.4699260000000 1.0
C      1  0.5037400000000  0.4438250000000  0.4822470000000 1.0
C      1  0.5793510000000  0.4825180000000  0.5032250000000 1.0
C      1  0.4563330000000  0.4966780000000  0.4202400000000 1.0
C      1  0.5384850000000  0.4541150000000  0.5537470000000 1.0
C      1  0.4661900000000  0.5629070000000  0.4610870000000 1.0
C      1  0.5052380000000  0.4670600000000  0.5182700000000 1.0
C      1  0.4299270000000  0.5192400000000  0.5337780000000 1.0
C      1  0.4503600000000  0.5473700000000  0.4816050000000 1.0
C      1  0.4535170000000  0.5401680000000  0.5431390000000 1.0
C      1  0.4481250000000  0.5121280000000  0.5810230000000 1.0
C      1  0.4820050000000  0.5740580000000  0.5203960000000 1.0
C      1  0.4764890000000  0.4893020000000  0.4683920000000 1.0
C      1  0.5225630000000  0.4748290000000  0.5646590000000 1.0
C      1  0.4859260000000  0.3935890000000  0.4987360000000 1.0
C      1  0.5459030000000  0.5288730000000  0.4412650000000 1.0
C      1  0.5219780000000  0.4942830000000  0.5298300000000 1.0
C      1  0.5076060000000  0.5203580000000  0.4963600000000 1.0
C      1  0.4537700000000  0.5214060000000  0.4370420000000 1.0
C      1  0.5250290000000  0.4430630000000  0.5320300000000 1.0
C      1  0.4679170000000  0.5236990000000  0.4975390000000 1.0
C      1  0.4925030000000  0.4751940000000  0.5487460000000 1.0
C      1  0.4538670000000  0.4325080000000  0.4668270000000 1.0
C      1  0.4601280000000  0.4913510000000  0.5046610000000 1.0
C      1  0.4636400000000  0.4466140000000  0.5384410000000 1.0
C      1  0.5373640000000  0.5250830000000  0.5105970000000 1.0
C      1  0.4532030000000  0.5654610000000  0.5268360000000 1.0
C      1  0.4516160000000  0.5116710000000  0.4636290000000 1.0
C      1  0.5594420000000  0.5000520000000  0.5422860000000 1.0
C      1  0.5495110000000  0.4778590000000  0.5184980000000 1.0
C      1  0.4819470000000  0.4424520000000  0.5190430000000 1.0
C      1  0.4331910000000  0.4562350000000  0.4722270000000 1.0
C      1  0.4750980000000  0.5450310000000  0.4348660000000 1.0
C      1  0.4863310000000  0.5809120000000  0.4713080000000 1.0
C      1  0.5482410000000  0.4199500000000  0.4970860000000 1.0
C      1  0.4894030000000  0.5439940000000  0.5111840000000 1.0
C      1  0.4591600000000  0.4537590000000  0.4410360000000 1.0
C      1  0.4822130000000  0.5924240000000  0.4955910000000 1.0
C      1  0.5357000000000  0.5807620000000  0.4915920000000 1.0
C      1  0.5177200000000  0.5754710000000  0.4644370000000 1.0
C      1  0.5229450000000  0.5209260000000  0.5761160000000 1.0
C      1  0.4754630000000  0.5273170000000  0.5902250000000 1.0
C      1  0.4971640000000  0.4181540000000  0.5035560000000 1.0
C      1  0.4708150000000  0.4946870000000  0.5365210000000 1.0
C      1  0.5527950000000  0.4439870000000  0.4818670000000 1.0
C      1  0.5370050000000  0.4991620000000  0.5664590000000 1.0
C      1  0.4866220000000  0.4689460000000  0.5805130000000 1.0
C      1  0.5578720000000  0.4770420000000  0.4466770000000 1.0
C      1  0.4468190000000  0.4652120000000  0.5488930000000 1.0
C      1  0.4847720000000  0.4962980000000  0.4361260000000 1.0
C      1  0.5157310000000  0.5252310000000  0.4670900000000 1.0
C      1  0.5416270000000  0.5676950000000  0.5144790000000 1.0
C      1  0.5474650000000  0.5534690000000  0.5368080000000 1.0
C      1  0.4982510000000  0.4158660000000  0.4636820000000 1.0
C      1  0.4810150000000  0.5241890000000  0.5364150000000 1.0
C      1  0.5250830000000  0.5460700000000  0.5575290000000 1.0
C      1  0.5909170000000  0.4423250000000  0.4526790000000 1.0
C      1  0.4720980000000  0.4077750000000  0.4640010000000 1.0
C      1  0.4985140000000  0.5232670000000  0.4232790000000 1.0
C      1  0.5253360000000  0.5274720000000  0.4232170000000 1.0
C      1  0.4376920000000  0.5653680000000  0.5038900000000 1.0
C      1  0.5325210000000  0.4751150000000  0.4362030000000 1.0
C      1  0.4308560000000  0.5213700000000  0.4835790000000 1.0
C      1  0.5757770000000  0.5337610000000  0.5001480000000 1.0
C      1  0.4975100000000  0.4868520000000  0.5986220000000 1.0
C      1  0.5088990000000  0.5712170000000  0.5630300000000 1.0
C      1  0.5639000000000  0.5532830000000  0.4845620000000 1.0
C      1  0.4930730000000  0.4915180000000  0.4979940000000 1.0
C      1  0.5396320000000  0.5494800000000  0.4657440000000 1.0
C      1  0.4204460000000  0.5120790000000  0.5083990000000 1.0
C      1  0.5290410000000  0.4632480000000  0.4942690000000 1.0
C      1  0.5810520000000  0.5074770000000  0.4839400000000 1.0
C      1  0.5623600000000  0.5052700000000  0.4562770000000 1.0
C      1  0.4974770000000  0.5838140000000  0.5447590000000 1.0
C      1  0.5024630000000  0.5496610000000  0.4525760000000 1.0
C      1  0.5648780000000  0.5282600000000  0.5300660000000 1.0
C      1  0.4368660000000  0.4714180000000  0.4950700000000 1.0
C      1  0.5114180000000  0.4333360000000  0.4444510000000 1.0
C      1  0.5225940000000  0.4506930000000  0.4271240000000 1.0
C      1  0.4421800000000  0.4732350000000  0.4269420000000 1.0
C      1  0.4529210000000  0.5430210000000  0.5738990000000 1.0
C      1  0.4137300000000  0.4844770000000  0.5060930000000 1.0
END
