TITL C-2847951-7423-157 0.00104763193435215 125000 -910.011283044907 0 0 173 (C1) n - 1
REM
REM in /home/bkarasulu/work/CARBON/AIRSS/Generating-Clusters/AIREBO/with-SteepDescent/Only-C1/SD-CG-opt/Try1-1.4A-POS3A/HFTN-CG
REM
REM
REM
REM
REM
REM ./C.cell (11c1c37f851c82e70ff6c80c92926a4b)
REM
REM compiler GCC version 9.2.1 20190827 (Red Hat 9.2.1-1)
REM options -cpp -mtune=generic -march=x86-64 -g -O0 -fpre-include=/usr/include/finclude/math-vector-fortran.h
REM seed -916489491 1942910979 -1855767013 665251536 1892466559 -693913249 1552407229 -616089796 1291633808 417365755 -905350716 869401048 352102763 -939093933 -813329599 1236923199 4143424 591452776 563771048 268654815 1879162423 -1317201332 1165262455 1775763751 -2109043556 -349274358 1130777419 -1897268310 1171745873 -759444458 1218464120 556308530 485542961
REM
CELL 1.54180   50.00000   50.00000   50.00000   90.00000   90.00000   90.00000
LATT -1
SFAC C  
C      1  0.3964260000000  0.4831760000000  0.5074240000000 1.0
C      1  0.5408410000000  0.6116370000000  0.5158400000000 1.0
C      1  0.5444770000000  0.5807660000000  0.5289040000000 1.0
C      1  0.4679510000000  0.5603920000000  0.4235100000000 1.0
C      1  0.5137310000000  0.5183700000000  0.5503940000000 1.0
C      1  0.4820910000000  0.4189330000000  0.4934390000000 1.0
C      1  0.5122750000000  0.5583960000000  0.4044800000000 1.0
C      1  0.4873580000000  0.5323920000000  0.5666950000000 1.0
C      1  0.4913010000000  0.4387210000000  0.5943600000000 1.0
C      1  0.5302940000000  0.4593210000000  0.5518680000000 1.0
C      1  0.5669050000000  0.4759510000000  0.4579440000000 1.0
C      1  0.4529890000000  0.5534390000000  0.5201510000000 1.0
C      1  0.5654640000000  0.5245070000000  0.5336640000000 1.0
C      1  0.4899490000000  0.6172370000000  0.4916150000000 1.0
C      1  0.4983980000000  0.4196970000000  0.5600380000000 1.0
C      1  0.4232340000000  0.6041190000000  0.4931590000000 1.0
C      1  0.4336870000000  0.5314570000000  0.4490680000000 1.0
C      1  0.5405140000000  0.4118400000000  0.5405610000000 1.0
C      1  0.5562920000000  0.4860900000000  0.5381070000000 1.0
C      1  0.5124150000000  0.4949590000000  0.4055020000000 1.0
C      1  0.4382580000000  0.4980880000000  0.4443510000000 1.0
C      1  0.4095170000000  0.5034470000000  0.4757020000000 1.0
C      1  0.4251480000000  0.4691060000000  0.4323430000000 1.0
C      1  0.5377460000000  0.5316010000000  0.4834280000000 1.0
C      1  0.5352180000000  0.5417380000000  0.5969310000000 1.0
C      1  0.5270940000000  0.4149310000000  0.4286160000000 1.0
C      1  0.5285380000000  0.5917490000000  0.5568820000000 1.0
C      1  0.5403870000000  0.5330820000000  0.4207280000000 1.0
C      1  0.5349830000000  0.4010080000000  0.4894480000000 1.0
C      1  0.5029180000000  0.4401840000000  0.5079540000000 1.0
C      1  0.5628210000000  0.5300800000000  0.4605140000000 1.0
C      1  0.5220500000000  0.4129490000000  0.4621870000000 1.0
C      1  0.4664960000000  0.5914220000000  0.5420090000000 1.0
C      1  0.5792880000000  0.5509460000000  0.5171440000000 1.0
C      1  0.4392010000000  0.5802520000000  0.5044100000000 1.0
C      1  0.4496190000000  0.5232970000000  0.5182470000000 1.0
C      1  0.4323430000000  0.4417440000000  0.5660720000000 1.0
C      1  0.4585360000000  0.5189910000000  0.5792290000000 1.0
C      1  0.5834920000000  0.4465010000000  0.4540630000000 1.0
C      1  0.5395680000000  0.5402780000000  0.5474110000000 1.0
C      1  0.4361430000000  0.5074810000000  0.5582920000000 1.0
C      1  0.4594920000000  0.5206000000000  0.3982220000000 1.0
C      1  0.5918740000000  0.5039780000000  0.5020220000000 1.0
C      1  0.5614330000000  0.5777080000000  0.4882810000000 1.0
C      1  0.5849060000000  0.4805480000000  0.5554490000000 1.0
C      1  0.5911910000000  0.5782130000000  0.5143430000000 1.0
C      1  0.4214900000000  0.5216480000000  0.4992040000000 1.0
C      1  0.4368870000000  0.4023850000000  0.5093290000000 1.0
C      1  0.5547380000000  0.4900500000000  0.4298150000000 1.0
C      1  0.4760810000000  0.5651120000000  0.5031230000000 1.0
C      1  0.5220670000000  0.4684050000000  0.4675160000000 1.0
C      1  0.5528620000000  0.5031270000000  0.5099130000000 1.0
C      1  0.4106240000000  0.4644360000000  0.4843690000000 1.0
C      1  0.5281540000000  0.4813140000000  0.5102240000000 1.0
C      1  0.4173990000000  0.5562430000000  0.5449940000000 1.0
C      1  0.5212780000000  0.4315190000000  0.5799700000000 1.0
C      1  0.3973190000000  0.4438170000000  0.5313110000000 1.0
C      1  0.5308950000000  0.4424110000000  0.4220390000000 1.0
C      1  0.4432090000000  0.5560280000000  0.4338010000000 1.0
C      1  0.4854980000000  0.4898290000000  0.5802930000000 1.0
C      1  0.5097160000000  0.3967850000000  0.5401980000000 1.0
C      1  0.4730370000000  0.3888510000000  0.4575630000000 1.0
C      1  0.5458020000000  0.4262930000000  0.5678350000000 1.0
C      1  0.5469100000000  0.5545700000000  0.5073270000000 1.0
C      1  0.4825290000000  0.5472440000000  0.4821860000000 1.0
C      1  0.4042420000000  0.5177240000000  0.4517410000000 1.0
C      1  0.5479660000000  0.4343510000000  0.4673640000000 1.0
C      1  0.4064370000000  0.5595580000000  0.4706190000000 1.0
C      1  0.5220800000000  0.4947440000000  0.4381150000000 1.0
C      1  0.4433290000000  0.4507960000000  0.4242680000000 1.0
C      1  0.4625110000000  0.4960370000000  0.6040700000000 1.0
C      1  0.4910910000000  0.5135880000000  0.6036480000000 1.0
C      1  0.4584290000000  0.4352420000000  0.4463430000000 1.0
C      1  0.4097090000000  0.4562850000000  0.5519460000000 1.0
C      1  0.5048050000000  0.5380970000000  0.6022120000000 1.0
C      1  0.5928280000000  0.4673200000000  0.4866680000000 1.0
C      1  0.5597860000000  0.4812640000000  0.4009240000000 1.0
C      1  0.5371910000000  0.4983610000000  0.5586820000000 1.0
C      1  0.4658790000000  0.4030620000000  0.5139600000000 1.0
C      1  0.4877520000000  0.5594410000000  0.5873120000000 1.0
C      1  0.5105110000000  0.5382860000000  0.4674730000000 1.0
C      1  0.4987240000000  0.4504120000000  0.5530960000000 1.0
C      1  0.5134630000000  0.4605630000000  0.4037220000000 1.0
C      1  0.4526880000000  0.4269930000000  0.5431660000000 1.0
C      1  0.4863030000000  0.4694330000000  0.5027010000000 1.0
C      1  0.4562800000000  0.5522120000000  0.5815670000000 1.0
C      1  0.4694690000000  0.4969670000000  0.4436560000000 1.0
C      1  0.5943670000000  0.5067300000000  0.5359190000000 1.0
C      1  0.4795690000000  0.4645310000000  0.5355190000000 1.0
C      1  0.4498570000000  0.4664470000000  0.5238950000000 1.0
C      1  0.4510030000000  0.4672480000000  0.5769990000000 1.0
C      1  0.4874090000000  0.5807780000000  0.4361240000000 1.0
C      1  0.4991440000000  0.5857320000000  0.5728770000000 1.0
C      1  0.4570820000000  0.4382510000000  0.4808880000000 1.0
C      1  0.5259090000000  0.5640820000000  0.5764810000000 1.0
C      1  0.5566850000000  0.5791680000000  0.4561630000000 1.0
C      1  0.5857680000000  0.4517110000000  0.5386320000000 1.0
C      1  0.5725950000000  0.5214830000000  0.5667760000000 1.0
C      1  0.4687200000000  0.5976960000000  0.5085960000000 1.0
C      1  0.4867180000000  0.4498350000000  0.4108400000000 1.0
C      1  0.5029480000000  0.5775430000000  0.5130460000000 1.0
C      1  0.5072730000000  0.5268470000000  0.4161510000000 1.0
C      1  0.5488570000000  0.4842430000000  0.6065400000000 1.0
C      1  0.4132180000000  0.5288520000000  0.5499950000000 1.0
C      1  0.4682400000000  0.4697170000000  0.4743480000000 1.0
C      1  0.4994550000000  0.5950010000000  0.5395660000000 1.0
C      1  0.5642370000000  0.4059030000000  0.4901110000000 1.0
C      1  0.4876730000000  0.4966930000000  0.3833590000000 1.0
C      1  0.5674010000000  0.4484740000000  0.4904890000000 1.0
C      1  0.4768370000000  0.5391070000000  0.4075700000000 1.0
C      1  0.4640570000000  0.4885460000000  0.5539330000000 1.0
C      1  0.4118060000000  0.4435470000000  0.5085320000000 1.0
C      1  0.4948320000000  0.4823010000000  0.4562410000000 1.0
C      1  0.5806870000000  0.4752080000000  0.5162350000000 1.0
C      1  0.5402280000000  0.5028250000000  0.3875920000000 1.0
C      1  0.5878830000000  0.4249040000000  0.5281590000000 1.0
C      1  0.5662980000000  0.5021730000000  0.4796500000000 1.0
C      1  0.4362350000000  0.5036230000000  0.4108650000000 1.0
C      1  0.4589210000000  0.4861990000000  0.3935310000000 1.0
C      1  0.5029830000000  0.4979190000000  0.4945050000000 1.0
C      1  0.4079100000000  0.4357210000000  0.4696270000000 1.0
C      1  0.5202780000000  0.6208830000000  0.4960910000000 1.0
C      1  0.6033690000000  0.5367760000000  0.5365300000000 1.0
C      1  0.5779770000000  0.4191120000000  0.4658380000000 1.0
C      1  0.5110890000000  0.5845860000000  0.4831380000000 1.0
C      1  0.5262970000000  0.5019650000000  0.4711350000000 1.0
C      1  0.4111680000000  0.5053230000000  0.5271930000000 1.0
C      1  0.5807610000000  0.5574200000000  0.4698360000000 1.0
C      1  0.4478600000000  0.5282830000000  0.4787450000000 1.0
C      1  0.4041450000000  0.5479590000000  0.4988560000000 1.0
C      1  0.5629550000000  0.5477630000000  0.5788050000000 1.0
C      1  0.4763880000000  0.4032590000000  0.5429040000000 1.0
C      1  0.4458880000000  0.4913400000000  0.5070630000000 1.0
C      1  0.4928400000000  0.4017700000000  0.4708820000000 1.0
C      1  0.5037030000000  0.4672180000000  0.5805660000000 1.0
C      1  0.4120510000000  0.5661650000000  0.5192740000000 1.0
C      1  0.4470700000000  0.5651740000000  0.5515140000000 1.0
C      1  0.5018780000000  0.5173690000000  0.5202940000000 1.0
C      1  0.4301840000000  0.4204530000000  0.4701000000000 1.0
C      1  0.5989190000000  0.4872680000000  0.4598020000000 1.0
C      1  0.5625810000000  0.4545410000000  0.5615420000000 1.0
C      1  0.4612360000000  0.4582220000000  0.4036890000000 1.0
C      1  0.5426030000000  0.5523540000000  0.4446300000000 1.0
C      1  0.5211440000000  0.5735010000000  0.4288090000000 1.0
C      1  0.4742330000000  0.5108640000000  0.5330690000000 1.0
C      1  0.4883080000000  0.6000870000000  0.4642050000000 1.0
C      1  0.5202120000000  0.4113940000000  0.5132850000000 1.0
C      1  0.5336750000000  0.4753680000000  0.5816720000000 1.0
C      1  0.4503680000000  0.4044470000000  0.4521420000000 1.0
C      1  0.4863490000000  0.4404070000000  0.4367590000000 1.0
C      1  0.4371420000000  0.4836210000000  0.4751240000000 1.0
C      1  0.5388680000000  0.5987150000000  0.4781140000000 1.0
C      1  0.4805550000000  0.5602170000000  0.5483140000000 1.0
C      1  0.4793450000000  0.5153810000000  0.4771890000000 1.0
C      1  0.5486170000000  0.5118420000000  0.5877740000000 1.0
C      1  0.5566040000000  0.4276560000000  0.5151120000000 1.0
C      1  0.5352210000000  0.4706540000000  0.3834890000000 1.0
C      1  0.4269900000000  0.4795810000000  0.5419030000000 1.0
C      1  0.5082020000000  0.5666570000000  0.4586260000000 1.0
C      1  0.5322210000000  0.4508060000000  0.5204530000000 1.0
C      1  0.4358160000000  0.5596660000000  0.4775580000000 1.0
C      1  0.5593790000000  0.5667160000000  0.5554890000000 1.0
C      1  0.4688810000000  0.4625600000000  0.6041600000000 1.0
C      1  0.4651840000000  0.4369920000000  0.5737440000000 1.0
C      1  0.5062670000000  0.4419520000000  0.4559140000000 1.0
C      1  0.5662050000000  0.5246970000000  0.4141130000000 1.0
C      1  0.4429820000000  0.4357590000000  0.5117560000000 1.0
C      1  0.5807430000000  0.5091070000000  0.4406270000000 1.0
C      1  0.5423400000000  0.4557380000000  0.4459280000000 1.0
C      1  0.5107980000000  0.5577160000000  0.5468390000000 1.0
C      1  0.4931150000000  0.5208470000000  0.4465030000000 1.0
C      1  0.5882420000000  0.5335980000000  0.4910500000000 1.0
C      1  0.5151320000000  0.5470830000000  0.5168370000000 1.0
END
