TITL C-2848509-3138-12 -0.0004805170813353 125000 -217.200193743622 0 0 39 (C1) n - 1
REM
REM in /home/bkarasulu/work/CARBON/AIRSS/Generating-Clusters/AIREBO/with-SteepDescent/Only-C1/SD-CG-opt/Try1-1.4A-POS3A/HFTN-CG
REM
REM
REM
REM
REM
REM ./C.cell (11c1c37f851c82e70ff6c80c92926a4b)
REM
REM compiler GCC version 9.2.1 20190827 (Red Hat 9.2.1-1)
REM options -cpp -mtune=generic -march=x86-64 -g -O0 -fpre-include=/usr/include/finclude/math-vector-fortran.h
REM seed 1450808297 -1326283511 -1552244562 -375393809 -1811849336 -1619282204 863390201 1559995866 1889164059 829901274 1490823204 -116272888 -1378719400 1745875180 -934930676 -423935510 -449816578 -714341983 1339437888 -1168734143 2086233841 -2090994533 837881701 -1902823790 1288953661 -1872995960 -2140956287 574420999 789390956 357221627 -857015819 1158183311 183652775
REM
CELL 1.54180   50.00000   50.00000   50.00000   90.00000   90.00000   90.00000
LATT -1
SFAC C  
C      1  0.4574040000000  0.5511130000000  0.4918240000000 1.0
C      1  0.4861070000000  0.4104370000000  0.4807080000000 1.0
C      1  0.4662030000000  0.4647150000000  0.4957150000000 1.0
C      1  0.5050810000000  0.5073380000000  0.4504560000000 1.0
C      1  0.5148520000000  0.5196900000000  0.5000160000000 1.0
C      1  0.4801160000000  0.5438090000000  0.4765280000000 1.0
C      1  0.5800170000000  0.5073870000000  0.5045740000000 1.0
C      1  0.5041510000000  0.5552840000000  0.4855410000000 1.0
C      1  0.4537870000000  0.4934620000000  0.5362870000000 1.0
C      1  0.5191860000000  0.4786640000000  0.4527490000000 1.0
C      1  0.5069910000000  0.4090010000000  0.4624750000000 1.0
C      1  0.4735970000000  0.4471460000000  0.5389130000000 1.0
C      1  0.4755790000000  0.4736820000000  0.5244220000000 1.0
C      1  0.4762340000000  0.4563050000000  0.4621220000000 1.0
C      1  0.5535550000000  0.5237340000000  0.4917820000000 1.0
C      1  0.5127280000000  0.4300690000000  0.4452760000000 1.0
C      1  0.4291820000000  0.4830920000000  0.5425600000000 1.0
C      1  0.4779120000000  0.5218690000000  0.4593170000000 1.0
C      1  0.4546240000000  0.5462000000000  0.5189940000000 1.0
C      1  0.4598950000000  0.5199750000000  0.5363380000000 1.0
C      1  0.5034530000000  0.4562600000000  0.4503160000000 1.0
C      1  0.5609390000000  0.4926330000000  0.4822050000000 1.0
C      1  0.4555810000000  0.5048710000000  0.4583840000000 1.0
C      1  0.4734710000000  0.4334390000000  0.4857380000000 1.0
C      1  0.5217950000000  0.4811640000000  0.5935980000000 1.0
C      1  0.4777110000000  0.5468460000000  0.5417150000000 1.0
C      1  0.5482330000000  0.5384630000000  0.5434770000000 1.0
C      1  0.5110210000000  0.4839400000000  0.5698690000000 1.0
C      1  0.5268050000000  0.5545860000000  0.5486540000000 1.0
C      1  0.5267420000000  0.5306310000000  0.4486540000000 1.0
C      1  0.5038210000000  0.5699180000000  0.5095420000000 1.0
C      1  0.5015280000000  0.4844550000000  0.5460570000000 1.0
C      1  0.5019540000000  0.4995350000000  0.4819990000000 1.0
C      1  0.5314510000000  0.5403920000000  0.4787980000000 1.0
C      1  0.5637520000000  0.5286850000000  0.5232890000000 1.0
C      1  0.5028340000000  0.4909020000000  0.5135790000000 1.0
C      1  0.5452890000000  0.4805820000000  0.4631080000000 1.0
C      1  0.4542810000000  0.4802630000000  0.4684840000000 1.0
C      1  0.5021400000000  0.5594630000000  0.5359380000000 1.0
END
