TITL C-2847957-7266-291 -7.86202305385007e-05 125000 -147.994846511868 0 0 27 (C1) n - 1
REM
REM in /home/bkarasulu/work/CARBON/AIRSS/Generating-Clusters/AIREBO/with-SteepDescent/Only-C1/SD-CG-opt/Try1-1.4A-POS3A/HFTN-CG
REM
REM
REM
REM
REM
REM ./C.cell (11c1c37f851c82e70ff6c80c92926a4b)
REM
REM compiler GCC version 9.2.1 20190827 (Red Hat 9.2.1-1)
REM options -cpp -mtune=generic -march=x86-64 -g -O0 -fpre-include=/usr/include/finclude/math-vector-fortran.h
REM seed -513947408 -1189560567 340948025 576374409 -246934468 203972548 -1314848869 552417406 851310264 369325145 1652125353 -1518685961 -499665165 336629537 -1407033455 -1621123054 237673888 1639009028 99262807 1318049084 -1554898105 2097502903 -596181728 -722534747 1016968155 1115310994 1687017059 -547176284 -1832213015 1851530640 831184434 -1295405338 -1783977726
REM
CELL 1.54180   50.00000   50.00000   50.00000   90.00000   90.00000   90.00000
LATT -1
SFAC C  
C      1  0.5374390000000  0.5455810000000  0.5042080000000 1.0
C      1  0.4284700000000  0.5127890000000  0.5342280000000 1.0
C      1  0.5245990000000  0.4685850000000  0.4910160000000 1.0
C      1  0.4952890000000  0.4776280000000  0.4814570000000 1.0
C      1  0.5088450000000  0.4373050000000  0.5326110000000 1.0
C      1  0.5275490000000  0.4565750000000  0.5147360000000 1.0
C      1  0.5344580000000  0.4802750000000  0.4451350000000 1.0
C      1  0.5444870000000  0.4797270000000  0.4739380000000 1.0
C      1  0.5025520000000  0.5636380000000  0.5354870000000 1.0
C      1  0.4926800000000  0.5602870000000  0.4851450000000 1.0
C      1  0.5125180000000  0.5643570000000  0.5049560000000 1.0
C      1  0.4752870000000  0.5383350000000  0.4830350000000 1.0
C      1  0.4891720000000  0.5091480000000  0.4879600000000 1.0
C      1  0.4479250000000  0.4398120000000  0.4799370000000 1.0
C      1  0.4663440000000  0.4388280000000  0.5064560000000 1.0
C      1  0.5567290000000  0.5042090000000  0.4822670000000 1.0
C      1  0.5259780000000  0.5390720000000  0.5326360000000 1.0
C      1  0.4745280000000  0.4580210000000  0.4824170000000 1.0
C      1  0.4818440000000  0.4352880000000  0.5286910000000 1.0
C      1  0.4772460000000  0.5173670000000  0.5170170000000 1.0
C      1  0.5108880000000  0.4944090000000  0.4580230000000 1.0
C      1  0.4489230000000  0.5374410000000  0.4935070000000 1.0
C      1  0.4476780000000  0.5208280000000  0.5178530000000 1.0
C      1  0.5393120000000  0.5265840000000  0.4836930000000 1.0
C      1  0.5399820000000  0.4407030000000  0.5402040000000 1.0
C      1  0.5151150000000  0.5216970000000  0.4699150000000 1.0
C      1  0.4941630000000  0.5315120000000  0.5334690000000 1.0
END
