TITL C-2847955-7945-79 -0.000592581734297607 125000 -397.146087091626 0 0 72 (C1) n - 1
REM
REM in /home/bkarasulu/work/CARBON/AIRSS/Generating-Clusters/AIREBO/with-SteepDescent/Only-C1/SD-CG-opt/Try1-1.4A-POS3A/HFTN-CG
REM
REM
REM
REM
REM
REM ./C.cell (11c1c37f851c82e70ff6c80c92926a4b)
REM
REM compiler GCC version 9.2.1 20190827 (Red Hat 9.2.1-1)
REM options -cpp -mtune=generic -march=x86-64 -g -O0 -fpre-include=/usr/include/finclude/math-vector-fortran.h
REM seed 863457156 1985013968 224888865 -139645357 849349428 -2077636515 639484426 -1562452152 1156780663 -1084047546 185174084 1547020515 83076094 312472256 383810987 -1174756701 1595278873 1020552977 -331201685 1853031611 22951832 290482411 320948817 -531791679 356416004 -235759264 -864680053 1846324247 1501423197 384656602 1281586911 -434429138 737518001
REM
CELL 1.54180   50.00000   50.00000   50.00000   90.00000   90.00000   90.00000
LATT -1
SFAC C  
C      1  0.4560020000000  0.4525120000000  0.4631200000000 1.0
C      1  0.4942510000000  0.4603800000000  0.4206780000000 1.0
C      1  0.5464460000000  0.4620320000000  0.4666330000000 1.0
C      1  0.5147890000000  0.5377990000000  0.5139410000000 1.0
C      1  0.5160460000000  0.4326000000000  0.4895980000000 1.0
C      1  0.4739460000000  0.4326430000000  0.5096890000000 1.0
C      1  0.5710070000000  0.5004050000000  0.4873220000000 1.0
C      1  0.4741670000000  0.5236600000000  0.4262190000000 1.0
C      1  0.4928950000000  0.5184830000000  0.4707310000000 1.0
C      1  0.4750940000000  0.5613360000000  0.5000710000000 1.0
C      1  0.4841690000000  0.4596860000000  0.5607760000000 1.0
C      1  0.5523040000000  0.5564800000000  0.5073780000000 1.0
C      1  0.5126150000000  0.4390600000000  0.4400590000000 1.0
C      1  0.5012240000000  0.4527220000000  0.5126760000000 1.0
C      1  0.5273330000000  0.4595360000000  0.4170810000000 1.0
C      1  0.4835350000000  0.5794870000000  0.5244130000000 1.0
C      1  0.4491350000000  0.5149380000000  0.4872460000000 1.0
C      1  0.5212600000000  0.4718220000000  0.4839110000000 1.0
C      1  0.4561720000000  0.5713880000000  0.4783390000000 1.0
C      1  0.5062500000000  0.5134830000000  0.4256920000000 1.0
C      1  0.4421040000000  0.5270720000000  0.5254130000000 1.0
C      1  0.5520020000000  0.4915680000000  0.4686030000000 1.0
C      1  0.5400330000000  0.5072450000000  0.5745680000000 1.0
C      1  0.4835670000000  0.4521770000000  0.4519010000000 1.0
C      1  0.4482350000000  0.5253470000000  0.5529570000000 1.0
C      1  0.4895850000000  0.4882840000000  0.4363030000000 1.0
C      1  0.5103820000000  0.4786700000000  0.5564500000000 1.0
C      1  0.5416210000000  0.5378910000000  0.5337870000000 1.0
C      1  0.5517920000000  0.5118300000000  0.5486570000000 1.0
C      1  0.5287420000000  0.4373950000000  0.4654520000000 1.0
C      1  0.4590330000000  0.4963090000000  0.4421960000000 1.0
C      1  0.4686830000000  0.5316580000000  0.5094870000000 1.0
C      1  0.5571020000000  0.4832150000000  0.5310580000000 1.0
C      1  0.4694280000000  0.5428380000000  0.5596380000000 1.0
C      1  0.4880720000000  0.5655360000000  0.5498010000000 1.0
C      1  0.5300180000000  0.4789600000000  0.5759550000000 1.0
C      1  0.4977210000000  0.5273330000000  0.5544250000000 1.0
C      1  0.4767000000000  0.4946850000000  0.4868300000000 1.0
C      1  0.5549250000000  0.4530430000000  0.5439360000000 1.0
C      1  0.4930800000000  0.5135020000000  0.5237020000000 1.0
C      1  0.4542610000000  0.4445200000000  0.4895630000000 1.0
C      1  0.4213420000000  0.5252470000000  0.5048630000000 1.0
C      1  0.5408590000000  0.4823170000000  0.4124500000000 1.0
C      1  0.4522860000000  0.5565120000000  0.4583420000000 1.0
C      1  0.5359470000000  0.5066670000000  0.4231540000000 1.0
C      1  0.4908420000000  0.4973400000000  0.5915920000000 1.0
C      1  0.4995640000000  0.5455710000000  0.4869210000000 1.0
C      1  0.4826100000000  0.4823420000000  0.5148980000000 1.0
C      1  0.4530830000000  0.4655320000000  0.5164300000000 1.0
C      1  0.4999570000000  0.5439270000000  0.4361850000000 1.0
C      1  0.4312370000000  0.4885870000000  0.4788950000000 1.0
C      1  0.4963470000000  0.4787530000000  0.4677860000000 1.0
C      1  0.5107640000000  0.5714510000000  0.5150110000000 1.0
C      1  0.5097620000000  0.5132420000000  0.5778920000000 1.0
C      1  0.5171900000000  0.5538380000000  0.5503380000000 1.0
C      1  0.5488900000000  0.5484710000000  0.4743120000000 1.0
C      1  0.5182210000000  0.5477670000000  0.4610710000000 1.0
C      1  0.5341880000000  0.5054150000000  0.5020480000000 1.0
C      1  0.4424680000000  0.4763000000000  0.4564430000000 1.0
C      1  0.5307920000000  0.4694310000000  0.5144380000000 1.0
C      1  0.4495600000000  0.5004370000000  0.5671430000000 1.0
C      1  0.4264450000000  0.4735530000000  0.5011870000000 1.0
C      1  0.4671530000000  0.4455110000000  0.5388770000000 1.0
C      1  0.5190450000000  0.4947670000000  0.5305870000000 1.0
C      1  0.5415530000000  0.5260400000000  0.4492410000000 1.0
C      1  0.5789620000000  0.4854140000000  0.5086740000000 1.0
C      1  0.5066230000000  0.4415330000000  0.5429460000000 1.0
C      1  0.4711620000000  0.4840010000000  0.5756310000000 1.0
C      1  0.5326240000000  0.4381620000000  0.5495610000000 1.0
C      1  0.4623240000000  0.5262350000000  0.4580070000000 1.0
C      1  0.5233180000000  0.5096000000000  0.4717170000000 1.0
C      1  0.5591560000000  0.5265100000000  0.4971070000000 1.0
END
