TITL C-2848505-4874-180 0.00170779374051121 125000 -411.773057466458 0 0 82 (C1) n - 1
REM
REM in /home/bkarasulu/work/CARBON/AIRSS/Generating-Clusters/AIREBO/with-SteepDescent/Only-C1/SD-CG-opt/Try1-1.4A-POS3A/HFTN-CG
REM
REM
REM
REM
REM
REM ./C.cell (11c1c37f851c82e70ff6c80c92926a4b)
REM
REM compiler GCC version 9.2.1 20190827 (Red Hat 9.2.1-1)
REM options -cpp -mtune=generic -march=x86-64 -g -O0 -fpre-include=/usr/include/finclude/math-vector-fortran.h
REM seed -1483837238 237685452 -1990134847 736562885 622290504 412590164 370581227 1265867137 -1508424634 1393175568 -893572108 180107327 242526341 344604126 -505350974 -1218915744 1453034002 156460148 -2082905998 1897242959 -615913082 -1391746650 1896463086 -555417164 119050599 -2094854592 -626792146 896429945 196808068 176431553 1901855634 304352518 399698386
REM
CELL 1.54180   50.00000   50.00000   50.00000   90.00000   90.00000   90.00000
LATT -1
SFAC C  
C      1  0.4447510000000  0.4733280000000  0.4956180000000 1.0
C      1  0.4563560000000  0.5403280000000  0.4997380000000 1.0
C      1  0.4842060000000  0.5462510000000  0.5644380000000 1.0
C      1  0.4370690000000  0.4617660000000  0.5234540000000 1.0
C      1  0.5621010000000  0.4474140000000  0.5093830000000 1.0
C      1  0.4898370000000  0.4273410000000  0.4865190000000 1.0
C      1  0.5066230000000  0.4989920000000  0.4670790000000 1.0
C      1  0.5396180000000  0.4138080000000  0.5642760000000 1.0
C      1  0.4652400000000  0.4054530000000  0.5148880000000 1.0
C      1  0.4490660000000  0.5513900000000  0.5465940000000 1.0
C      1  0.4804800000000  0.4689040000000  0.5126490000000 1.0
C      1  0.4972860000000  0.4686210000000  0.5407370000000 1.0
C      1  0.4443690000000  0.5109910000000  0.5086050000000 1.0
C      1  0.5212910000000  0.4916500000000  0.5033340000000 1.0
C      1  0.4643480000000  0.5776660000000  0.5499720000000 1.0
C      1  0.5186990000000  0.5276040000000  0.5577170000000 1.0
C      1  0.4552690000000  0.5613720000000  0.4259200000000 1.0
C      1  0.5138150000000  0.5150480000000  0.4213330000000 1.0
C      1  0.4517760000000  0.4408450000000  0.5339600000000 1.0
C      1  0.4688020000000  0.4315870000000  0.4684650000000 1.0
C      1  0.5308980000000  0.4348510000000  0.4518530000000 1.0
C      1  0.4674060000000  0.4978330000000  0.4890510000000 1.0
C      1  0.5283510000000  0.5230630000000  0.4773740000000 1.0
C      1  0.4745470000000  0.5011260000000  0.5833380000000 1.0
C      1  0.5435600000000  0.5090810000000  0.4213000000000 1.0
C      1  0.5022490000000  0.5861100000000  0.4938500000000 1.0
C      1  0.4840060000000  0.4996800000000  0.4156400000000 1.0
C      1  0.5320580000000  0.5735970000000  0.4876860000000 1.0
C      1  0.4747990000000  0.4378990000000  0.5547880000000 1.0
C      1  0.5348910000000  0.5218830000000  0.5109000000000 1.0
C      1  0.5074950000000  0.4785440000000  0.5827560000000 1.0
C      1  0.4703800000000  0.5490750000000  0.5228100000000 1.0
C      1  0.5426680000000  0.5370540000000  0.5395660000000 1.0
C      1  0.4652220000000  0.5217030000000  0.5504000000000 1.0
C      1  0.4931880000000  0.5202380000000  0.5789670000000 1.0
C      1  0.5075630000000  0.5619510000000  0.5168810000000 1.0
C      1  0.5039400000000  0.4765950000000  0.4251980000000 1.0
C      1  0.5107240000000  0.5528400000000  0.4611910000000 1.0
C      1  0.4313900000000  0.4812150000000  0.5428260000000 1.0
C      1  0.5393380000000  0.4520690000000  0.5340220000000 1.0
C      1  0.5552890000000  0.4967500000000  0.4489020000000 1.0
C      1  0.4641810000000  0.4741350000000  0.4216940000000 1.0
C      1  0.4379980000000  0.4987470000000  0.4526250000000 1.0
C      1  0.4992390000000  0.5325280000000  0.5302650000000 1.0
C      1  0.5472100000000  0.4962510000000  0.4819520000000 1.0
C      1  0.5144510000000  0.4431790000000  0.4793400000000 1.0
C      1  0.5662490000000  0.4681100000000  0.4833510000000 1.0
C      1  0.4995320000000  0.4273650000000  0.5414590000000 1.0
C      1  0.4988300000000  0.5023710000000  0.5343140000000 1.0
C      1  0.5257450000000  0.4299600000000  0.5470530000000 1.0
C      1  0.5714140000000  0.5152330000000  0.4964870000000 1.0
C      1  0.4576200000000  0.4841890000000  0.5602270000000 1.0
C      1  0.4686390000000  0.5526520000000  0.4740350000000 1.0
C      1  0.5466540000000  0.4427250000000  0.4803420000000 1.0
C      1  0.4937880000000  0.5708720000000  0.5467280000000 1.0
C      1  0.5691530000000  0.5377970000000  0.5543520000000 1.0
C      1  0.4600210000000  0.5118150000000  0.4365860000000 1.0
C      1  0.4793630000000  0.4350000000000  0.5153060000000 1.0
C      1  0.5253420000000  0.4540320000000  0.4323160000000 1.0
C      1  0.4657600000000  0.5410510000000  0.4457260000000 1.0
C      1  0.4663170000000  0.4951030000000  0.5292050000000 1.0
C      1  0.5273120000000  0.4838360000000  0.5358740000000 1.0
C      1  0.4638750000000  0.4624200000000  0.4709950000000 1.0
C      1  0.5235820000000  0.5843160000000  0.4602800000000 1.0
C      1  0.5091350000000  0.5482900000000  0.4272680000000 1.0
C      1  0.5818460000000  0.4954120000000  0.4704030000000 1.0
C      1  0.5585010000000  0.5107240000000  0.3998880000000 1.0
C      1  0.4814050000000  0.4644070000000  0.5692460000000 1.0
C      1  0.5417320000000  0.5608550000000  0.5154650000000 1.0
C      1  0.4950830000000  0.4704680000000  0.4818640000000 1.0
C      1  0.5226990000000  0.4959600000000  0.5673050000000 1.0
C      1  0.4216330000000  0.5047670000000  0.5314250000000 1.0
C      1  0.4965750000000  0.5431900000000  0.4907200000000 1.0
C      1  0.5566380000000  0.4976660000000  0.5207390000000 1.0
C      1  0.4289530000000  0.4989520000000  0.4798070000000 1.0
C      1  0.5677370000000  0.5432390000000  0.5025650000000 1.0
C      1  0.4948290000000  0.5115910000000  0.4956690000000 1.0
C      1  0.4523970000000  0.4737650000000  0.4459510000000 1.0
C      1  0.4957230000000  0.5251710000000  0.4482970000000 1.0
C      1  0.4797470000000  0.5828130000000  0.4789060000000 1.0
C      1  0.5657130000000  0.4714860000000  0.5329230000000 1.0
C      1  0.5264150000000  0.4840420000000  0.4470720000000 1.0
END
