TITL C-2848505-4874-358 -0.0008274571166387 125000 -538.595478669328 0 0 99 (C1) n - 1
REM
REM in /home/bkarasulu/work/CARBON/AIRSS/Generating-Clusters/AIREBO/with-SteepDescent/Only-C1/SD-CG-opt/Try1-1.4A-POS3A/HFTN-CG
REM
REM
REM
REM
REM
REM ./C.cell (11c1c37f851c82e70ff6c80c92926a4b)
REM
REM compiler GCC version 9.2.1 20190827 (Red Hat 9.2.1-1)
REM options -cpp -mtune=generic -march=x86-64 -g -O0 -fpre-include=/usr/include/finclude/math-vector-fortran.h
REM seed 1499275233 -24413569 629496927 -433147211 532951719 308664536 -1558034305 -993215650 -714397412 496258377 716384924 -1583624726 -997739314 585004040 -535704140 -496376713 -1164856325 -270002966 -709519202 1502629008 -1647731109 673296297 1942489492 -2015587267 -777015775 -896706788 -292187541 1902488246 162346161 1160075788 35342735 -453888917 1180895839
REM
CELL 1.54180   50.00000   50.00000   50.00000   90.00000   90.00000   90.00000
LATT -1
SFAC C  
C      1  0.4590290000000  0.4139640000000  0.5031920000000 1.0
C      1  0.5089530000000  0.4406270000000  0.5499670000000 1.0
C      1  0.4158720000000  0.5049000000000  0.4698420000000 1.0
C      1  0.4710250000000  0.4380860000000  0.4450000000000 1.0
C      1  0.5387310000000  0.4574150000000  0.4370000000000 1.0
C      1  0.4820280000000  0.4609220000000  0.4282620000000 1.0
C      1  0.5505250000000  0.4851680000000  0.5692530000000 1.0
C      1  0.4610960000000  0.5427130000000  0.4088160000000 1.0
C      1  0.4821040000000  0.4201330000000  0.5181290000000 1.0
C      1  0.5489110000000  0.5348650000000  0.5228470000000 1.0
C      1  0.4418830000000  0.5324540000000  0.5332510000000 1.0
C      1  0.4671920000000  0.5120190000000  0.5805220000000 1.0
C      1  0.5400420000000  0.5673850000000  0.5273110000000 1.0
C      1  0.5872490000000  0.5054410000000  0.4884860000000 1.0
C      1  0.4478280000000  0.4777720000000  0.4650400000000 1.0
C      1  0.4744420000000  0.5744740000000  0.5283940000000 1.0
C      1  0.4724520000000  0.4669950000000  0.4853430000000 1.0
C      1  0.5587210000000  0.4778320000000  0.4506890000000 1.0
C      1  0.5215650000000  0.4795170000000  0.4655590000000 1.0
C      1  0.4969570000000  0.4843370000000  0.4465040000000 1.0
C      1  0.5770300000000  0.5088530000000  0.4577970000000 1.0
C      1  0.4987360000000  0.5670220000000  0.5592110000000 1.0
C      1  0.4682580000000  0.5536330000000  0.5545370000000 1.0
C      1  0.5921480000000  0.5359860000000  0.4633040000000 1.0
C      1  0.5527330000000  0.5570280000000  0.5558700000000 1.0
C      1  0.5152560000000  0.4601750000000  0.4204480000000 1.0
C      1  0.5072320000000  0.4279370000000  0.5018530000000 1.0
C      1  0.4913770000000  0.5675770000000  0.4726840000000 1.0
C      1  0.4873320000000  0.5602210000000  0.5890330000000 1.0
C      1  0.4627280000000  0.4618510000000  0.5381560000000 1.0
C      1  0.4796280000000  0.5155720000000  0.5233270000000 1.0
C      1  0.4960970000000  0.5369630000000  0.5440490000000 1.0
C      1  0.4913360000000  0.4210660000000  0.4546130000000 1.0
C      1  0.4536240000000  0.5230870000000  0.5027410000000 1.0
C      1  0.4297860000000  0.5733840000000  0.5033200000000 1.0
C      1  0.5240540000000  0.4870480000000  0.5794550000000 1.0
C      1  0.5827740000000  0.5092060000000  0.5399050000000 1.0
C      1  0.5110580000000  0.4269190000000  0.4719330000000 1.0
C      1  0.4945900000000  0.5653710000000  0.5050070000000 1.0
C      1  0.5557590000000  0.4615810000000  0.5462270000000 1.0
C      1  0.5876530000000  0.4768430000000  0.4996000000000 1.0
C      1  0.5331750000000  0.4919290000000  0.5016790000000 1.0
C      1  0.4505910000000  0.5633520000000  0.4583540000000 1.0
C      1  0.5928450000000  0.5449700000000  0.4870890000000 1.0
C      1  0.4908820000000  0.4949550000000  0.5814680000000 1.0
C      1  0.5504570000000  0.5085370000000  0.4400270000000 1.0
C      1  0.4669080000000  0.5471020000000  0.4826690000000 1.0
C      1  0.5137970000000  0.4953270000000  0.5269620000000 1.0
C      1  0.5524160000000  0.4366950000000  0.5669850000000 1.0
C      1  0.5108170000000  0.5765070000000  0.5310090000000 1.0
C      1  0.5667010000000  0.4640310000000  0.4772970000000 1.0
C      1  0.5042290000000  0.4839700000000  0.5557960000000 1.0
C      1  0.5294430000000  0.5109060000000  0.4737180000000 1.0
C      1  0.4452050000000  0.5635740000000  0.5235530000000 1.0
C      1  0.4712560000000  0.4912390000000  0.4168770000000 1.0
C      1  0.4791310000000  0.5025350000000  0.4641350000000 1.0
C      1  0.5805750000000  0.5285390000000  0.5120140000000 1.0
C      1  0.4428830000000  0.4914890000000  0.4961040000000 1.0
C      1  0.4973550000000  0.4839900000000  0.4863550000000 1.0
C      1  0.5259870000000  0.5312080000000  0.4466260000000 1.0
C      1  0.5404380000000  0.5609640000000  0.4941390000000 1.0
C      1  0.4444950000000  0.5066170000000  0.5557650000000 1.0
C      1  0.4470320000000  0.5109340000000  0.4575670000000 1.0
C      1  0.5760100000000  0.4785520000000  0.5278550000000 1.0
C      1  0.4031750000000  0.4887750000000  0.4944030000000 1.0
C      1  0.5228910000000  0.5222570000000  0.5408690000000 1.0
C      1  0.4970280000000  0.5331850000000  0.5045500000000 1.0
C      1  0.4258570000000  0.5309210000000  0.4847490000000 1.0
C      1  0.5225250000000  0.5405690000000  0.4852540000000 1.0
C      1  0.5257740000000  0.4293010000000  0.5701800000000 1.0
C      1  0.5052200000000  0.4907120000000  0.4152720000000 1.0
C      1  0.4199370000000  0.4834890000000  0.5187590000000 1.0
C      1  0.5955710000000  0.4489700000000  0.4819910000000 1.0
C      1  0.4633280000000  0.5187580000000  0.4311780000000 1.0
C      1  0.5313890000000  0.4484810000000  0.4670510000000 1.0
C      1  0.4736080000000  0.5398580000000  0.5946330000000 1.0
C      1  0.5390150000000  0.5379570000000  0.4157470000000 1.0
C      1  0.4446880000000  0.4787610000000  0.4311940000000 1.0
C      1  0.4182950000000  0.4890640000000  0.4406030000000 1.0
C      1  0.4353900000000  0.4795400000000  0.5459440000000 1.0
C      1  0.5286680000000  0.5085410000000  0.4139230000000 1.0
C      1  0.4824380000000  0.4370790000000  0.5409090000000 1.0
C      1  0.5529540000000  0.5021300000000  0.5229020000000 1.0
C      1  0.5354910000000  0.4168700000000  0.5158720000000 1.0
C      1  0.4733720000000  0.5503560000000  0.4391400000000 1.0
C      1  0.4186130000000  0.4641500000000  0.5664570000000 1.0
C      1  0.5035490000000  0.4608230000000  0.5096700000000 1.0
C      1  0.5311980000000  0.4492330000000  0.5257180000000 1.0
C      1  0.4513350000000  0.4612910000000  0.5086200000000 1.0
C      1  0.4821560000000  0.4834670000000  0.5231320000000 1.0
C      1  0.5411340000000  0.4628160000000  0.4961600000000 1.0
C      1  0.4288040000000  0.5586010000000  0.4790320000000 1.0
C      1  0.4492130000000  0.4440130000000  0.4623280000000 1.0
C      1  0.5630100000000  0.5096570000000  0.5642930000000 1.0
C      1  0.4932150000000  0.5277920000000  0.4731160000000 1.0
C      1  0.4453470000000  0.5377400000000  0.5666620000000 1.0
C      1  0.5045380000000  0.5554780000000  0.4471250000000 1.0
C      1  0.4475900000000  0.4359900000000  0.4897610000000 1.0
C      1  0.5452660000000  0.5311100000000  0.5622830000000 1.0
END
