TITL C-2847952-8118-302 0.000164584407894105 125000 -605.87131140345 0 0 112 (C1) n - 1
REM
REM in /home/bkarasulu/work/CARBON/AIRSS/Generating-Clusters/AIREBO/with-SteepDescent/Only-C1/SD-CG-opt/Try1-1.4A-POS3A/HFTN-CG
REM
REM
REM
REM
REM
REM ./C.cell (11c1c37f851c82e70ff6c80c92926a4b)
REM
REM compiler GCC version 9.2.1 20190827 (Red Hat 9.2.1-1)
REM options -cpp -mtune=generic -march=x86-64 -g -O0 -fpre-include=/usr/include/finclude/math-vector-fortran.h
REM seed 1370204482 -1708949663 -629444452 -1074039229 -2095581325 2053051211 -546029966 788984608 1275262581 -361026915 -913261615 -375461341 1569172294 2124320833 -409061769 68353981 -1907019873 2119354018 -1334379447 -1732708595 1869417050 233749682 -1509291397 24252095 75921263 526816213 -856638635 1302635290 1701715446 -795204846 -1205513848 1087473202 486366309
REM
CELL 1.54180   50.00000   50.00000   50.00000   90.00000   90.00000   90.00000
LATT -1
SFAC C  
C      1  0.4397050000000  0.5416870000000  0.5621750000000 1.0
C      1  0.4757370000000  0.4584620000000  0.4261010000000 1.0
C      1  0.4652230000000  0.4943900000000  0.5879530000000 1.0
C      1  0.4950870000000  0.5609480000000  0.4555080000000 1.0
C      1  0.4666220000000  0.5228390000000  0.4562720000000 1.0
C      1  0.5039800000000  0.4095600000000  0.5253180000000 1.0
C      1  0.5010220000000  0.5413360000000  0.5800210000000 1.0
C      1  0.4967200000000  0.5205230000000  0.5217280000000 1.0
C      1  0.5820280000000  0.5126660000000  0.4731830000000 1.0
C      1  0.5854200000000  0.4807000000000  0.4755370000000 1.0
C      1  0.5519800000000  0.4627830000000  0.4419280000000 1.0
C      1  0.4756020000000  0.5852390000000  0.5118810000000 1.0
C      1  0.4862810000000  0.5076250000000  0.4873930000000 1.0
C      1  0.4593730000000  0.4924070000000  0.4948680000000 1.0
C      1  0.5001590000000  0.5217090000000  0.4504450000000 1.0
C      1  0.5450000000000  0.4900880000000  0.5351610000000 1.0
C      1  0.4722720000000  0.4565050000000  0.4583530000000 1.0
C      1  0.4783980000000  0.4586020000000  0.5498360000000 1.0
C      1  0.5529740000000  0.4184090000000  0.4627320000000 1.0
C      1  0.5499850000000  0.4198680000000  0.4905050000000 1.0
C      1  0.4412000000000  0.4615200000000  0.4618150000000 1.0
C      1  0.5251440000000  0.4280680000000  0.5418280000000 1.0
C      1  0.4774040000000  0.5217630000000  0.5463100000000 1.0
C      1  0.5718150000000  0.5904340000000  0.5151060000000 1.0
C      1  0.5105440000000  0.4620060000000  0.4681820000000 1.0
C      1  0.5862620000000  0.5288020000000  0.5028120000000 1.0
C      1  0.5493390000000  0.5034010000000  0.4745700000000 1.0
C      1  0.4140480000000  0.5424900000000  0.4846150000000 1.0
C      1  0.5712070000000  0.5426480000000  0.4751260000000 1.0
C      1  0.5948700000000  0.4768650000000  0.5021830000000 1.0
C      1  0.4670220000000  0.4099930000000  0.5405840000000 1.0
C      1  0.4374670000000  0.4897160000000  0.4338270000000 1.0
C      1  0.4849830000000  0.5285260000000  0.4212670000000 1.0
C      1  0.4730540000000  0.4733540000000  0.5196510000000 1.0
C      1  0.5084290000000  0.4221050000000  0.4678590000000 1.0
C      1  0.4638120000000  0.5715550000000  0.4632640000000 1.0
C      1  0.4576210000000  0.4769950000000  0.4165600000000 1.0
C      1  0.5353720000000  0.5786820000000  0.4783000000000 1.0
C      1  0.5920700000000  0.5005280000000  0.5191930000000 1.0
C      1  0.5218270000000  0.5170550000000  0.5838360000000 1.0
C      1  0.5478170000000  0.5102270000000  0.5078920000000 1.0
C      1  0.4542220000000  0.4083910000000  0.4675810000000 1.0
C      1  0.4917990000000  0.4295170000000  0.5499040000000 1.0
C      1  0.5802670000000  0.4519850000000  0.5148440000000 1.0
C      1  0.5743260000000  0.4838850000000  0.4468650000000 1.0
C      1  0.4516100000000  0.5229010000000  0.4194970000000 1.0
C      1  0.4378360000000  0.5119470000000  0.5093550000000 1.0
C      1  0.5428400000000  0.5480240000000  0.4687020000000 1.0
C      1  0.5409610000000  0.4695650000000  0.5714420000000 1.0
C      1  0.5463270000000  0.5023000000000  0.4407060000000 1.0
C      1  0.5057550000000  0.4765000000000  0.5433600000000 1.0
C      1  0.4409430000000  0.4785250000000  0.5754840000000 1.0
C      1  0.4995240000000  0.5475060000000  0.5483860000000 1.0
C      1  0.5255550000000  0.5041820000000  0.3933730000000 1.0
C      1  0.4824360000000  0.5407120000000  0.4805000000000 1.0
C      1  0.4267780000000  0.4514990000000  0.5389640000000 1.0
C      1  0.5148030000000  0.4941160000000  0.4924130000000 1.0
C      1  0.5615440000000  0.5557290000000  0.5434060000000 1.0
C      1  0.5300110000000  0.4640550000000  0.4239040000000 1.0
C      1  0.4575840000000  0.5002200000000  0.5336910000000 1.0
C      1  0.4903740000000  0.4851120000000  0.4622210000000 1.0
C      1  0.4603050000000  0.5599530000000  0.4950390000000 1.0
C      1  0.4705140000000  0.5553670000000  0.4334750000000 1.0
C      1  0.5560720000000  0.4711740000000  0.5091570000000 1.0
C      1  0.4845650000000  0.5888810000000  0.4820160000000 1.0
C      1  0.4068920000000  0.4860340000000  0.4778420000000 1.0
C      1  0.4952850000000  0.5960040000000  0.5327660000000 1.0
C      1  0.5776820000000  0.4956560000000  0.5427130000000 1.0
C      1  0.4190290000000  0.5308640000000  0.4603750000000 1.0
C      1  0.4906210000000  0.5131020000000  0.5900490000000 1.0
C      1  0.5154540000000  0.4659110000000  0.5844050000000 1.0
C      1  0.5262580000000  0.5558830000000  0.5198400000000 1.0
C      1  0.4358870000000  0.5431300000000  0.5082340000000 1.0
C      1  0.5221470000000  0.4941400000000  0.4193930000000 1.0
C      1  0.4448190000000  0.4025430000000  0.4930240000000 1.0
C      1  0.5193980000000  0.5845440000000  0.5293520000000 1.0
C      1  0.5731110000000  0.5802510000000  0.5412970000000 1.0
C      1  0.5650050000000  0.4862240000000  0.5695760000000 1.0
C      1  0.5287130000000  0.4245140000000  0.4468920000000 1.0
C      1  0.5399840000000  0.4721980000000  0.4676530000000 1.0
C      1  0.4463130000000  0.5529530000000  0.5368750000000 1.0
C      1  0.4565570000000  0.5208230000000  0.5694390000000 1.0
C      1  0.4898680000000  0.4960330000000  0.4300230000000 1.0
C      1  0.5211900000000  0.5224970000000  0.4747670000000 1.0
C      1  0.5140130000000  0.4964650000000  0.5241320000000 1.0
C      1  0.4133750000000  0.4772490000000  0.5291360000000 1.0
C      1  0.5208820000000  0.4319100000000  0.4968450000000 1.0
C      1  0.5325980000000  0.5394790000000  0.5468720000000 1.0
C      1  0.4517010000000  0.4934080000000  0.4644850000000 1.0
C      1  0.4611780000000  0.4121280000000  0.5137620000000 1.0
C      1  0.5263860000000  0.4643650000000  0.5042000000000 1.0
C      1  0.4932770000000  0.4605290000000  0.4974760000000 1.0
C      1  0.5406870000000  0.4572930000000  0.5431250000000 1.0
C      1  0.4320330000000  0.4903980000000  0.5493280000000 1.0
C      1  0.4421660000000  0.5435360000000  0.4448200000000 1.0
C      1  0.4729030000000  0.5629310000000  0.5349500000000 1.0
C      1  0.4781500000000  0.4285280000000  0.4681950000000 1.0
C      1  0.4158470000000  0.4598240000000  0.4706190000000 1.0
C      1  0.5521910000000  0.4336610000000  0.5215330000000 1.0
C      1  0.5108850000000  0.5914440000000  0.4759870000000 1.0
C      1  0.5212400000000  0.5583790000000  0.4469700000000 1.0
C      1  0.4143590000000  0.5033580000000  0.4547370000000 1.0
C      1  0.5085550000000  0.5397370000000  0.5012190000000 1.0
C      1  0.5575260000000  0.5729330000000  0.4973030000000 1.0
C      1  0.4875120000000  0.6147760000000  0.5509610000000 1.0
C      1  0.4875170000000  0.4269840000000  0.5012030000000 1.0
C      1  0.5564480000000  0.5423080000000  0.5120520000000 1.0
C      1  0.5365350000000  0.5123460000000  0.5594490000000 1.0
C      1  0.4890780000000  0.4717500000000  0.5793250000000 1.0
C      1  0.5059970000000  0.4481140000000  0.4376550000000 1.0
C      1  0.4131710000000  0.4928450000000  0.5048550000000 1.0
C      1  0.4477530000000  0.4548900000000  0.5583320000000 1.0
END
