TITL C-2848495-5024-598 0.00119100666882844 125000 -757.005130058521 0 0 145 (C1) n - 1
REM
REM in /home/bkarasulu/work/CARBON/AIRSS/Generating-Clusters/AIREBO/with-SteepDescent/Only-C1/SD-CG-opt/Try1-1.4A-POS3A/HFTN-CG
REM
REM
REM
REM
REM
REM ./C.cell (11c1c37f851c82e70ff6c80c92926a4b)
REM
REM compiler GCC version 9.2.1 20190827 (Red Hat 9.2.1-1)
REM options -cpp -mtune=generic -march=x86-64 -g -O0 -fpre-include=/usr/include/finclude/math-vector-fortran.h
REM seed 1663158607 -1918240594 -1406342291 224281975 -1696285552 1272765067 -790787105 1859888138 905164180 -1458730731 1334551582 1281716443 1031368828 1153264798 -1137989107 1778186085 -2126369308 -1624461354 1576744716 116904584 -1528999113 1273410468 -731884150 -2125171204 948975122 -621126293 -1088208387 -328680071 42464739 -1945127082 -1969136219 -1053238414 -397693077
REM
CELL 1.54180   50.00000   50.00000   50.00000   90.00000   90.00000   90.00000
LATT -1
SFAC C  
C      1  0.4731350000000  0.4179750000000  0.5173870000000 1.0
C      1  0.5510000000000  0.4123120000000  0.4964670000000 1.0
C      1  0.4564460000000  0.5904150000000  0.4302170000000 1.0
C      1  0.4304590000000  0.4350330000000  0.5332030000000 1.0
C      1  0.5118750000000  0.5529580000000  0.5832840000000 1.0
C      1  0.4368260000000  0.5323670000000  0.5282150000000 1.0
C      1  0.5576740000000  0.5565890000000  0.4915710000000 1.0
C      1  0.4412850000000  0.5532500000000  0.4944040000000 1.0
C      1  0.4726420000000  0.4741490000000  0.3984420000000 1.0
C      1  0.4973250000000  0.4287720000000  0.5848500000000 1.0
C      1  0.5732190000000  0.4926500000000  0.5645530000000 1.0
C      1  0.5667060000000  0.5206320000000  0.4546270000000 1.0
C      1  0.4809080000000  0.4507430000000  0.4116590000000 1.0
C      1  0.4668950000000  0.5283110000000  0.4735700000000 1.0
C      1  0.5293840000000  0.5605330000000  0.5054620000000 1.0
C      1  0.5059640000000  0.5071210000000  0.4388810000000 1.0
C      1  0.4593080000000  0.4390940000000  0.4254150000000 1.0
C      1  0.5957040000000  0.4903990000000  0.4901470000000 1.0
C      1  0.4947960000000  0.5737380000000  0.5194670000000 1.0
C      1  0.4563230000000  0.5313460000000  0.5628520000000 1.0
C      1  0.5177920000000  0.5510220000000  0.4749140000000 1.0
C      1  0.5045650000000  0.3960160000000  0.5067170000000 1.0
C      1  0.4874030000000  0.5191740000000  0.5820590000000 1.0
C      1  0.3865150000000  0.4847890000000  0.5495400000000 1.0
C      1  0.4813030000000  0.5012660000000  0.5213320000000 1.0
C      1  0.5062860000000  0.4694180000000  0.5807000000000 1.0
C      1  0.4245660000000  0.5321850000000  0.4795590000000 1.0
C      1  0.5058490000000  0.5921760000000  0.5441000000000 1.0
C      1  0.5043410000000  0.4175610000000  0.5309810000000 1.0
C      1  0.5864140000000  0.5408500000000  0.5143300000000 1.0
C      1  0.4240420000000  0.4948780000000  0.4289300000000 1.0
C      1  0.5290110000000  0.5381790000000  0.4290220000000 1.0
C      1  0.5081860000000  0.5895410000000  0.4708840000000 1.0
C      1  0.5133280000000  0.4863730000000  0.6054010000000 1.0
C      1  0.4282340000000  0.4572540000000  0.5572150000000 1.0
C      1  0.5117520000000  0.4497570000000  0.4263550000000 1.0
C      1  0.4734660000000  0.5253690000000  0.4244140000000 1.0
C      1  0.5943180000000  0.5079460000000  0.5176670000000 1.0
C      1  0.4743060000000  0.5465880000000  0.4990800000000 1.0
C      1  0.4508970000000  0.4923540000000  0.4707570000000 1.0
C      1  0.4737090000000  0.4995600000000  0.4465760000000 1.0
C      1  0.4110920000000  0.4716840000000  0.4666110000000 1.0
C      1  0.5660680000000  0.4636730000000  0.5586500000000 1.0
C      1  0.5967790000000  0.5293320000000  0.4439350000000 1.0
C      1  0.4974100000000  0.4785260000000  0.5534590000000 1.0
C      1  0.5258810000000  0.5231310000000  0.4926150000000 1.0
C      1  0.6188120000000  0.5193910000000  0.4552650000000 1.0
C      1  0.4967140000000  0.5387850000000  0.5585080000000 1.0
C      1  0.4453020000000  0.4432550000000  0.5804510000000 1.0
C      1  0.5455720000000  0.4963830000000  0.5187200000000 1.0
C      1  0.5181250000000  0.5253090000000  0.5432080000000 1.0
C      1  0.5273270000000  0.3925210000000  0.4919460000000 1.0
C      1  0.4795920000000  0.5542230000000  0.5403800000000 1.0
C      1  0.5283460000000  0.4556730000000  0.5134600000000 1.0
C      1  0.5540690000000  0.5382220000000  0.5627410000000 1.0
C      1  0.4261230000000  0.5094920000000  0.5864910000000 1.0
C      1  0.4552330000000  0.4495130000000  0.4502580000000 1.0
C      1  0.5422230000000  0.5875600000000  0.4682580000000 1.0
C      1  0.4653950000000  0.4501310000000  0.5094510000000 1.0
C      1  0.5139690000000  0.4975920000000  0.5314090000000 1.0
C      1  0.4549810000000  0.4085090000000  0.4507500000000 1.0
C      1  0.5406140000000  0.5420570000000  0.5317160000000 1.0
C      1  0.4822030000000  0.4134380000000  0.4645040000000 1.0
C      1  0.4685560000000  0.4806860000000  0.4973930000000 1.0
C      1  0.5452310000000  0.4531930000000  0.4214240000000 1.0
C      1  0.5369760000000  0.5559750000000  0.5820240000000 1.0
C      1  0.4606550000000  0.5446230000000  0.4019460000000 1.0
C      1  0.5530390000000  0.4546810000000  0.4667790000000 1.0
C      1  0.5445940000000  0.4848370000000  0.4137060000000 1.0
C      1  0.4567440000000  0.5180100000000  0.5046580000000 1.0
C      1  0.5884330000000  0.5699680000000  0.4955490000000 1.0
C      1  0.4960730000000  0.5652680000000  0.4529690000000 1.0
C      1  0.5022040000000  0.5418850000000  0.5100950000000 1.0
C      1  0.6168890000000  0.5354250000000  0.5002200000000 1.0
C      1  0.4318850000000  0.4979010000000  0.4983970000000 1.0
C      1  0.4790960000000  0.4683980000000  0.4565440000000 1.0
C      1  0.5087400000000  0.4210920000000  0.4446490000000 1.0
C      1  0.5445620000000  0.5170120000000  0.4074090000000 1.0
C      1  0.5774370000000  0.4659850000000  0.4950520000000 1.0
C      1  0.5426970000000  0.4506040000000  0.5438780000000 1.0
C      1  0.4690970000000  0.5017340000000  0.4003390000000 1.0
C      1  0.4293980000000  0.5125970000000  0.5549030000000 1.0
C      1  0.4582760000000  0.5778760000000  0.4802250000000 1.0
C      1  0.5806180000000  0.4469490000000  0.5161020000000 1.0
C      1  0.4648880000000  0.4582330000000  0.5424710000000 1.0
C      1  0.5133420000000  0.5087840000000  0.4076520000000 1.0
C      1  0.5334170000000  0.5885950000000  0.5242340000000 1.0
C      1  0.4024560000000  0.4634600000000  0.5404400000000 1.0
C      1  0.5239600000000  0.4948000000000  0.4738740000000 1.0
C      1  0.4320960000000  0.4175160000000  0.4559100000000 1.0
C      1  0.3989490000000  0.5398160000000  0.5587480000000 1.0
C      1  0.4239530000000  0.5520900000000  0.5527390000000 1.0
C      1  0.5414700000000  0.4940100000000  0.5950420000000 1.0
C      1  0.5180810000000  0.4706650000000  0.3996170000000 1.0
C      1  0.5879350000000  0.4619970000000  0.5385170000000 1.0
C      1  0.4652960000000  0.5707660000000  0.4514720000000 1.0
C      1  0.4784260000000  0.5318230000000  0.6126520000000 1.0
C      1  0.4472130000000  0.4843100000000  0.5491690000000 1.0
C      1  0.4204980000000  0.5038280000000  0.4606590000000 1.0
C      1  0.4949780000000  0.5056980000000  0.6097880000000 1.0
C      1  0.5331580000000  0.4135980000000  0.5439600000000 1.0
C      1  0.5120160000000  0.4704400000000  0.4533550000000 1.0
C      1  0.4065200000000  0.4603090000000  0.5137340000000 1.0
C      1  0.4932910000000  0.5153010000000  0.3912100000000 1.0
C      1  0.4101480000000  0.4813900000000  0.4944220000000 1.0
C      1  0.5582710000000  0.5465900000000  0.4175420000000 1.0
C      1  0.3961400000000  0.5107030000000  0.5513490000000 1.0
C      1  0.5745770000000  0.4931330000000  0.5332710000000 1.0
C      1  0.4486440000000  0.4139700000000  0.5364040000000 1.0
C      1  0.5005460000000  0.5455330000000  0.4297870000000 1.0
C      1  0.4707310000000  0.4338550000000  0.5822240000000 1.0
C      1  0.5291770000000  0.5991490000000  0.4950540000000 1.0
C      1  0.5331010000000  0.4146200000000  0.4675160000000 1.0
C      1  0.5237910000000  0.4357950000000  0.5679530000000 1.0
C      1  0.5566470000000  0.5098050000000  0.5774120000000 1.0
C      1  0.4797130000000  0.3992910000000  0.4912330000000 1.0
C      1  0.4745890000000  0.5037340000000  0.5545910000000 1.0
C      1  0.5552500000000  0.4274980000000  0.5221570000000 1.0
C      1  0.4559560000000  0.5415920000000  0.4477570000000 1.0
C      1  0.4955400000000  0.4500920000000  0.5356190000000 1.0
C      1  0.4266950000000  0.5343170000000  0.4469260000000 1.0
C      1  0.4976280000000  0.5257380000000  0.4648240000000 1.0
C      1  0.5764640000000  0.5537380000000  0.5441910000000 1.0
C      1  0.5640640000000  0.5734510000000  0.5204120000000 1.0
C      1  0.4328980000000  0.4442160000000  0.5010460000000 1.0
C      1  0.5622510000000  0.4474600000000  0.4428870000000 1.0
C      1  0.3882990000000  0.5081250000000  0.4561040000000 1.0
C      1  0.5235800000000  0.4453700000000  0.4723920000000 1.0
C      1  0.4991280000000  0.4479500000000  0.5037250000000 1.0
C      1  0.4506440000000  0.5640750000000  0.5654120000000 1.0
C      1  0.5383370000000  0.5118190000000  0.4481730000000 1.0
C      1  0.4291810000000  0.4470220000000  0.4695340000000 1.0
C      1  0.4504040000000  0.5634250000000  0.5255400000000 1.0
C      1  0.5371720000000  0.4615270000000  0.5857080000000 1.0
C      1  0.5448680000000  0.4754280000000  0.4924610000000 1.0
C      1  0.6175970000000  0.5138280000000  0.4828820000000 1.0
C      1  0.5712890000000  0.5725600000000  0.4649970000000 1.0
C      1  0.4844210000000  0.5903270000000  0.4952200000000 1.0
C      1  0.5745910000000  0.5128680000000  0.4819420000000 1.0
C      1  0.4913330000000  0.4980700000000  0.4828830000000 1.0
C      1  0.5758370000000  0.5533690000000  0.4416980000000 1.0
C      1  0.4911830000000  0.4428960000000  0.4731500000000 1.0
C      1  0.4724090000000  0.5854910000000  0.5503550000000 1.0
C      1  0.4608420000000  0.5944930000000  0.5195450000000 1.0
C      1  0.5569370000000  0.5259050000000  0.5062080000000 1.0
END
