TITL C-2848495-5024-646 0.000116862178937242 125000 -553.118344001164 0 0 102 (C1) n - 1
REM
REM in /home/bkarasulu/work/CARBON/AIRSS/Generating-Clusters/AIREBO/with-SteepDescent/Only-C1/SD-CG-opt/Try1-1.4A-POS3A/HFTN-CG
REM
REM
REM
REM
REM
REM ./C.cell (11c1c37f851c82e70ff6c80c92926a4b)
REM
REM compiler GCC version 9.2.1 20190827 (Red Hat 9.2.1-1)
REM options -cpp -mtune=generic -march=x86-64 -g -O0 -fpre-include=/usr/include/finclude/math-vector-fortran.h
REM seed -1550605569 -576347560 298805440 -435381983 471720654 -544380144 -308682826 1680992460 -1107749985 1088612463 -1701190244 539373031 413732713 -1252321272 665267220 1628631606 -204838105 -1327232783 416315296 -996664292 -994248005 779131246 418799487 523303573 -1864879865 160841512 -1439223431 1304150531 868335280 696234829 644409732 -1537453934 1391080139
REM
CELL 1.54180   50.00000   50.00000   50.00000   90.00000   90.00000   90.00000
LATT -1
SFAC C  
C      1  0.5229720000000  0.4600760000000  0.5022780000000 1.0
C      1  0.4377880000000  0.4827530000000  0.4318460000000 1.0
C      1  0.5228230000000  0.4526890000000  0.4204850000000 1.0
C      1  0.5769190000000  0.4979100000000  0.4713230000000 1.0
C      1  0.4558440000000  0.5073800000000  0.5121820000000 1.0
C      1  0.4902350000000  0.4809040000000  0.5890290000000 1.0
C      1  0.4942500000000  0.4428130000000  0.5582820000000 1.0
C      1  0.4339190000000  0.4768850000000  0.4633630000000 1.0
C      1  0.5951980000000  0.4705380000000  0.4627980000000 1.0
C      1  0.5612710000000  0.4684990000000  0.4637190000000 1.0
C      1  0.5764510000000  0.5130860000000  0.5413960000000 1.0
C      1  0.4917850000000  0.5594950000000  0.4471100000000 1.0
C      1  0.5858970000000  0.5499880000000  0.5114690000000 1.0
C      1  0.5260480000000  0.5252860000000  0.5770040000000 1.0
C      1  0.5610140000000  0.4675350000000  0.5400240000000 1.0
C      1  0.4929110000000  0.5231920000000  0.4999080000000 1.0
C      1  0.4664810000000  0.4724740000000  0.4228680000000 1.0
C      1  0.5340720000000  0.4823310000000  0.4128620000000 1.0
C      1  0.4230940000000  0.5083160000000  0.5038270000000 1.0
C      1  0.4645220000000  0.4676480000000  0.5928340000000 1.0
C      1  0.5468590000000  0.5239730000000  0.5501420000000 1.0
C      1  0.5770670000000  0.5465050000000  0.4641040000000 1.0
C      1  0.4944730000000  0.5863570000000  0.5136960000000 1.0
C      1  0.5337590000000  0.5495250000000  0.5067260000000 1.0
C      1  0.5209200000000  0.5635590000000  0.4459870000000 1.0
C      1  0.5250360000000  0.5087610000000  0.5289440000000 1.0
C      1  0.4729880000000  0.5520370000000  0.4970620000000 1.0
C      1  0.4593740000000  0.5030830000000  0.4475210000000 1.0
C      1  0.4880780000000  0.4711090000000  0.4483510000000 1.0
C      1  0.5832220000000  0.5220310000000  0.5154640000000 1.0
C      1  0.4889390000000  0.5607450000000  0.5752900000000 1.0
C      1  0.5807350000000  0.4859990000000  0.5476090000000 1.0
C      1  0.5441210000000  0.4229270000000  0.5311920000000 1.0
C      1  0.4395040000000  0.5861000000000  0.4797280000000 1.0
C      1  0.5217450000000  0.4318470000000  0.5197210000000 1.0
C      1  0.5588130000000  0.4257620000000  0.4873490000000 1.0
C      1  0.4788690000000  0.5202720000000  0.4304090000000 1.0
C      1  0.5396690000000  0.4706250000000  0.4440070000000 1.0
C      1  0.4972490000000  0.5327360000000  0.5661070000000 1.0
C      1  0.5686870000000  0.4016570000000  0.4903490000000 1.0
C      1  0.5396890000000  0.4782710000000  0.5255030000000 1.0
C      1  0.4595380000000  0.5031750000000  0.4789930000000 1.0
C      1  0.5711140000000  0.5647300000000  0.5330350000000 1.0
C      1  0.4427880000000  0.4313440000000  0.5135800000000 1.0
C      1  0.4302650000000  0.5414650000000  0.5014270000000 1.0
C      1  0.5007520000000  0.5405470000000  0.4717350000000 1.0
C      1  0.4969180000000  0.4758140000000  0.5174490000000 1.0
C      1  0.4614300000000  0.3883340000000  0.4884270000000 1.0
C      1  0.4704590000000  0.4900200000000  0.5451030000000 1.0
C      1  0.4467480000000  0.5587090000000  0.4796530000000 1.0
C      1  0.4279140000000  0.4780390000000  0.5185320000000 1.0
C      1  0.4776260000000  0.5850040000000  0.5363660000000 1.0
C      1  0.4867340000000  0.4928150000000  0.4916130000000 1.0
C      1  0.5620380000000  0.5654030000000  0.4927750000000 1.0
C      1  0.5747240000000  0.5080410000000  0.5988870000000 1.0
C      1  0.5463120000000  0.5527670000000  0.5357730000000 1.0
C      1  0.4449780000000  0.5472000000000  0.4518520000000 1.0
C      1  0.5495130000000  0.5655070000000  0.4625860000000 1.0
C      1  0.4758530000000  0.4982280000000  0.4071970000000 1.0
C      1  0.4269900000000  0.5071780000000  0.4719090000000 1.0
C      1  0.5058550000000  0.5607540000000  0.4978460000000 1.0
C      1  0.4241510000000  0.4493010000000  0.5033200000000 1.0
C      1  0.5602890000000  0.4399640000000  0.5456770000000 1.0
C      1  0.5672080000000  0.5093570000000  0.4965790000000 1.0
C      1  0.4237240000000  0.5112660000000  0.4259030000000 1.0
C      1  0.4559500000000  0.5679350000000  0.5334770000000 1.0
C      1  0.4577810000000  0.4636880000000  0.4842430000000 1.0
C      1  0.5274070000000  0.5115930000000  0.4700610000000 1.0
C      1  0.4925900000000  0.4363890000000  0.5263490000000 1.0
C      1  0.5790320000000  0.5212720000000  0.4523830000000 1.0
C      1  0.4516590000000  0.5037300000000  0.5591050000000 1.0
C      1  0.4505970000000  0.4539710000000  0.5670310000000 1.0
C      1  0.5557220000000  0.5136390000000  0.5830740000000 1.0
C      1  0.5648340000000  0.5934550000000  0.4999730000000 1.0
C      1  0.4613840000000  0.4460760000000  0.5357530000000 1.0
C      1  0.4302800000000  0.5554710000000  0.5250910000000 1.0
C      1  0.4510680000000  0.4412320000000  0.4595930000000 1.0
C      1  0.5340990000000  0.5095580000000  0.4306180000000 1.0
C      1  0.4680830000000  0.5484290000000  0.4360430000000 1.0
C      1  0.4220820000000  0.4489390000000  0.4752970000000 1.0
C      1  0.4653070000000  0.5361830000000  0.5256800000000 1.0
C      1  0.4974780000000  0.5282190000000  0.5332980000000 1.0
C      1  0.4276590000000  0.4712980000000  0.5504420000000 1.0
C      1  0.5020000000000  0.4672000000000  0.5672440000000 1.0
C      1  0.4781720000000  0.4408560000000  0.4975740000000 1.0
C      1  0.4996350000000  0.5074570000000  0.5888960000000 1.0
C      1  0.4650900000000  0.4413200000000  0.4356960000000 1.0
C      1  0.5403170000000  0.5363800000000  0.4505750000000 1.0
C      1  0.5038980000000  0.4877540000000  0.5453250000000 1.0
C      1  0.4881990000000  0.5847480000000  0.5624280000000 1.0
C      1  0.5506710000000  0.4510800000000  0.4859120000000 1.0
C      1  0.5172930000000  0.4840250000000  0.4600280000000 1.0
C      1  0.5050980000000  0.5192320000000  0.4455490000000 1.0
C      1  0.4265170000000  0.5266150000000  0.4487890000000 1.0
C      1  0.4974880000000  0.4625980000000  0.4798960000000 1.0
C      1  0.5667930000000  0.5170440000000  0.4282130000000 1.0
C      1  0.4498360000000  0.5303260000000  0.5542980000000 1.0
C      1  0.4616220000000  0.4740650000000  0.5164090000000 1.0
C      1  0.5375190000000  0.5173650000000  0.4984700000000 1.0
C      1  0.4967530000000  0.4472010000000  0.4274260000000 1.0
C      1  0.4594960000000  0.4139120000000  0.4962600000000 1.0
C      1  0.4533770000000  0.4211050000000  0.5574150000000 1.0
END
