TITL C-2847956-8218-7 0.00264335525384342 125000 -497.624859189781 0 0 93 (C1) n - 1
REM
REM in /home/bkarasulu/work/CARBON/AIRSS/Generating-Clusters/AIREBO/with-SteepDescent/Only-C1/SD-CG-opt/Try1-1.4A-POS3A/HFTN-CG
REM
REM
REM
REM
REM
REM ./C.cell (11c1c37f851c82e70ff6c80c92926a4b)
REM
REM compiler GCC version 9.2.1 20190827 (Red Hat 9.2.1-1)
REM options -cpp -mtune=generic -march=x86-64 -g -O0 -fpre-include=/usr/include/finclude/math-vector-fortran.h
REM seed -1296947213 -2052530710 -1986311478 -1513749192 -1790441296 85166535 458000686 -2097775545 84892727 -1342047831 575045073 1559861124 -1036053719 -2043128270 1902099648 1540756214 -443514639 1527948584 706133455 307706242 -1818043503 2018362719 1410702457 1054094205 617651462 -1530307177 -1005147294 -196928789 1386590252 47341584 -2030876819 -465336927 -389900982
REM
CELL 1.54180   50.00000   50.00000   50.00000   90.00000   90.00000   90.00000
LATT -1
SFAC C  
C      1  0.5556120000000  0.4376190000000  0.4751480000000 1.0
C      1  0.4594930000000  0.4588940000000  0.4890160000000 1.0
C      1  0.5411420000000  0.5676770000000  0.4657480000000 1.0
C      1  0.4902140000000  0.4565520000000  0.5594800000000 1.0
C      1  0.4397470000000  0.4851970000000  0.4319140000000 1.0
C      1  0.4810730000000  0.5519670000000  0.5464510000000 1.0
C      1  0.5352350000000  0.4952820000000  0.5795990000000 1.0
C      1  0.4317400000000  0.5388340000000  0.4992930000000 1.0
C      1  0.4850950000000  0.4421680000000  0.4941660000000 1.0
C      1  0.4810080000000  0.5015690000000  0.4973400000000 1.0
C      1  0.5008820000000  0.4941100000000  0.5336050000000 1.0
C      1  0.5455910000000  0.5114660000000  0.5116060000000 1.0
C      1  0.5070430000000  0.5980670000000  0.4843880000000 1.0
C      1  0.4498210000000  0.4748560000000  0.5374880000000 1.0
C      1  0.4969650000000  0.4264440000000  0.5284390000000 1.0
C      1  0.5136670000000  0.5332530000000  0.5729110000000 1.0
C      1  0.4871090000000  0.5967830000000  0.5097320000000 1.0
C      1  0.5527290000000  0.5184580000000  0.4651700000000 1.0
C      1  0.5242210000000  0.5662290000000  0.5148420000000 1.0
C      1  0.4929610000000  0.4870840000000  0.4234220000000 1.0
C      1  0.5325120000000  0.4838280000000  0.5264890000000 1.0
C      1  0.4510560000000  0.5481940000000  0.5396740000000 1.0
C      1  0.4709540000000  0.4722140000000  0.5769080000000 1.0
C      1  0.4309860000000  0.4443170000000  0.4941120000000 1.0
C      1  0.5708700000000  0.5401860000000  0.5497650000000 1.0
C      1  0.5700240000000  0.4601350000000  0.4961560000000 1.0
C      1  0.4535520000000  0.4295940000000  0.5145250000000 1.0
C      1  0.5217640000000  0.5004440000000  0.4282460000000 1.0
C      1  0.4274910000000  0.4761840000000  0.4550790000000 1.0
C      1  0.4472120000000  0.5569500000000  0.5130850000000 1.0
C      1  0.5724010000000  0.4944210000000  0.4743830000000 1.0
C      1  0.4711620000000  0.5680550000000  0.5009390000000 1.0
C      1  0.5771500000000  0.4621080000000  0.4648860000000 1.0
C      1  0.4086270000000  0.4619470000000  0.5094740000000 1.0
C      1  0.4345060000000  0.4824040000000  0.5091570000000 1.0
C      1  0.5068560000000  0.5023270000000  0.4576400000000 1.0
C      1  0.5301120000000  0.5186640000000  0.4864870000000 1.0
C      1  0.4400670000000  0.4936340000000  0.4784870000000 1.0
C      1  0.5639970000000  0.5494340000000  0.4647320000000 1.0
C      1  0.4925970000000  0.5529900000000  0.5751320000000 1.0
C      1  0.4738830000000  0.4512480000000  0.5314560000000 1.0
C      1  0.5306940000000  0.5820160000000  0.4881330000000 1.0
C      1  0.5332660000000  0.5273540000000  0.4414400000000 1.0
C      1  0.5226410000000  0.5268490000000  0.5403450000000 1.0
C      1  0.5106650000000  0.4736930000000  0.5805520000000 1.0
C      1  0.4907640000000  0.4603560000000  0.4165400000000 1.0
C      1  0.5871920000000  0.5036590000000  0.4997190000000 1.0
C      1  0.5229030000000  0.5535580000000  0.4478390000000 1.0
C      1  0.4567180000000  0.4497410000000  0.4484530000000 1.0
C      1  0.4361650000000  0.5226920000000  0.5477090000000 1.0
C      1  0.5040310000000  0.5067550000000  0.5856280000000 1.0
C      1  0.4691210000000  0.4128960000000  0.4575140000000 1.0
C      1  0.4853680000000  0.5800080000000  0.4739730000000 1.0
C      1  0.4591300000000  0.5267460000000  0.4245520000000 1.0
C      1  0.5356400000000  0.4409580000000  0.5024610000000 1.0
C      1  0.4627260000000  0.4200380000000  0.4830970000000 1.0
C      1  0.4908350000000  0.4716370000000  0.5101470000000 1.0
C      1  0.5732910000000  0.5077190000000  0.5468340000000 1.0
C      1  0.5246250000000  0.4287620000000  0.4670130000000 1.0
C      1  0.5218620000000  0.4710790000000  0.4962440000000 1.0
C      1  0.5194030000000  0.4308350000000  0.5461940000000 1.0
C      1  0.5426500000000  0.4804950000000  0.4720300000000 1.0
C      1  0.4998260000000  0.4751800000000  0.4706430000000 1.0
C      1  0.5014830000000  0.5317740000000  0.4736380000000 1.0
C      1  0.5406140000000  0.5465260000000  0.5614690000000 1.0
C      1  0.4925560000000  0.5581800000000  0.4541580000000 1.0
C      1  0.4556440000000  0.5080900000000  0.5162320000000 1.0
C      1  0.4663190000000  0.4771720000000  0.4644420000000 1.0
C      1  0.4485640000000  0.4976480000000  0.5558110000000 1.0
C      1  0.5473300000000  0.5565340000000  0.5300000000000 1.0
C      1  0.5665410000000  0.5332380000000  0.5169930000000 1.0
C      1  0.4959620000000  0.5757500000000  0.5313470000000 1.0
C      1  0.4417370000000  0.5417630000000  0.4469170000000 1.0
C      1  0.5094140000000  0.4226280000000  0.4968190000000 1.0
C      1  0.5064030000000  0.5193460000000  0.5113300000000 1.0
C      1  0.4780890000000  0.5187670000000  0.5394620000000 1.0
C      1  0.4404940000000  0.5262900000000  0.4739170000000 1.0
C      1  0.5445640000000  0.4352570000000  0.5317270000000 1.0
C      1  0.4699360000000  0.5534670000000  0.4363170000000 1.0
C      1  0.5808110000000  0.4919660000000  0.5249480000000 1.0
C      1  0.4714570000000  0.5163970000000  0.4693910000000 1.0
C      1  0.4771460000000  0.5029250000000  0.5695680000000 1.0
C      1  0.5089870000000  0.4495740000000  0.4509000000000 1.0
C      1  0.4975390000000  0.5495090000000  0.5019440000000 1.0
C      1  0.5939720000000  0.5318170000000  0.5002240000000 1.0
C      1  0.5229900000000  0.4625880000000  0.5512950000000 1.0
C      1  0.4830790000000  0.4363880000000  0.4374230000000 1.0
C      1  0.5436560000000  0.5029520000000  0.5523150000000 1.0
C      1  0.5626760000000  0.4691280000000  0.5209140000000 1.0
C      1  0.4235680000000  0.5189730000000  0.5193210000000 1.0
C      1  0.4296950000000  0.4473860000000  0.4624760000000 1.0
C      1  0.5308270000000  0.4729770000000  0.4455080000000 1.0
C      1  0.4693040000000  0.5001730000000  0.4395650000000 1.0
END
