TITL C-2848499-1157-617 -0.00158562714851054 125000 -372.430431819942 0 0 69 (C1) n - 1
REM
REM in /home/bkarasulu/work/CARBON/AIRSS/Generating-Clusters/AIREBO/with-SteepDescent/Only-C1/SD-CG-opt/Try1-1.4A-POS3A/HFTN-CG
REM
REM
REM
REM
REM
REM ./C.cell (11c1c37f851c82e70ff6c80c92926a4b)
REM
REM compiler GCC version 9.2.1 20190827 (Red Hat 9.2.1-1)
REM options -cpp -mtune=generic -march=x86-64 -g -O0 -fpre-include=/usr/include/finclude/math-vector-fortran.h
REM seed 459775752 -1457885877 -1962324145 -421799213 -1431992628 1227906922 -1521327975 -1124031494 468986142 1818979923 -1023328626 35952602 315648700 673424933 -1913842155 1202864312 1155891199 1775844817 2111411623 338333055 -808965821 -429199251 177494224 1891123449 -1576629398 -1632305077 785346269 1776882770 586001907 -1849597692 18854552 -1987696803 1865121424
REM
CELL 1.54180   50.00000   50.00000   50.00000   90.00000   90.00000   90.00000
LATT -1
SFAC C  
C      1  0.5413530000000  0.5590580000000  0.5398500000000 1.0
C      1  0.4980730000000  0.5288270000000  0.5767690000000 1.0
C      1  0.4605750000000  0.5593120000000  0.5165560000000 1.0
C      1  0.4373270000000  0.4899160000000  0.4463450000000 1.0
C      1  0.5460790000000  0.4867750000000  0.4674070000000 1.0
C      1  0.5042400000000  0.4495580000000  0.5351810000000 1.0
C      1  0.5477700000000  0.4340640000000  0.5047640000000 1.0
C      1  0.5113380000000  0.5175260000000  0.5063070000000 1.0
C      1  0.4566220000000  0.5685670000000  0.4849570000000 1.0
C      1  0.4897420000000  0.4753910000000  0.4431070000000 1.0
C      1  0.5528940000000  0.5292410000000  0.5417500000000 1.0
C      1  0.4313960000000  0.5421850000000  0.5131800000000 1.0
C      1  0.4408140000000  0.5164770000000  0.5579720000000 1.0
C      1  0.4842090000000  0.4816990000000  0.5231450000000 1.0
C      1  0.4687030000000  0.4879440000000  0.4868310000000 1.0
C      1  0.4796540000000  0.5720060000000  0.4668740000000 1.0
C      1  0.5101980000000  0.5502220000000  0.4962140000000 1.0
C      1  0.5375790000000  0.5655770000000  0.4966720000000 1.0
C      1  0.5366850000000  0.4420860000000  0.5286820000000 1.0
C      1  0.4741650000000  0.4599320000000  0.5472620000000 1.0
C      1  0.5549650000000  0.4590920000000  0.4850410000000 1.0
C      1  0.4791850000000  0.5145220000000  0.4967120000000 1.0
C      1  0.5223920000000  0.4659850000000  0.4919360000000 1.0
C      1  0.5131720000000  0.4784250000000  0.4641500000000 1.0
C      1  0.4523640000000  0.5431490000000  0.4627670000000 1.0
C      1  0.4689090000000  0.4925670000000  0.4570010000000 1.0
C      1  0.5386940000000  0.4740640000000  0.5326970000000 1.0
C      1  0.4439950000000  0.5440680000000  0.5427700000000 1.0
C      1  0.5599730000000  0.5150560000000  0.5156240000000 1.0
C      1  0.4373800000000  0.4813870000000  0.4983220000000 1.0
C      1  0.5141290000000  0.4851320000000  0.5156800000000 1.0
C      1  0.5085890000000  0.5288360000000  0.4459440000000 1.0
C      1  0.5067240000000  0.4377280000000  0.4685090000000 1.0
C      1  0.4994810000000  0.5533610000000  0.4676790000000 1.0
C      1  0.4769200000000  0.4291430000000  0.5145020000000 1.0
C      1  0.5647770000000  0.4861950000000  0.5223660000000 1.0
C      1  0.4381400000000  0.4748310000000  0.5305850000000 1.0
C      1  0.4610090000000  0.4514000000000  0.4728850000000 1.0
C      1  0.5421350000000  0.4910480000000  0.4278480000000 1.0
C      1  0.4700480000000  0.4581110000000  0.5031020000000 1.0
C      1  0.5735950000000  0.5335630000000  0.4929620000000 1.0
C      1  0.4386380000000  0.4690930000000  0.4684120000000 1.0
C      1  0.4545030000000  0.4853440000000  0.5584910000000 1.0
C      1  0.5455850000000  0.5069910000000  0.5667270000000 1.0
C      1  0.5548520000000  0.5499700000000  0.4793020000000 1.0
C      1  0.4835210000000  0.4485280000000  0.4568320000000 1.0
C      1  0.5373090000000  0.4808300000000  0.5627490000000 1.0
C      1  0.5432050000000  0.4637090000000  0.4425850000000 1.0
C      1  0.5018130000000  0.5311270000000  0.5359780000000 1.0
C      1  0.4531350000000  0.5295210000000  0.4910490000000 1.0
C      1  0.5717840000000  0.4983020000000  0.4554910000000 1.0
C      1  0.5300290000000  0.4402900000000  0.4519050000000 1.0
C      1  0.5210810000000  0.4565290000000  0.5638860000000 1.0
C      1  0.5234210000000  0.5287290000000  0.5586940000000 1.0
C      1  0.4896570000000  0.5590270000000  0.5218370000000 1.0
C      1  0.4773230000000  0.5237140000000  0.4503010000000 1.0
C      1  0.4770880000000  0.5094420000000  0.5361600000000 1.0
C      1  0.4446450000000  0.5193620000000  0.4406590000000 1.0
C      1  0.5396320000000  0.5129520000000  0.4882360000000 1.0
C      1  0.4716180000000  0.4276270000000  0.5424340000000 1.0
C      1  0.4791840000000  0.5140660000000  0.5684180000000 1.0
C      1  0.4258750000000  0.5117030000000  0.4999730000000 1.0
C      1  0.5056520000000  0.4399890000000  0.5024370000000 1.0
C      1  0.4467950000000  0.5077860000000  0.5264880000000 1.0
C      1  0.5772910000000  0.4705100000000  0.5035540000000 1.0
C      1  0.4978290000000  0.4907530000000  0.4176770000000 1.0
C      1  0.5195360000000  0.5678570000000  0.5322960000000 1.0
C      1  0.5341450000000  0.5343440000000  0.4640330000000 1.0
C      1  0.5188630000000  0.5078800000000  0.4244870000000 1.0
END
