TITL C-2848509-3138-49 -2.01568888963757e-06 125000 -845.11528843072 0 0 155 (C1) n - 1
REM
REM in /home/bkarasulu/work/CARBON/AIRSS/Generating-Clusters/AIREBO/with-SteepDescent/Only-C1/SD-CG-opt/Try1-1.4A-POS3A/HFTN-CG
REM
REM
REM
REM
REM
REM ./C.cell (11c1c37f851c82e70ff6c80c92926a4b)
REM
REM compiler GCC version 9.2.1 20190827 (Red Hat 9.2.1-1)
REM options -cpp -mtune=generic -march=x86-64 -g -O0 -fpre-include=/usr/include/finclude/math-vector-fortran.h
REM seed -556599123 -1206188626 -1878803066 1100552032 549185725 486493103 -1964344703 -297476123 1862094313 1597544991 1665814007 182530728 -1400850437 -1697212613 -1958765271 1657489820 1434473261 1972844493 1512842767 1112542146 1455167991 1298442654 139018264 542173473 1038792216 1524498741 -569179299 -1133473841 2102252234 663471427 -1390519643 792662942 1653889048
REM
CELL 1.54180   50.00000   50.00000   50.00000   90.00000   90.00000   90.00000
LATT -1
SFAC C  
C      1  0.5279670000000  0.4637480000000  0.4385710000000 1.0
C      1  0.5502800000000  0.5504100000000  0.5983400000000 1.0
C      1  0.4953580000000  0.4649850000000  0.5299120000000 1.0
C      1  0.5551450000000  0.4913260000000  0.4945980000000 1.0
C      1  0.5412350000000  0.4341990000000  0.5847660000000 1.0
C      1  0.4321720000000  0.5477010000000  0.5396930000000 1.0
C      1  0.4785800000000  0.5518770000000  0.4825290000000 1.0
C      1  0.4499050000000  0.5443960000000  0.4360860000000 1.0
C      1  0.4908010000000  0.5756540000000  0.5849470000000 1.0
C      1  0.4348570000000  0.4369140000000  0.5166440000000 1.0
C      1  0.4504920000000  0.4969280000000  0.5385750000000 1.0
C      1  0.5185740000000  0.4694610000000  0.4063490000000 1.0
C      1  0.5545360000000  0.5620560000000  0.4914850000000 1.0
C      1  0.4735070000000  0.6037330000000  0.4846600000000 1.0
C      1  0.4192830000000  0.4989230000000  0.5365720000000 1.0
C      1  0.4550120000000  0.5740970000000  0.4518450000000 1.0
C      1  0.5367520000000  0.4904460000000  0.5850570000000 1.0
C      1  0.6129240000000  0.5047510000000  0.5047210000000 1.0
C      1  0.4445410000000  0.4369940000000  0.4411910000000 1.0
C      1  0.4927020000000  0.4670520000000  0.5998690000000 1.0
C      1  0.4876940000000  0.6088760000000  0.4621970000000 1.0
C      1  0.5183140000000  0.5118220000000  0.4264440000000 1.0
C      1  0.5337200000000  0.4441760000000  0.4928030000000 1.0
C      1  0.4313950000000  0.4987960000000  0.4860920000000 1.0
C      1  0.5312610000000  0.5431250000000  0.5422420000000 1.0
C      1  0.5730120000000  0.4512170000000  0.5532430000000 1.0
C      1  0.4141940000000  0.5277150000000  0.5287230000000 1.0
C      1  0.5763120000000  0.5003110000000  0.5385290000000 1.0
C      1  0.5173590000000  0.5900100000000  0.5057390000000 1.0
C      1  0.4656300000000  0.5865780000000  0.5376780000000 1.0
C      1  0.5546450000000  0.4861630000000  0.4616170000000 1.0
C      1  0.5214400000000  0.4739250000000  0.5498180000000 1.0
C      1  0.4405300000000  0.4924540000000  0.5875230000000 1.0
C      1  0.4615200000000  0.4140060000000  0.4489180000000 1.0
C      1  0.4664990000000  0.4555190000000  0.6039690000000 1.0
C      1  0.6066260000000  0.5291480000000  0.4915370000000 1.0
C      1  0.4584580000000  0.5271580000000  0.4710100000000 1.0
C      1  0.4498250000000  0.4964200000000  0.4033630000000 1.0
C      1  0.4999580000000  0.4949540000000  0.4064500000000 1.0
C      1  0.4508630000000  0.4960550000000  0.4621550000000 1.0
C      1  0.4218510000000  0.5777530000000  0.5106380000000 1.0
C      1  0.4518120000000  0.4525090000000  0.5540110000000 1.0
C      1  0.5035070000000  0.4108620000000  0.5210750000000 1.0
C      1  0.4654590000000  0.4133640000000  0.4886890000000 1.0
C      1  0.4521550000000  0.5632190000000  0.5169530000000 1.0
C      1  0.5005440000000  0.5404210000000  0.4312530000000 1.0
C      1  0.5303640000000  0.5821650000000  0.4516930000000 1.0
C      1  0.4859260000000  0.5448930000000  0.5750980000000 1.0
C      1  0.5015990000000  0.4602650000000  0.4598670000000 1.0
C      1  0.5442720000000  0.4539920000000  0.4658760000000 1.0
C      1  0.5536570000000  0.4605180000000  0.5082690000000 1.0
C      1  0.5796200000000  0.5407630000000  0.4496820000000 1.0
C      1  0.4472710000000  0.4655920000000  0.5851050000000 1.0
C      1  0.5044770000000  0.4036360000000  0.4878500000000 1.0
C      1  0.4854290000000  0.4922620000000  0.4371700000000 1.0
C      1  0.4246430000000  0.4776280000000  0.5107850000000 1.0
C      1  0.4225160000000  0.4344590000000  0.4859800000000 1.0
C      1  0.4676650000000  0.5464990000000  0.4096320000000 1.0
C      1  0.5862100000000  0.4881500000000  0.5080870000000 1.0
C      1  0.5606120000000  0.5496950000000  0.5516480000000 1.0
C      1  0.5284440000000  0.5123550000000  0.4889590000000 1.0
C      1  0.5006770000000  0.5915520000000  0.4455930000000 1.0
C      1  0.4649620000000  0.4515790000000  0.5226630000000 1.0
C      1  0.5433530000000  0.5330050000000  0.4663720000000 1.0
C      1  0.5124890000000  0.4238860000000  0.4374900000000 1.0
C      1  0.4533040000000  0.5225540000000  0.5809990000000 1.0
C      1  0.5114700000000  0.4835620000000  0.4826490000000 1.0
C      1  0.5171450000000  0.5089700000000  0.5878420000000 1.0
C      1  0.4706390000000  0.4717710000000  0.4681060000000 1.0
C      1  0.4209850000000  0.4487100000000  0.5428590000000 1.0
C      1  0.4207500000000  0.4427510000000  0.4548210000000 1.0
C      1  0.4919680000000  0.5286880000000  0.5119900000000 1.0
C      1  0.4636370000000  0.5759420000000  0.5645750000000 1.0
C      1  0.4121570000000  0.4702770000000  0.4502730000000 1.0
C      1  0.5901150000000  0.4390580000000  0.5291860000000 1.0
C      1  0.4766940000000  0.5470090000000  0.5340480000000 1.0
C      1  0.5191350000000  0.5611380000000  0.5913720000000 1.0
C      1  0.4980620000000  0.5360700000000  0.3976070000000 1.0
C      1  0.5826060000000  0.4783810000000  0.5613150000000 1.0
C      1  0.5030410000000  0.5604220000000  0.5501300000000 1.0
C      1  0.5506790000000  0.5339740000000  0.4331780000000 1.0
C      1  0.5639500000000  0.5355260000000  0.5764270000000 1.0
C      1  0.5329840000000  0.4142170000000  0.4946960000000 1.0
C      1  0.5703400000000  0.5404890000000  0.5033680000000 1.0
C      1  0.5241760000000  0.5352350000000  0.5727880000000 1.0
C      1  0.4506380000000  0.5321480000000  0.5032230000000 1.0
C      1  0.5207720000000  0.5516630000000  0.4528320000000 1.0
C      1  0.5973510000000  0.5521390000000  0.5121500000000 1.0
C      1  0.3949430000000  0.5133850000000  0.4785130000000 1.0
C      1  0.5840030000000  0.4637180000000  0.4472480000000 1.0
C      1  0.4893940000000  0.4948220000000  0.5143030000000 1.0
C      1  0.4045900000000  0.5268540000000  0.4558390000000 1.0
C      1  0.5236660000000  0.5821490000000  0.5435480000000 1.0
C      1  0.5031570000000  0.4411580000000  0.4172020000000 1.0
C      1  0.4993650000000  0.5611470000000  0.5045950000000 1.0
C      1  0.4252370000000  0.5207630000000  0.4336300000000 1.0
C      1  0.4951480000000  0.4419430000000  0.5681990000000 1.0
C      1  0.5649570000000  0.4198900000000  0.4600300000000 1.0
C      1  0.5480550000000  0.5002440000000  0.4342810000000 1.0
C      1  0.4822380000000  0.4625640000000  0.4208970000000 1.0
C      1  0.5485460000000  0.4798830000000  0.4086290000000 1.0
C      1  0.5276620000000  0.5469540000000  0.4117600000000 1.0
C      1  0.5630280000000  0.5034100000000  0.5705030000000 1.0
C      1  0.5359690000000  0.4001190000000  0.5212240000000 1.0
C      1  0.5157090000000  0.4377560000000  0.5342890000000 1.0
C      1  0.4027190000000  0.4570080000000  0.4979360000000 1.0
C      1  0.4453400000000  0.5517670000000  0.5654930000000 1.0
C      1  0.4737210000000  0.4785040000000  0.5532110000000 1.0
C      1  0.4054630000000  0.4712480000000  0.5452870000000 1.0
C      1  0.4831780000000  0.5217130000000  0.4495720000000 1.0
C      1  0.3994220000000  0.5284300000000  0.5022350000000 1.0
C      1  0.4656070000000  0.5204960000000  0.5513090000000 1.0
C      1  0.5671810000000  0.4341840000000  0.5779660000000 1.0
C      1  0.5939380000000  0.5233620000000  0.4664610000000 1.0
C      1  0.5066710000000  0.4564450000000  0.4990060000000 1.0
C      1  0.4866990000000  0.4383190000000  0.4811520000000 1.0
C      1  0.4579060000000  0.4633980000000  0.4392300000000 1.0
C      1  0.5610040000000  0.4618590000000  0.4306070000000 1.0
C      1  0.5576450000000  0.5632520000000  0.4594730000000 1.0
C      1  0.4915500000000  0.4147140000000  0.4584160000000 1.0
C      1  0.4405040000000  0.4112940000000  0.4715390000000 1.0
C      1  0.5816680000000  0.4487370000000  0.5035900000000 1.0
C      1  0.4571270000000  0.5007500000000  0.5082520000000 1.0
C      1  0.6367640000000  0.4965650000000  0.5150470000000 1.0
C      1  0.5876540000000  0.4936140000000  0.4630170000000 1.0
C      1  0.4735520000000  0.4276520000000  0.5577220000000 1.0
C      1  0.5215470000000  0.4246390000000  0.5647510000000 1.0
C      1  0.4763710000000  0.4119030000000  0.5345920000000 1.0
C      1  0.5458510000000  0.5769940000000  0.5190540000000 1.0
C      1  0.5297590000000  0.5203360000000  0.5219930000000 1.0
C      1  0.4845460000000  0.5904750000000  0.5116090000000 1.0
C      1  0.5114810000000  0.5009130000000  0.5361660000000 1.0
C      1  0.4851220000000  0.5172550000000  0.5917560000000 1.0
C      1  0.4980620000000  0.5244320000000  0.4795880000000 1.0
C      1  0.4839570000000  0.4879940000000  0.5802800000000 1.0
C      1  0.5597740000000  0.5167600000000  0.5161080000000 1.0
C      1  0.4030380000000  0.4832390000000  0.4777800000000 1.0
C      1  0.5204400000000  0.4608630000000  0.5812040000000 1.0
C      1  0.4566350000000  0.4132310000000  0.5157420000000 1.0
C      1  0.4552970000000  0.4689740000000  0.4976980000000 1.0
C      1  0.5382530000000  0.5895460000000  0.4820370000000 1.0
C      1  0.5823620000000  0.4430490000000  0.4709620000000 1.0
C      1  0.5450160000000  0.4548070000000  0.5369560000000 1.0
C      1  0.5140300000000  0.4974110000000  0.4548270000000 1.0
C      1  0.5748790000000  0.5670320000000  0.5326220000000 1.0
C      1  0.4727120000000  0.5137960000000  0.4017940000000 1.0
C      1  0.4353830000000  0.4886930000000  0.4331660000000 1.0
C      1  0.4991240000000  0.5212090000000  0.5545530000000 1.0
C      1  0.4828460000000  0.5692910000000  0.4329100000000 1.0
C      1  0.6000640000000  0.4692710000000  0.4834230000000 1.0
C      1  0.4367910000000  0.5964480000000  0.4417710000000 1.0
C      1  0.4582260000000  0.5752580000000  0.4857050000000 1.0
C      1  0.4220820000000  0.5486690000000  0.4952800000000 1.0
C      1  0.4305270000000  0.5453350000000  0.4640200000000 1.0
C      1  0.5388550000000  0.4263090000000  0.4471050000000 1.0
END
