TITL C-2848501-3133-417 0.000485985764615936 125000 -993.893286580982 0 0 183 (C1) n - 1
REM
REM in /home/bkarasulu/work/CARBON/AIRSS/Generating-Clusters/AIREBO/with-SteepDescent/Only-C1/SD-CG-opt/Try1-1.4A-POS3A/HFTN-CG
REM
REM
REM
REM
REM
REM ./C.cell (11c1c37f851c82e70ff6c80c92926a4b)
REM
REM compiler GCC version 9.2.1 20190827 (Red Hat 9.2.1-1)
REM options -cpp -mtune=generic -march=x86-64 -g -O0 -fpre-include=/usr/include/finclude/math-vector-fortran.h
REM seed 87682483 -1720131560 -2141118987 -550748025 -1543201454 1333165455 -1075815842 1489925071 -1180091826 1526090182 205181001 -1877308698 492097820 -691458808 -623577495 -1035889753 980350613 -1593036712 -314290006 1553267959 -1703989928 -1549798113 -36431677 1692912867 658600906 791627981 2054818607 -1653893791 235529277 -1518698006 -1193246250 617183920 -1406626362
REM
CELL 1.54180   50.00000   50.00000   50.00000   90.00000   90.00000   90.00000
LATT -1
SFAC C  
C      1  0.5403440000000  0.5164910000000  0.4310770000000 1.0
C      1  0.4729920000000  0.4188720000000  0.5609100000000 1.0
C      1  0.5028920000000  0.4177080000000  0.4296820000000 1.0
C      1  0.5464560000000  0.5793050000000  0.5287950000000 1.0
C      1  0.4557900000000  0.5218460000000  0.3996320000000 1.0
C      1  0.5584870000000  0.5647680000000  0.5004260000000 1.0
C      1  0.5210180000000  0.4997810000000  0.5876800000000 1.0
C      1  0.4066620000000  0.4605960000000  0.5010830000000 1.0
C      1  0.5174640000000  0.5523590000000  0.4728010000000 1.0
C      1  0.5997170000000  0.5543280000000  0.4707280000000 1.0
C      1  0.4664680000000  0.5437070000000  0.4512260000000 1.0
C      1  0.4380540000000  0.4180270000000  0.4958780000000 1.0
C      1  0.5661690000000  0.4300130000000  0.4773990000000 1.0
C      1  0.5483860000000  0.5309270000000  0.5492760000000 1.0
C      1  0.4709960000000  0.5854040000000  0.4594210000000 1.0
C      1  0.5020630000000  0.5494160000000  0.5244390000000 1.0
C      1  0.4843080000000  0.4836280000000  0.5524870000000 1.0
C      1  0.5407620000000  0.4579600000000  0.6000770000000 1.0
C      1  0.5887690000000  0.5342410000000  0.4541990000000 1.0
C      1  0.4269260000000  0.5016410000000  0.4945550000000 1.0
C      1  0.5019810000000  0.4256770000000  0.5186490000000 1.0
C      1  0.5624320000000  0.4163960000000  0.5334130000000 1.0
C      1  0.5186240000000  0.5276010000000  0.5425530000000 1.0
C      1  0.4761380000000  0.5327080000000  0.5387510000000 1.0
C      1  0.4730090000000  0.4638830000000  0.4320470000000 1.0
C      1  0.4599580000000  0.4883050000000  0.4033450000000 1.0
C      1  0.4096790000000  0.5819370000000  0.5864410000000 1.0
C      1  0.5242770000000  0.4596800000000  0.4281540000000 1.0
C      1  0.4968990000000  0.4257790000000  0.4846510000000 1.0
C      1  0.4710070000000  0.5972300000000  0.5042970000000 1.0
C      1  0.5885330000000  0.5293140000000  0.5568710000000 1.0
C      1  0.3984970000000  0.4907980000000  0.4633110000000 1.0
C      1  0.5368760000000  0.4524860000000  0.5131380000000 1.0
C      1  0.5160600000000  0.4927720000000  0.4288670000000 1.0
C      1  0.5820310000000  0.4315290000000  0.5385750000000 1.0
C      1  0.3924560000000  0.5170160000000  0.4590850000000 1.0
C      1  0.4169150000000  0.5100170000000  0.5652460000000 1.0
C      1  0.4954520000000  0.3977010000000  0.4562630000000 1.0
C      1  0.4996700000000  0.5364350000000  0.4487750000000 1.0
C      1  0.5371020000000  0.4839450000000  0.6097420000000 1.0
C      1  0.4823590000000  0.5934100000000  0.5672190000000 1.0
C      1  0.4745270000000  0.5707420000000  0.4875170000000 1.0
C      1  0.5883200000000  0.5207860000000  0.5015470000000 1.0
C      1  0.4268290000000  0.4394330000000  0.5098130000000 1.0
C      1  0.6093830000000  0.4708190000000  0.5168970000000 1.0
C      1  0.5222700000000  0.4679320000000  0.3982130000000 1.0
C      1  0.4918010000000  0.5217590000000  0.4848140000000 1.0
C      1  0.4624540000000  0.3981650000000  0.4556360000000 1.0
C      1  0.4046980000000  0.5405200000000  0.4732760000000 1.0
C      1  0.4813110000000  0.4992270000000  0.5159790000000 1.0
C      1  0.5306400000000  0.4296070000000  0.4285650000000 1.0
C      1  0.3751040000000  0.4970280000000  0.5107310000000 1.0
C      1  0.5652620000000  0.5562910000000  0.5388410000000 1.0
C      1  0.5232060000000  0.4713740000000  0.5379170000000 1.0
C      1  0.5569810000000  0.4716340000000  0.5418580000000 1.0
C      1  0.4836800000000  0.4920560000000  0.5993270000000 1.0
C      1  0.5268490000000  0.5691860000000  0.4213510000000 1.0
C      1  0.5624490000000  0.4568900000000  0.5809290000000 1.0
C      1  0.6122200000000  0.5000750000000  0.5091220000000 1.0
C      1  0.4512490000000  0.4531510000000  0.5930020000000 1.0
C      1  0.6100470000000  0.4890340000000  0.4813050000000 1.0
C      1  0.5368460000000  0.5958770000000  0.5562330000000 1.0
C      1  0.4750960000000  0.4368650000000  0.5362260000000 1.0
C      1  0.5202160000000  0.4189880000000  0.4655070000000 1.0
C      1  0.4492090000000  0.4563450000000  0.5254980000000 1.0
C      1  0.4840760000000  0.4607230000000  0.5975990000000 1.0
C      1  0.5051160000000  0.5706720000000  0.5909440000000 1.0
C      1  0.4153700000000  0.5408050000000  0.5192010000000 1.0
C      1  0.5776840000000  0.4798240000000  0.4783490000000 1.0
C      1  0.5584940000000  0.5236300000000  0.5176400000000 1.0
C      1  0.4523080000000  0.5572710000000  0.4243790000000 1.0
C      1  0.4627790000000  0.5176340000000  0.4806590000000 1.0
C      1  0.4717670000000  0.4310180000000  0.5848520000000 1.0
C      1  0.4924590000000  0.5777160000000  0.4413790000000 1.0
C      1  0.5515440000000  0.5044530000000  0.4609990000000 1.0
C      1  0.4954700000000  0.5395960000000  0.5645430000000 1.0
C      1  0.4859460000000  0.5513950000000  0.6013650000000 1.0
C      1  0.5315220000000  0.5838210000000  0.4445610000000 1.0
C      1  0.4427500000000  0.6009480000000  0.5048420000000 1.0
C      1  0.4922000000000  0.4628870000000  0.5294060000000 1.0
C      1  0.3769750000000  0.4722660000000  0.5053990000000 1.0
C      1  0.5898140000000  0.4634870000000  0.5382990000000 1.0
C      1  0.5718330000000  0.5449680000000  0.5782890000000 1.0
C      1  0.5809370000000  0.4641820000000  0.4421690000000 1.0
C      1  0.5367130000000  0.4446220000000  0.4736120000000 1.0
C      1  0.5457740000000  0.3968820000000  0.4617280000000 1.0
C      1  0.5338790000000  0.3913320000000  0.4904840000000 1.0
C      1  0.5093380000000  0.5853200000000  0.4699470000000 1.0
C      1  0.5127290000000  0.5019880000000  0.5273980000000 1.0
C      1  0.5763930000000  0.5401140000000  0.4031710000000 1.0
C      1  0.5558140000000  0.4807840000000  0.4403030000000 1.0
C      1  0.5050270000000  0.5046880000000  0.4587410000000 1.0
C      1  0.5957700000000  0.4532590000000  0.4707500000000 1.0
C      1  0.4950230000000  0.6186470000000  0.5662320000000 1.0
C      1  0.5421560000000  0.4221120000000  0.4987480000000 1.0
C      1  0.5341600000000  0.5801040000000  0.5798990000000 1.0
C      1  0.4650670000000  0.4138290000000  0.5052590000000 1.0
C      1  0.5053040000000  0.3869130000000  0.4870510000000 1.0
C      1  0.4315050000000  0.5206550000000  0.4667300000000 1.0
C      1  0.4893000000000  0.4732550000000  0.4992870000000 1.0
C      1  0.4542850000000  0.5097600000000  0.5510850000000 1.0
C      1  0.5842470000000  0.5002720000000  0.5536670000000 1.0
C      1  0.5690810000000  0.4950330000000  0.5251060000000 1.0
C      1  0.5167680000000  0.5393400000000  0.4217640000000 1.0
C      1  0.4366170000000  0.4149960000000  0.4679720000000 1.0
C      1  0.5432750000000  0.5530550000000  0.5861000000000 1.0
C      1  0.4025840000000  0.5130970000000  0.5150340000000 1.0
C      1  0.4930680000000  0.3991780000000  0.5470940000000 1.0
C      1  0.5942620000000  0.5471420000000  0.5325460000000 1.0
C      1  0.4853530000000  0.4414450000000  0.4127780000000 1.0
C      1  0.4438280000000  0.5372960000000  0.5009190000000 1.0
C      1  0.4913730000000  0.5069090000000  0.3581420000000 1.0
C      1  0.5200440000000  0.5337650000000  0.5873200000000 1.0
C      1  0.4368820000000  0.5361010000000  0.5636780000000 1.0
C      1  0.5576460000000  0.5166020000000  0.5787130000000 1.0
C      1  0.4844270000000  0.4927440000000  0.4266640000000 1.0
C      1  0.4366910000000  0.4969970000000  0.4428590000000 1.0
C      1  0.5846710000000  0.4733280000000  0.5704360000000 1.0
C      1  0.5475850000000  0.5678720000000  0.4699320000000 1.0
C      1  0.4896870000000  0.3955050000000  0.5133030000000 1.0
C      1  0.5212740000000  0.6195110000000  0.5565750000000 1.0
C      1  0.4292570000000  0.5383900000000  0.4377940000000 1.0
C      1  0.4601010000000  0.4930090000000  0.4644000000000 1.0
C      1  0.5566090000000  0.4948920000000  0.4104620000000 1.0
C      1  0.4939440000000  0.4690750000000  0.3948800000000 1.0
C      1  0.5569710000000  0.4749860000000  0.5020890000000 1.0
C      1  0.5123000000000  0.4454480000000  0.5861590000000 1.0
C      1  0.5875030000000  0.5545150000000  0.5012080000000 1.0
C      1  0.4090830000000  0.4831060000000  0.5265500000000 1.0
C      1  0.5523840000000  0.4182210000000  0.4417970000000 1.0
C      1  0.5023080000000  0.5952720000000  0.5017100000000 1.0
C      1  0.4505650000000  0.5082650000000  0.5173200000000 1.0
C      1  0.5670320000000  0.5661220000000  0.4450970000000 1.0
C      1  0.5186920000000  0.4730930000000  0.5699670000000 1.0
C      1  0.4092250000000  0.5576880000000  0.4941750000000 1.0
C      1  0.4952000000000  0.5225460000000  0.6076420000000 1.0
C      1  0.4523170000000  0.4758710000000  0.5490410000000 1.0
C      1  0.4572580000000  0.4205190000000  0.4317590000000 1.0
C      1  0.5563060000000  0.5062300000000  0.6050020000000 1.0
C      1  0.4642160000000  0.4614940000000  0.4706030000000 1.0
C      1  0.5803020000000  0.4322970000000  0.4484470000000 1.0
C      1  0.4943300000000  0.5060010000000  0.5702050000000 1.0
C      1  0.5024700000000  0.5720300000000  0.5570730000000 1.0
C      1  0.4424920000000  0.5854170000000  0.4537380000000 1.0
C      1  0.4728270000000  0.4301890000000  0.4604740000000 1.0
C      1  0.4256850000000  0.4341220000000  0.4518510000000 1.0
C      1  0.4071370000000  0.4491450000000  0.5708700000000 1.0
C      1  0.4561630000000  0.5836110000000  0.5681100000000 1.0
C      1  0.4270740000000  0.5300370000000  0.4100540000000 1.0
C      1  0.5474050000000  0.4466290000000  0.5579270000000 1.0
C      1  0.5369670000000  0.4914440000000  0.4841730000000 1.0
C      1  0.5308030000000  0.4284950000000  0.5364690000000 1.0
C      1  0.5290860000000  0.4713940000000  0.4597100000000 1.0
C      1  0.5198050000000  0.5106210000000  0.4979720000000 1.0
C      1  0.5795390000000  0.5126630000000  0.4717920000000 1.0
C      1  0.5834420000000  0.5854590000000  0.4386580000000 1.0
C      1  0.4571220000000  0.5042670000000  0.5839500000000 1.0
C      1  0.6139630000000  0.4523670000000  0.4965310000000 1.0
C      1  0.4415750000000  0.4634150000000  0.4450630000000 1.0
C      1  0.4280900000000  0.5745710000000  0.5683060000000 1.0
C      1  0.4944810000000  0.5509090000000  0.4956000000000 1.0
C      1  0.4652270000000  0.5505420000000  0.5756840000000 1.0
C      1  0.4443280000000  0.4724400000000  0.4959380000000 1.0
C      1  0.4624300000000  0.5518440000000  0.5205460000000 1.0
C      1  0.5126150000000  0.4206410000000  0.5641020000000 1.0
C      1  0.5379320000000  0.5379950000000  0.4963040000000 1.0
C      1  0.4216240000000  0.5570080000000  0.5441230000000 1.0
C      1  0.5450740000000  0.4814850000000  0.3902080000000 1.0
C      1  0.4881460000000  0.5304950000000  0.4056430000000 1.0
C      1  0.4139210000000  0.4849220000000  0.5546380000000 1.0
C      1  0.4872760000000  0.5012130000000  0.3877360000000 1.0
C      1  0.4394540000000  0.4647370000000  0.4111300000000 1.0
C      1  0.4276270000000  0.5802500000000  0.4925050000000 1.0
C      1  0.4458920000000  0.5581900000000  0.4741550000000 1.0
C      1  0.4744120000000  0.4445810000000  0.4973650000000 1.0
C      1  0.4960430000000  0.4736910000000  0.4675050000000 1.0
C      1  0.5670100000000  0.5378840000000  0.4296740000000 1.0
C      1  0.4618310000000  0.5160680000000  0.4319400000000 1.0
C      1  0.4333900000000  0.4630130000000  0.5714240000000 1.0
C      1  0.4834220000000  0.5611300000000  0.4197090000000 1.0
C      1  0.4529140000000  0.4380880000000  0.4088280000000 1.0
C      1  0.5144780000000  0.5790370000000  0.5276690000000 1.0
C      1  0.4209570000000  0.4697560000000  0.4713780000000 1.0
END
