TITL C-2848497-6229-614 -6.08147499578828e-05 125000 -499.687917410499 0 0 97 (C1) n - 1
REM
REM in /home/bkarasulu/work/CARBON/AIRSS/Generating-Clusters/AIREBO/with-SteepDescent/Only-C1/SD-CG-opt/Try1-1.4A-POS3A/HFTN-CG
REM
REM
REM
REM
REM
REM ./C.cell (11c1c37f851c82e70ff6c80c92926a4b)
REM
REM compiler GCC version 9.2.1 20190827 (Red Hat 9.2.1-1)
REM options -cpp -mtune=generic -march=x86-64 -g -O0 -fpre-include=/usr/include/finclude/math-vector-fortran.h
REM seed 1452616329 -1128711028 600413330 -1462361027 -943485416 946792918 1140309611 834013568 965378621 1017115696 1139370304 451106822 362054124 -857707218 -1083480639 -1642231679 -1605189134 175509001 -818912228 1778854798 -532992105 -716908248 934909208 -1522827822 -662380369 962123345 -1152303728 -1365904216 571908174 -849738962 -1429044612 -1672160739 -1135533989
REM
CELL 1.54180   50.00000   50.00000   50.00000   90.00000   90.00000   90.00000
LATT -1
SFAC C  
C      1  0.5164760000000  0.5377450000000  0.4643220000000 1.0
C      1  0.4294200000000  0.4700970000000  0.4752230000000 1.0
C      1  0.4767330000000  0.5559390000000  0.4336190000000 1.0
C      1  0.4110900000000  0.5435450000000  0.4776470000000 1.0
C      1  0.5072540000000  0.5862130000000  0.4789290000000 1.0
C      1  0.5204030000000  0.4701090000000  0.5745810000000 1.0
C      1  0.5646260000000  0.5200620000000  0.5149770000000 1.0
C      1  0.4699070000000  0.5856590000000  0.5086560000000 1.0
C      1  0.4352120000000  0.5232580000000  0.5422430000000 1.0
C      1  0.5351310000000  0.5808560000000  0.4843020000000 1.0
C      1  0.4290870000000  0.5548000000000  0.5326630000000 1.0
C      1  0.4413160000000  0.4696280000000  0.5557780000000 1.0
C      1  0.4851260000000  0.5264160000000  0.4199350000000 1.0
C      1  0.4306230000000  0.5225990000000  0.5092010000000 1.0
C      1  0.4976910000000  0.5346000000000  0.5790720000000 1.0
C      1  0.5465270000000  0.4684210000000  0.4569780000000 1.0
C      1  0.5090930000000  0.5556930000000  0.5145730000000 1.0
C      1  0.5528660000000  0.4950770000000  0.4951210000000 1.0
C      1  0.5000770000000  0.5491720000000  0.5529640000000 1.0
C      1  0.5551990000000  0.4812730000000  0.5492060000000 1.0
C      1  0.4491620000000  0.5186280000000  0.4348070000000 1.0
C      1  0.4654780000000  0.4458050000000  0.5517040000000 1.0
C      1  0.4943710000000  0.4120380000000  0.5212390000000 1.0
C      1  0.4938600000000  0.4691330000000  0.5906850000000 1.0
C      1  0.4694010000000  0.5241820000000  0.4567450000000 1.0
C      1  0.4711750000000  0.4975590000000  0.5264740000000 1.0
C      1  0.5187780000000  0.5178720000000  0.5847630000000 1.0
C      1  0.5862890000000  0.5137310000000  0.5385060000000 1.0
C      1  0.5168560000000  0.5277140000000  0.5322690000000 1.0
C      1  0.4504390000000  0.5138160000000  0.4829980000000 1.0
C      1  0.5605590000000  0.5522360000000  0.5479110000000 1.0
C      1  0.5061500000000  0.4685950000000  0.4395390000000 1.0
C      1  0.5608100000000  0.4719020000000  0.5187530000000 1.0
C      1  0.5353220000000  0.4859750000000  0.4132580000000 1.0
C      1  0.4840310000000  0.4775880000000  0.4636610000000 1.0
C      1  0.5282310000000  0.5262500000000  0.4940860000000 1.0
C      1  0.5097290000000  0.5056630000000  0.4180020000000 1.0
C      1  0.5596100000000  0.5656120000000  0.5225240000000 1.0
C      1  0.5437810000000  0.4496540000000  0.5310340000000 1.0
C      1  0.4227170000000  0.5239010000000  0.4660900000000 1.0
C      1  0.4700580000000  0.4702360000000  0.5734720000000 1.0
C      1  0.5832180000000  0.4894020000000  0.4808670000000 1.0
C      1  0.4656870000000  0.4089760000000  0.5112930000000 1.0
C      1  0.5438890000000  0.4605190000000  0.5915270000000 1.0
C      1  0.5664570000000  0.4960390000000  0.4570180000000 1.0
C      1  0.5432380000000  0.4268740000000  0.5538640000000 1.0
C      1  0.5006440000000  0.4308090000000  0.4510770000000 1.0
C      1  0.5286430000000  0.4578630000000  0.4181800000000 1.0
C      1  0.4530260000000  0.5707670000000  0.4902440000000 1.0
C      1  0.4675850000000  0.4416670000000  0.5204580000000 1.0
C      1  0.4966920000000  0.5178070000000  0.4956290000000 1.0
C      1  0.5160690000000  0.4557700000000  0.5476080000000 1.0
C      1  0.5401640000000  0.4245680000000  0.4857630000000 1.0
C      1  0.5131400000000  0.4727830000000  0.5203830000000 1.0
C      1  0.4725250000000  0.5215830000000  0.5615720000000 1.0
C      1  0.5258100000000  0.4997000000000  0.5151960000000 1.0
C      1  0.4953520000000  0.5562780000000  0.4834680000000 1.0
C      1  0.5297240000000  0.4535360000000  0.5001860000000 1.0
C      1  0.4716260000000  0.5362260000000  0.4973110000000 1.0
C      1  0.4749900000000  0.4918510000000  0.4931740000000 1.0
C      1  0.5175860000000  0.4546810000000  0.4684060000000 1.0
C      1  0.4287070000000  0.5560150000000  0.5009870000000 1.0
C      1  0.4544090000000  0.4790710000000  0.4335520000000 1.0
C      1  0.4864130000000  0.4654030000000  0.5082630000000 1.0
C      1  0.4891760000000  0.6020320000000  0.4950510000000 1.0
C      1  0.4951100000000  0.4299030000000  0.5468420000000 1.0
C      1  0.5208470000000  0.4193700000000  0.5632870000000 1.0
C      1  0.4621960000000  0.4323470000000  0.4877260000000 1.0
C      1  0.4259480000000  0.4894640000000  0.5031530000000 1.0
C      1  0.4541990000000  0.4986140000000  0.5684300000000 1.0
C      1  0.5389470000000  0.5548140000000  0.4449150000000 1.0
C      1  0.4608750000000  0.5055530000000  0.4085850000000 1.0
C      1  0.4966060000000  0.5045320000000  0.5446790000000 1.0
C      1  0.5598950000000  0.4459900000000  0.4753270000000 1.0
C      1  0.4838550000000  0.4867140000000  0.4237550000000 1.0
C      1  0.5289320000000  0.4940350000000  0.4705360000000 1.0
C      1  0.5784380000000  0.4951870000000  0.5568220000000 1.0
C      1  0.4590420000000  0.5471380000000  0.5468040000000 1.0
C      1  0.5472880000000  0.5232670000000  0.5441200000000 1.0
C      1  0.4816640000000  0.5666660000000  0.5314120000000 1.0
C      1  0.5320370000000  0.5059670000000  0.4402270000000 1.0
C      1  0.4026170000000  0.4684320000000  0.4960750000000 1.0
C      1  0.5519070000000  0.5523910000000  0.4757240000000 1.0
C      1  0.4933280000000  0.4419730000000  0.4885900000000 1.0
C      1  0.4753700000000  0.4344570000000  0.4500980000000 1.0
C      1  0.5674030000000  0.5473200000000  0.5016170000000 1.0
C      1  0.5756070000000  0.4622600000000  0.4929450000000 1.0
C      1  0.4311860000000  0.4733190000000  0.4429820000000 1.0
C      1  0.4574290000000  0.4569370000000  0.4682460000000 1.0
C      1  0.5274380000000  0.4989010000000  0.5579070000000 1.0
C      1  0.4676980000000  0.5574450000000  0.4637130000000 1.0
C      1  0.4988820000000  0.5084030000000  0.4635670000000 1.0
C      1  0.4413350000000  0.4925430000000  0.5331060000000 1.0
C      1  0.5123310000000  0.4179500000000  0.4987690000000 1.0
C      1  0.5532160000000  0.5258570000000  0.4540190000000 1.0
C      1  0.5346570000000  0.5759600000000  0.5138440000000 1.0
C      1  0.5082810000000  0.5468270000000  0.4325890000000 1.0
END
