TITL C-2847957-7266-129 -0.004557782910979 125000 -999.696914127885 0 0 184 (C1) n - 1
REM
REM in /home/bkarasulu/work/CARBON/AIRSS/Generating-Clusters/AIREBO/with-SteepDescent/Only-C1/SD-CG-opt/Try1-1.4A-POS3A/HFTN-CG
REM
REM
REM
REM
REM
REM ./C.cell (11c1c37f851c82e70ff6c80c92926a4b)
REM
REM compiler GCC version 9.2.1 20190827 (Red Hat 9.2.1-1)
REM options -cpp -mtune=generic -march=x86-64 -g -O0 -fpre-include=/usr/include/finclude/math-vector-fortran.h
REM seed -535873865 1777106790 1978935199 659554509 1133506059 1752234340 -742894943 -825359581 -2097854999 971824321 -1020681678 -1948352033 -931740294 -1307894362 -840029609 -584024317 591102679 -365572756 -1128557070 -1917763082 -394916635 -66694294 668972540 -2067872198 549127074 606574089 1060183877 1616616103 -1121258039 2084453723 -1872471580 -15693656 1484142650
REM
CELL 1.54180   50.00000   50.00000   50.00000   90.00000   90.00000   90.00000
LATT -1
SFAC C  
C      1  0.4987140000000  0.5718720000000  0.5548350000000 1.0
C      1  0.4612440000000  0.4896690000000  0.5461250000000 1.0
C      1  0.5027250000000  0.3993640000000  0.5196800000000 1.0
C      1  0.5586370000000  0.5674780000000  0.4264520000000 1.0
C      1  0.4664950000000  0.4074120000000  0.4846220000000 1.0
C      1  0.5276660000000  0.5312880000000  0.5682270000000 1.0
C      1  0.4144140000000  0.4636900000000  0.5538680000000 1.0
C      1  0.5109640000000  0.4227200000000  0.5744940000000 1.0
C      1  0.4976480000000  0.5304620000000  0.5018270000000 1.0
C      1  0.4379240000000  0.4463580000000  0.4334940000000 1.0
C      1  0.5230080000000  0.5662620000000  0.4944100000000 1.0
C      1  0.5406950000000  0.5097100000000  0.5265480000000 1.0
C      1  0.5757990000000  0.5082200000000  0.5773090000000 1.0
C      1  0.4943170000000  0.4516520000000  0.3844020000000 1.0
C      1  0.4564060000000  0.3956440000000  0.5429820000000 1.0
C      1  0.5547410000000  0.5282790000000  0.4596780000000 1.0
C      1  0.4807710000000  0.5773120000000  0.5193240000000 1.0
C      1  0.5308450000000  0.4374960000000  0.4339690000000 1.0
C      1  0.5716650000000  0.4102290000000  0.5274860000000 1.0
C      1  0.4754850000000  0.4944930000000  0.3951590000000 1.0
C      1  0.3927000000000  0.4725000000000  0.5286590000000 1.0
C      1  0.5653340000000  0.5602630000000  0.5343870000000 1.0
C      1  0.4373580000000  0.4501320000000  0.5069100000000 1.0
C      1  0.5805860000000  0.4750900000000  0.4300870000000 1.0
C      1  0.4263300000000  0.5812270000000  0.5216050000000 1.0
C      1  0.5376250000000  0.4522170000000  0.4848040000000 1.0
C      1  0.4386760000000  0.5368900000000  0.5896180000000 1.0
C      1  0.5472490000000  0.5454300000000  0.4881040000000 1.0
C      1  0.5881450000000  0.5353890000000  0.5336170000000 1.0
C      1  0.4626270000000  0.5904750000000  0.4338950000000 1.0
C      1  0.5800400000000  0.5003290000000  0.4756720000000 1.0
C      1  0.5591400000000  0.4880320000000  0.5941690000000 1.0
C      1  0.5328740000000  0.5010870000000  0.3957550000000 1.0
C      1  0.5377760000000  0.5011760000000  0.6123670000000 1.0
C      1  0.5200820000000  0.5491680000000  0.5436850000000 1.0
C      1  0.5784190000000  0.4303290000000  0.5060140000000 1.0
C      1  0.4548970000000  0.4305050000000  0.4543030000000 1.0
C      1  0.5246120000000  0.5810480000000  0.4487040000000 1.0
C      1  0.4668130000000  0.4330270000000  0.5874470000000 1.0
C      1  0.5611060000000  0.5614690000000  0.4543090000000 1.0
C      1  0.4039430000000  0.5674120000000  0.5300900000000 1.0
C      1  0.5964160000000  0.5137100000000  0.4548420000000 1.0
C      1  0.4451570000000  0.5636170000000  0.5030410000000 1.0
C      1  0.5680430000000  0.4443120000000  0.5667310000000 1.0
C      1  0.4752240000000  0.5117790000000  0.3718100000000 1.0
C      1  0.4779160000000  0.5157690000000  0.6060850000000 1.0
C      1  0.5408640000000  0.6004440000000  0.5048510000000 1.0
C      1  0.5527050000000  0.4437620000000  0.4592540000000 1.0
C      1  0.5097860000000  0.4591210000000  0.5586870000000 1.0
C      1  0.4901050000000  0.4591130000000  0.5864580000000 1.0
C      1  0.5073030000000  0.4988710000000  0.5790610000000 1.0
C      1  0.5129420000000  0.5192960000000  0.4427200000000 1.0
C      1  0.4905630000000  0.5714530000000  0.4300720000000 1.0
C      1  0.4958020000000  0.5244650000000  0.5635760000000 1.0
C      1  0.5436940000000  0.5668310000000  0.5767750000000 1.0
C      1  0.5788270000000  0.5197470000000  0.4095650000000 1.0
C      1  0.5520080000000  0.5797670000000  0.5518430000000 1.0
C      1  0.4568140000000  0.4241790000000  0.5571440000000 1.0
C      1  0.4948580000000  0.6052170000000  0.5162140000000 1.0
C      1  0.3970240000000  0.5081810000000  0.4931970000000 1.0
C      1  0.5269630000000  0.3867430000000  0.4477160000000 1.0
C      1  0.5120160000000  0.3934460000000  0.4703750000000 1.0
C      1  0.5389250000000  0.5516270000000  0.4111250000000 1.0
C      1  0.4471300000000  0.4697620000000  0.5608740000000 1.0
C      1  0.5763640000000  0.5591940000000  0.4846120000000 1.0
C      1  0.4543430000000  0.5218820000000  0.4373190000000 1.0
C      1  0.5628640000000  0.5230420000000  0.5486260000000 1.0
C      1  0.5368190000000  0.4058690000000  0.4309920000000 1.0
C      1  0.5538620000000  0.5259400000000  0.3985750000000 1.0
C      1  0.6140260000000  0.5310210000000  0.4664800000000 1.0
C      1  0.4026860000000  0.5157660000000  0.4614240000000 1.0
C      1  0.4386950000000  0.5760760000000  0.4359380000000 1.0
C      1  0.5370930000000  0.5975870000000  0.5354260000000 1.0
C      1  0.4270100000000  0.5147400000000  0.5081160000000 1.0
C      1  0.4444870000000  0.5165610000000  0.5394960000000 1.0
C      1  0.4677410000000  0.5611110000000  0.5534060000000 1.0
C      1  0.5076180000000  0.4438680000000  0.4579870000000 1.0
C      1  0.5565690000000  0.4657050000000  0.5461510000000 1.0
C      1  0.4033990000000  0.4517530000000  0.5078610000000 1.0
C      1  0.4902890000000  0.4888630000000  0.5279870000000 1.0
C      1  0.4095220000000  0.5443070000000  0.5524120000000 1.0
C      1  0.5463790000000  0.4585400000000  0.5838840000000 1.0
C      1  0.5072870000000  0.4315820000000  0.5134540000000 1.0
C      1  0.5726200000000  0.4147510000000  0.4807640000000 1.0
C      1  0.4188470000000  0.5455910000000  0.5000770000000 1.0
C      1  0.4673710000000  0.5289520000000  0.4935400000000 1.0
C      1  0.5305320000000  0.5097870000000  0.4702280000000 1.0
C      1  0.5431590000000  0.5429280000000  0.5197060000000 1.0
C      1  0.4134420000000  0.4444730000000  0.4757090000000 1.0
C      1  0.4561700000000  0.5922510000000  0.5606680000000 1.0
C      1  0.5456700000000  0.5831560000000  0.4755080000000 1.0
C      1  0.5680140000000  0.5057180000000  0.4379400000000 1.0
C      1  0.5236160000000  0.5331630000000  0.3866040000000 1.0
C      1  0.4495570000000  0.5007580000000  0.4868320000000 1.0
C      1  0.4163810000000  0.5131830000000  0.5583370000000 1.0
C      1  0.4987120000000  0.5044280000000  0.4156540000000 1.0
C      1  0.4984050000000  0.4494330000000  0.4890830000000 1.0
C      1  0.4517950000000  0.5415450000000  0.4132470000000 1.0
C      1  0.5581040000000  0.5372580000000  0.5770790000000 1.0
C      1  0.5368820000000  0.4799550000000  0.4653430000000 1.0
C      1  0.4522270000000  0.5807990000000  0.4766070000000 1.0
C      1  0.4562720000000  0.4531530000000  0.4135160000000 1.0
C      1  0.5129090000000  0.6051790000000  0.4946680000000 1.0
C      1  0.5489440000000  0.4038180000000  0.5030110000000 1.0
C      1  0.4297360000000  0.4733330000000  0.4833540000000 1.0
C      1  0.5116640000000  0.5979880000000  0.4248060000000 1.0
C      1  0.5155930000000  0.4733170000000  0.4428350000000 1.0
C      1  0.4903680000000  0.4152150000000  0.4645730000000 1.0
C      1  0.5345080000000  0.4398290000000  0.5455210000000 1.0
C      1  0.4774260000000  0.5518870000000  0.4068110000000 1.0
C      1  0.3801290000000  0.5042470000000  0.5215360000000 1.0
C      1  0.4384140000000  0.4892140000000  0.5946920000000 1.0
C      1  0.5086200000000  0.5979110000000  0.5412390000000 1.0
C      1  0.5112260000000  0.4771230000000  0.3996380000000 1.0
C      1  0.4349050000000  0.4406310000000  0.5394670000000 1.0
C      1  0.4936430000000  0.5300440000000  0.3937930000000 1.0
C      1  0.4864960000000  0.4550880000000  0.5266600000000 1.0
C      1  0.5207160000000  0.5112080000000  0.4990310000000 1.0
C      1  0.4133590000000  0.5457090000000  0.4689900000000 1.0
C      1  0.4817140000000  0.5708260000000  0.4629050000000 1.0
C      1  0.4806910000000  0.4931180000000  0.4754560000000 1.0
C      1  0.5125430000000  0.4451730000000  0.4112240000000 1.0
C      1  0.5145480000000  0.5660020000000  0.5826920000000 1.0
C      1  0.4352450000000  0.5085690000000  0.4573350000000 1.0
C      1  0.5050480000000  0.5559700000000  0.5157640000000 1.0
C      1  0.5219410000000  0.4845360000000  0.5396450000000 1.0
C      1  0.6092110000000  0.4799710000000  0.5263880000000 1.0
C      1  0.4669110000000  0.5448470000000  0.4671220000000 1.0
C      1  0.4646960000000  0.6065770000000  0.4582630000000 1.0
C      1  0.4163230000000  0.4891300000000  0.5764510000000 1.0
C      1  0.5220420000000  0.3909370000000  0.4966760000000 1.0
C      1  0.3958060000000  0.5348970000000  0.5227560000000 1.0
C      1  0.4839880000000  0.5209120000000  0.5374860000000 1.0
C      1  0.4003300000000  0.4814860000000  0.4816900000000 1.0
C      1  0.5355960000000  0.4726290000000  0.5108660000000 1.0
C      1  0.5183700000000  0.4830440000000  0.6218720000000 1.0
C      1  0.4175180000000  0.4601330000000  0.4469910000000 1.0
C      1  0.6012800000000  0.4668570000000  0.4757820000000 1.0
C      1  0.4407250000000  0.4168760000000  0.5131500000000 1.0
C      1  0.4312280000000  0.5387230000000  0.3952070000000 1.0
C      1  0.4915140000000  0.4881100000000  0.6044750000000 1.0
C      1  0.4755120000000  0.4144020000000  0.4342730000000 1.0
C      1  0.5244600000000  0.4395800000000  0.5924710000000 1.0
C      1  0.4669290000000  0.5464200000000  0.5227230000000 1.0
C      1  0.4982740000000  0.5383440000000  0.5940470000000 1.0
C      1  0.4429180000000  0.5428730000000  0.5589190000000 1.0
C      1  0.5626960000000  0.4197290000000  0.5514200000000 1.0
C      1  0.5613400000000  0.4548820000000  0.4286160000000 1.0
C      1  0.5059270000000  0.5838100000000  0.4737230000000 1.0
C      1  0.5174310000000  0.5510520000000  0.4343920000000 1.0
C      1  0.4828470000000  0.5181030000000  0.4555160000000 1.0
C      1  0.5675330000000  0.4609530000000  0.5087310000000 1.0
C      1  0.4831780000000  0.4771720000000  0.4461840000000 1.0
C      1  0.5355700000000  0.4976210000000  0.4294840000000 1.0
C      1  0.5913690000000  0.5626380000000  0.5141080000000 1.0
C      1  0.5288880000000  0.5257270000000  0.6017750000000 1.0
C      1  0.6095950000000  0.5131670000000  0.5296490000000 1.0
C      1  0.4695740000000  0.4772620000000  0.4180780000000 1.0
C      1  0.5875290000000  0.5083310000000  0.5042300000000 1.0
C      1  0.5041310000000  0.4818180000000  0.4977250000000 1.0
C      1  0.5346490000000  0.4877570000000  0.5710220000000 1.0
C      1  0.4398730000000  0.5477060000000  0.4508700000000 1.0
C      1  0.5096160000000  0.4538510000000  0.6138080000000 1.0
C      1  0.6037050000000  0.4682040000000  0.4458420000000 1.0
C      1  0.4130570000000  0.4879580000000  0.4446860000000 1.0
C      1  0.4526330000000  0.5906290000000  0.5314210000000 1.0
C      1  0.4678890000000  0.4553430000000  0.4988550000000 1.0
C      1  0.4567890000000  0.4649850000000  0.5899650000000 1.0
C      1  0.4590820000000  0.4890860000000  0.5144820000000 1.0
C      1  0.4358110000000  0.4211110000000  0.4794330000000 1.0
C      1  0.6001600000000  0.5377780000000  0.4937270000000 1.0
C      1  0.4730590000000  0.4070380000000  0.5162660000000 1.0
C      1  0.5686060000000  0.4721810000000  0.4680110000000 1.0
C      1  0.4101730000000  0.4987190000000  0.5318830000000 1.0
C      1  0.4676410000000  0.4566090000000  0.4658350000000 1.0
C      1  0.4505350000000  0.5141430000000  0.6009800000000 1.0
C      1  0.5909250000000  0.4949080000000  0.5514250000000 1.0
C      1  0.4808610000000  0.4336120000000  0.4103800000000 1.0
C      1  0.4868500000000  0.4352220000000  0.5536980000000 1.0
C      1  0.5171250000000  0.4105980000000  0.5458790000000 1.0
C      1  0.5685970000000  0.4902670000000  0.5259420000000 1.0
C      1  0.5987450000000  0.4667080000000  0.5040830000000 1.0
C      1  0.4204920000000  0.5788180000000  0.4644370000000 1.0
C      1  0.5390860000000  0.4331180000000  0.5124890000000 1.0
END
