TITL C-2847956-8218-206 -0.000484630353932895 125000 -547.531171459642 0 0 101 (C1) n - 1
REM
REM in /home/bkarasulu/work/CARBON/AIRSS/Generating-Clusters/AIREBO/with-SteepDescent/Only-C1/SD-CG-opt/Try1-1.4A-POS3A/HFTN-CG
REM
REM
REM
REM
REM
REM ./C.cell (11c1c37f851c82e70ff6c80c92926a4b)
REM
REM compiler GCC version 9.2.1 20190827 (Red Hat 9.2.1-1)
REM options -cpp -mtune=generic -march=x86-64 -g -O0 -fpre-include=/usr/include/finclude/math-vector-fortran.h
REM seed 2097132116 820208206 1636212455 1930714957 1485728949 -786306545 1733685555 400502668 217761885 -28414961 -288128268 174162895 535855729 1534304946 -1821524894 1440445669 -531482775 -442820590 1712184183 -958676942 -1778514923 -774130200 1875135688 570122105 -1815765559 901696881 2014200837 599335456 -1218752187 -1293861848 -512775722 -1241441252 1800688122
REM
CELL 1.54180   50.00000   50.00000   50.00000   90.00000   90.00000   90.00000
LATT -1
SFAC C  
C      1  0.5497770000000  0.5061930000000  0.4383120000000 1.0
C      1  0.4408160000000  0.3916990000000  0.5062580000000 1.0
C      1  0.5374730000000  0.4611340000000  0.5127530000000 1.0
C      1  0.5716360000000  0.5323430000000  0.4385290000000 1.0
C      1  0.4630490000000  0.5603020000000  0.5127090000000 1.0
C      1  0.5925610000000  0.4983970000000  0.4941060000000 1.0
C      1  0.4616710000000  0.5364950000000  0.4878390000000 1.0
C      1  0.5647590000000  0.4409420000000  0.4920710000000 1.0
C      1  0.5695810000000  0.4583880000000  0.5191840000000 1.0
C      1  0.5040410000000  0.5890030000000  0.4691740000000 1.0
C      1  0.4853910000000  0.4614890000000  0.4993420000000 1.0
C      1  0.5680440000000  0.5259250000000  0.5272220000000 1.0
C      1  0.5245610000000  0.4971120000000  0.5027330000000 1.0
C      1  0.5515640000000  0.4582320000000  0.4428020000000 1.0
C      1  0.4833530000000  0.4867910000000  0.4767210000000 1.0
C      1  0.4738330000000  0.5060490000000  0.5499340000000 1.0
C      1  0.5267650000000  0.4640960000000  0.4805940000000 1.0
C      1  0.5034830000000  0.5495830000000  0.5597750000000 1.0
C      1  0.4393840000000  0.5359020000000  0.5135870000000 1.0
C      1  0.5101100000000  0.4825510000000  0.4606180000000 1.0
C      1  0.5452800000000  0.4310030000000  0.4400880000000 1.0
C      1  0.5370520000000  0.4800310000000  0.4312160000000 1.0
C      1  0.4315060000000  0.4590670000000  0.5434920000000 1.0
C      1  0.4951720000000  0.4249080000000  0.4482940000000 1.0
C      1  0.5157100000000  0.5461930000000  0.4463890000000 1.0
C      1  0.4424230000000  0.5593830000000  0.5469250000000 1.0
C      1  0.4168830000000  0.4882290000000  0.5088670000000 1.0
C      1  0.4595360000000  0.4111410000000  0.5114420000000 1.0
C      1  0.4952790000000  0.5848930000000  0.5222740000000 1.0
C      1  0.5051340000000  0.4130540000000  0.4783140000000 1.0
C      1  0.4132580000000  0.5442220000000  0.5023160000000 1.0
C      1  0.5829390000000  0.5028900000000  0.4461200000000 1.0
C      1  0.4448900000000  0.4855980000000  0.5058710000000 1.0
C      1  0.5049510000000  0.4105580000000  0.5260060000000 1.0
C      1  0.4599060000000  0.5102540000000  0.5077980000000 1.0
C      1  0.5018620000000  0.5561030000000  0.5044530000000 1.0
C      1  0.5097890000000  0.5141320000000  0.4560740000000 1.0
C      1  0.4134990000000  0.4800870000000  0.5368160000000 1.0
C      1  0.5546350000000  0.5707650000000  0.5107270000000 1.0
C      1  0.4799140000000  0.5813120000000  0.4518270000000 1.0
C      1  0.5604570000000  0.4393390000000  0.5655510000000 1.0
C      1  0.4655910000000  0.5376610000000  0.5594190000000 1.0
C      1  0.4360790000000  0.5772040000000  0.5233450000000 1.0
C      1  0.5201620000000  0.5338590000000  0.5168400000000 1.0
C      1  0.4780180000000  0.4876580000000  0.4188760000000 1.0
C      1  0.4915690000000  0.5305980000000  0.5802800000000 1.0
C      1  0.4167880000000  0.5083710000000  0.4234460000000 1.0
C      1  0.5313750000000  0.5108040000000  0.5653430000000 1.0
C      1  0.5937050000000  0.4783380000000  0.5146780000000 1.0
C      1  0.4533610000000  0.5768260000000  0.4723110000000 1.0
C      1  0.5817350000000  0.5238630000000  0.5004070000000 1.0
C      1  0.5076470000000  0.4486040000000  0.5142080000000 1.0
C      1  0.4812670000000  0.5799620000000  0.4916840000000 1.0
C      1  0.4590820000000  0.5090770000000  0.4678680000000 1.0
C      1  0.4808370000000  0.5288310000000  0.4556870000000 1.0
C      1  0.4170830000000  0.5010690000000  0.5561400000000 1.0
C      1  0.5010910000000  0.5348320000000  0.4817870000000 1.0
C      1  0.5290940000000  0.5370420000000  0.5477420000000 1.0
C      1  0.5247610000000  0.4155170000000  0.4503920000000 1.0
C      1  0.4571700000000  0.4840470000000  0.4369840000000 1.0
C      1  0.4995410000000  0.4348940000000  0.5433920000000 1.0
C      1  0.4276070000000  0.5541400000000  0.4731260000000 1.0
C      1  0.4584980000000  0.4600990000000  0.6064610000000 1.0
C      1  0.4871070000000  0.4076630000000  0.5037640000000 1.0
C      1  0.5431910000000  0.5303730000000  0.4920980000000 1.0
C      1  0.4210530000000  0.5208480000000  0.4708510000000 1.0
C      1  0.4628320000000  0.4738310000000  0.5504090000000 1.0
C      1  0.5526300000000  0.4877870000000  0.5570770000000 1.0
C      1  0.4062840000000  0.5046570000000  0.4879580000000 1.0
C      1  0.5122530000000  0.5115490000000  0.5855580000000 1.0
C      1  0.5793750000000  0.5019470000000  0.5667480000000 1.0
C      1  0.5525820000000  0.5527700000000  0.5305270000000 1.0
C      1  0.4626190000000  0.4603700000000  0.4511000000000 1.0
C      1  0.5717670000000  0.5467800000000  0.4837030000000 1.0
C      1  0.5314440000000  0.4220650000000  0.5171230000000 1.0
C      1  0.5491730000000  0.5690960000000  0.4809240000000 1.0
C      1  0.5873070000000  0.5202920000000  0.5509820000000 1.0
C      1  0.4644270000000  0.4595340000000  0.5818710000000 1.0
C      1  0.5009080000000  0.5101970000000  0.5320730000000 1.0
C      1  0.4610740000000  0.4642010000000  0.5173790000000 1.0
C      1  0.4428130000000  0.5073250000000  0.5638200000000 1.0
C      1  0.4865110000000  0.4492430000000  0.4406580000000 1.0
C      1  0.4339590000000  0.5049950000000  0.4453850000000 1.0
C      1  0.4902440000000  0.5612250000000  0.4343820000000 1.0
C      1  0.5441570000000  0.5331800000000  0.4582240000000 1.0
C      1  0.5261480000000  0.5712930000000  0.4656960000000 1.0
C      1  0.5508340000000  0.4985790000000  0.4827500000000 1.0
C      1  0.4280590000000  0.5804460000000  0.4946730000000 1.0
C      1  0.5456440000000  0.5048430000000  0.5285050000000 1.0
C      1  0.4788690000000  0.5536140000000  0.4107380000000 1.0
C      1  0.4736320000000  0.4418260000000  0.5543390000000 1.0
C      1  0.5595510000000  0.4674370000000  0.4722300000000 1.0
C      1  0.5058480000000  0.4734680000000  0.4292020000000 1.0
C      1  0.4514310000000  0.4351000000000  0.5298770000000 1.0
C      1  0.4816270000000  0.5599800000000  0.5393900000000 1.0
C      1  0.5864810000000  0.4872520000000  0.4686170000000 1.0
C      1  0.5590300000000  0.4593810000000  0.5489190000000 1.0
C      1  0.5205020000000  0.4824250000000  0.5331280000000 1.0
C      1  0.5326290000000  0.4315070000000  0.4860880000000 1.0
C      1  0.4927590000000  0.5086880000000  0.4991730000000 1.0
C      1  0.4592580000000  0.4551530000000  0.4785250000000 1.0
END
