TITL C-2847947-6848-153 0.000811270084009033 125000 -1022.05618869123 0 0 189 (C1) n - 1
REM
REM in /home/bkarasulu/work/CARBON/AIRSS/Generating-Clusters/AIREBO/with-SteepDescent/Only-C1/SD-CG-opt/Try1-1.4A-POS3A/HFTN-CG
REM
REM
REM
REM
REM
REM ./C.cell (11c1c37f851c82e70ff6c80c92926a4b)
REM
REM compiler GCC version 9.2.1 20190827 (Red Hat 9.2.1-1)
REM options -cpp -mtune=generic -march=x86-64 -g -O0 -fpre-include=/usr/include/finclude/math-vector-fortran.h
REM seed 960798676 -1354303267 -1610672021 1104647584 -1005795003 623177800 -1769622661 1295396712 -1739769328 1848713816 239461200 2001917675 391281675 -2017497220 -138084720 -1556501467 1744865937 -1972755070 314583694 -2068398306 -1302656621 -502323067 1243252131 700376452 1931602925 1079281247 600300964 1220377165 515125948 1233376246 424561839 2127972501 904713447
REM
CELL 1.54180   50.00000   50.00000   50.00000   90.00000   90.00000   90.00000
LATT -1
SFAC C  
C      1  0.4540440000000  0.4578420000000  0.5662010000000 1.0
C      1  0.5041120000000  0.4518240000000  0.5009000000000 1.0
C      1  0.4273590000000  0.4916630000000  0.4747610000000 1.0
C      1  0.5283160000000  0.3854830000000  0.4463070000000 1.0
C      1  0.4739490000000  0.4013460000000  0.5152030000000 1.0
C      1  0.5441210000000  0.5649110000000  0.5178440000000 1.0
C      1  0.5445530000000  0.5150200000000  0.5279650000000 1.0
C      1  0.4759950000000  0.4876240000000  0.5360130000000 1.0
C      1  0.4355870000000  0.4314880000000  0.5546080000000 1.0
C      1  0.5210660000000  0.3876370000000  0.4730970000000 1.0
C      1  0.5743320000000  0.5510850000000  0.5118110000000 1.0
C      1  0.5976130000000  0.5150020000000  0.4736100000000 1.0
C      1  0.5597920000000  0.4502520000000  0.4758200000000 1.0
C      1  0.5081880000000  0.5708440000000  0.5013780000000 1.0
C      1  0.4039540000000  0.5202480000000  0.4339820000000 1.0
C      1  0.4112920000000  0.5525530000000  0.4426580000000 1.0
C      1  0.5783410000000  0.4784050000000  0.4803540000000 1.0
C      1  0.4894680000000  0.4301520000000  0.5994260000000 1.0
C      1  0.4016880000000  0.4628570000000  0.5567750000000 1.0
C      1  0.4935760000000  0.4706470000000  0.6034120000000 1.0
C      1  0.5180370000000  0.4373820000000  0.4459060000000 1.0
C      1  0.5333810000000  0.4382470000000  0.5243650000000 1.0
C      1  0.5374990000000  0.5823800000000  0.4893990000000 1.0
C      1  0.4840800000000  0.4989240000000  0.5939240000000 1.0
C      1  0.4712810000000  0.4455620000000  0.5395830000000 1.0
C      1  0.5440220000000  0.6082500000000  0.5095110000000 1.0
C      1  0.5444690000000  0.4515130000000  0.4488520000000 1.0
C      1  0.5400720000000  0.3923580000000  0.4930860000000 1.0
C      1  0.4543760000000  0.5215930000000  0.4291030000000 1.0
C      1  0.3846890000000  0.5051500000000  0.5338900000000 1.0
C      1  0.5583560000000  0.4549620000000  0.4212890000000 1.0
C      1  0.6019960000000  0.4338020000000  0.4941830000000 1.0
C      1  0.5018360000000  0.5470480000000  0.4220290000000 1.0
C      1  0.5362020000000  0.4571600000000  0.4030450000000 1.0
C      1  0.5828230000000  0.5307330000000  0.5608760000000 1.0
C      1  0.4192270000000  0.5715650000000  0.4970730000000 1.0
C      1  0.4605740000000  0.5115350000000  0.5546660000000 1.0
C      1  0.5714550000000  0.4777180000000  0.5488200000000 1.0
C      1  0.4566590000000  0.5912710000000  0.4668930000000 1.0
C      1  0.5866730000000  0.5124750000000  0.4126850000000 1.0
C      1  0.4650500000000  0.4529520000000  0.5980010000000 1.0
C      1  0.6013430000000  0.5274270000000  0.5391150000000 1.0
C      1  0.4023160000000  0.4522570000000  0.4855710000000 1.0
C      1  0.4213420000000  0.5203520000000  0.4632140000000 1.0
C      1  0.4078480000000  0.5196260000000  0.5162560000000 1.0
C      1  0.5002140000000  0.3924110000000  0.5333220000000 1.0
C      1  0.4052670000000  0.4721420000000  0.5071530000000 1.0
C      1  0.5095270000000  0.4162670000000  0.5510760000000 1.0
C      1  0.4780460000000  0.4321820000000  0.4127180000000 1.0
C      1  0.4795800000000  0.5351400000000  0.4444850000000 1.0
C      1  0.5634420000000  0.4089280000000  0.5020420000000 1.0
C      1  0.5007290000000  0.4180530000000  0.5030060000000 1.0
C      1  0.4752610000000  0.4868910000000  0.4300480000000 1.0
C      1  0.5007560000000  0.5500490000000  0.5858670000000 1.0
C      1  0.4689480000000  0.5616010000000  0.4606610000000 1.0
C      1  0.4494180000000  0.5407350000000  0.5412830000000 1.0
C      1  0.4493280000000  0.4179460000000  0.4477140000000 1.0
C      1  0.4302300000000  0.4953520000000  0.5081140000000 1.0
C      1  0.5763800000000  0.4256630000000  0.4829420000000 1.0
C      1  0.6016870000000  0.5373030000000  0.5065110000000 1.0
C      1  0.4689250000000  0.4814760000000  0.3970800000000 1.0
C      1  0.4538500000000  0.5031980000000  0.5869400000000 1.0
C      1  0.5504600000000  0.4237690000000  0.5869840000000 1.0
C      1  0.5175630000000  0.5935520000000  0.5250100000000 1.0
C      1  0.4412810000000  0.5337900000000  0.5816750000000 1.0
C      1  0.5219110000000  0.4073840000000  0.4318580000000 1.0
C      1  0.3936000000000  0.4960200000000  0.4769550000000 1.0
C      1  0.5194230000000  0.4199250000000  0.5795900000000 1.0
C      1  0.5115280000000  0.4387390000000  0.4127780000000 1.0
C      1  0.4630350000000  0.5925410000000  0.5063500000000 1.0
C      1  0.4565230000000  0.4174250000000  0.5324930000000 1.0
C      1  0.5294450000000  0.4863020000000  0.4867450000000 1.0
C      1  0.4250920000000  0.4949530000000  0.4249000000000 1.0
C      1  0.4244920000000  0.5791140000000  0.5624060000000 1.0
C      1  0.5229730000000  0.5069810000000  0.5085870000000 1.0
C      1  0.5350190000000  0.5412130000000  0.5404730000000 1.0
C      1  0.6039420000000  0.4974120000000  0.5365130000000 1.0
C      1  0.4418650000000  0.4760590000000  0.5996450000000 1.0
C      1  0.4715280000000  0.4625640000000  0.4536180000000 1.0
C      1  0.4528660000000  0.4978950000000  0.4531570000000 1.0
C      1  0.5038850000000  0.5748250000000  0.5692830000000 1.0
C      1  0.4497850000000  0.5622860000000  0.5675820000000 1.0
C      1  0.5485040000000  0.4294510000000  0.5535190000000 1.0
C      1  0.5498530000000  0.5553040000000  0.4414740000000 1.0
C      1  0.5264680000000  0.4058500000000  0.5166910000000 1.0
C      1  0.4045720000000  0.5592280000000  0.5471840000000 1.0
C      1  0.5774980000000  0.5450410000000  0.4566730000000 1.0
C      1  0.4478440000000  0.5060110000000  0.4021480000000 1.0
C      1  0.4955040000000  0.5233630000000  0.6070990000000 1.0
C      1  0.5275840000000  0.5649350000000  0.4215250000000 1.0
C      1  0.4844270000000  0.5733480000000  0.5339660000000 1.0
C      1  0.5378350000000  0.4816140000000  0.4429150000000 1.0
C      1  0.4697750000000  0.3995570000000  0.4514960000000 1.0
C      1  0.4006490000000  0.4883470000000  0.4452880000000 1.0
C      1  0.4656440000000  0.4580300000000  0.4868200000000 1.0
C      1  0.5255240000000  0.5010900000000  0.4312360000000 1.0
C      1  0.4431800000000  0.4686070000000  0.4148860000000 1.0
C      1  0.5027350000000  0.4812790000000  0.5178820000000 1.0
C      1  0.4738320000000  0.5853200000000  0.5639760000000 1.0
C      1  0.5022430000000  0.4964640000000  0.4130440000000 1.0
C      1  0.5038700000000  0.4814840000000  0.4722990000000 1.0
C      1  0.4923310000000  0.4023270000000  0.4759850000000 1.0
C      1  0.5931330000000  0.4423360000000  0.5258390000000 1.0
C      1  0.5724070000000  0.5028940000000  0.5267460000000 1.0
C      1  0.4912450000000  0.4700200000000  0.3817480000000 1.0
C      1  0.5534760000000  0.5558540000000  0.6003570000000 1.0
C      1  0.4061270000000  0.5560240000000  0.4730090000000 1.0
C      1  0.5570700000000  0.5151680000000  0.4100880000000 1.0
C      1  0.4862740000000  0.5289600000000  0.5685230000000 1.0
C      1  0.4175390000000  0.4300090000000  0.4922630000000 1.0
C      1  0.4275100000000  0.4312120000000  0.5213460000000 1.0
C      1  0.4620550000000  0.5743740000000  0.4194150000000 1.0
C      1  0.4885410000000  0.5760540000000  0.4277320000000 1.0
C      1  0.4828140000000  0.4759520000000  0.5672620000000 1.0
C      1  0.5924420000000  0.4749520000000  0.4495920000000 1.0
C      1  0.3985390000000  0.5273270000000  0.4874510000000 1.0
C      1  0.4396070000000  0.5520600000000  0.5123470000000 1.0
C      1  0.4426820000000  0.5534300000000  0.4318330000000 1.0
C      1  0.5022700000000  0.5260680000000  0.3997960000000 1.0
C      1  0.5699090000000  0.5557110000000  0.5708630000000 1.0
C      1  0.5293830000000  0.5054660000000  0.5633230000000 1.0
C      1  0.5372180000000  0.5026310000000  0.6022390000000 1.0
C      1  0.4206630000000  0.5830030000000  0.5288470000000 1.0
C      1  0.4894930000000  0.5089840000000  0.4638910000000 1.0
C      1  0.5000410000000  0.5932280000000  0.4478910000000 1.0
C      1  0.4170310000000  0.5310190000000  0.5448910000000 1.0
C      1  0.5787270000000  0.5823920000000  0.5251920000000 1.0
C      1  0.5510160000000  0.5341160000000  0.4937550000000 1.0
C      1  0.4432460000000  0.5394470000000  0.4628260000000 1.0
C      1  0.4562760000000  0.3927680000000  0.4892930000000 1.0
C      1  0.6052530000000  0.5471710000000  0.4740880000000 1.0
C      1  0.5575000000000  0.5733030000000  0.5479690000000 1.0
C      1  0.4826480000000  0.6033160000000  0.4674810000000 1.0
C      1  0.4535570000000  0.5874300000000  0.5362360000000 1.0
C      1  0.4937160000000  0.6009520000000  0.4943520000000 1.0
C      1  0.3890310000000  0.4779030000000  0.5337050000000 1.0
C      1  0.5669780000000  0.4528890000000  0.5798120000000 1.0
C      1  0.5204900000000  0.4810410000000  0.3903710000000 1.0
C      1  0.5900370000000  0.4531650000000  0.5548260000000 1.0
C      1  0.5374170000000  0.4567310000000  0.4961130000000 1.0
C      1  0.5016250000000  0.4482770000000  0.5735930000000 1.0
C      1  0.4369140000000  0.5958670000000  0.4880680000000 1.0
C      1  0.5463370000000  0.4679260000000  0.5344550000000 1.0
C      1  0.6012310000000  0.4656810000000  0.5020440000000 1.0
C      1  0.4994730000000  0.4507810000000  0.4671870000000 1.0
C      1  0.4568880000000  0.4437910000000  0.4319150000000 1.0
C      1  0.4262320000000  0.4633330000000  0.5324290000000 1.0
C      1  0.5331820000000  0.5124050000000  0.3937960000000 1.0
C      1  0.5072320000000  0.5236250000000  0.5449260000000 1.0
C      1  0.4761570000000  0.5655390000000  0.4931580000000 1.0
C      1  0.4269160000000  0.4796340000000  0.5693140000000 1.0
C      1  0.4182900000000  0.5124590000000  0.5716010000000 1.0
C      1  0.5254600000000  0.5809560000000  0.5527200000000 1.0
C      1  0.5303510000000  0.5293430000000  0.4439470000000 1.0
C      1  0.5205800000000  0.4813170000000  0.5856430000000 1.0
C      1  0.4630860000000  0.5041180000000  0.5092010000000 1.0
C      1  0.4666810000000  0.4908440000000  0.4814400000000 1.0
C      1  0.5709010000000  0.6070760000000  0.5158790000000 1.0
C      1  0.4573650000000  0.4649290000000  0.5188410000000 1.0
C      1  0.5855570000000  0.4591640000000  0.4285010000000 1.0
C      1  0.5286190000000  0.5948450000000  0.4589890000000 1.0
C      1  0.5938460000000  0.5048370000000  0.4442080000000 1.0
C      1  0.4860100000000  0.5290610000000  0.5060600000000 1.0
C      1  0.5173730000000  0.5383540000000  0.4967130000000 1.0
C      1  0.5688320000000  0.4203920000000  0.5279840000000 1.0
C      1  0.5359040000000  0.5910580000000  0.4304620000000 1.0
C      1  0.5241720000000  0.4832980000000  0.5406060000000 1.0
C      1  0.4672090000000  0.4243070000000  0.4827660000000 1.0
C      1  0.5633520000000  0.5062270000000  0.5654960000000 1.0
C      1  0.5734510000000  0.5082910000000  0.4959100000000 1.0
C      1  0.5270820000000  0.5337240000000  0.5999050000000 1.0
C      1  0.6204090000000  0.5106720000000  0.4966520000000 1.0
C      1  0.4918170000000  0.4413990000000  0.3857570000000 1.0
C      1  0.4881500000000  0.6071440000000  0.5337930000000 1.0
C      1  0.5011170000000  0.4429250000000  0.5340450000000 1.0
C      1  0.4362270000000  0.4947650000000  0.5406840000000 1.0
C      1  0.4576110000000  0.5394340000000  0.4914350000000 1.0
C      1  0.5376010000000  0.5472750000000  0.5705420000000 1.0
C      1  0.3928530000000  0.4597850000000  0.4609410000000 1.0
C      1  0.5120400000000  0.5303930000000  0.4666100000000 1.0
C      1  0.5622860000000  0.5174940000000  0.4437760000000 1.0
C      1  0.4353540000000  0.4226480000000  0.4735170000000 1.0
C      1  0.5345020000000  0.4555470000000  0.5702950000000 1.0
C      1  0.6169900000000  0.4881150000000  0.5135080000000 1.0
C      1  0.5521850000000  0.4938990000000  0.4660840000000 1.0
C      1  0.4720810000000  0.5210590000000  0.3881410000000 1.0
C      1  0.4822820000000  0.5438200000000  0.5330880000000 1.0
C      1  0.5543610000000  0.5594010000000  0.4746210000000 1.0
C      1  0.5718370000000  0.4835470000000  0.5883100000000 1.0
END
