TITL C-2848498-1409-285 -0.000795072932818443 125000 -179.257484340304 0 0 31 (C1) n - 1
REM
REM in /home/bkarasulu/work/CARBON/AIRSS/Generating-Clusters/AIREBO/with-SteepDescent/Only-C1/SD-CG-opt/Try1-1.4A-POS3A/HFTN-CG
REM
REM
REM
REM
REM
REM ./C.cell (11c1c37f851c82e70ff6c80c92926a4b)
REM
REM compiler GCC version 9.2.1 20190827 (Red Hat 9.2.1-1)
REM options -cpp -mtune=generic -march=x86-64 -g -O0 -fpre-include=/usr/include/finclude/math-vector-fortran.h
REM seed 1824122007 1813734951 1027304196 1253584241 139528045 -180663733 -646925429 1808405401 1071969925 -284374739 839093654 -946110617 146794792 1998465200 1323575579 -613325353 1694088006 -1644336093 979872926 1967920715 -837444522 -876733920 364658652 2091170477 -374496896 -575356305 -1196090689 -1411955076 -898610981 -1852349528 1104137518 1093049946 1074061053
REM
CELL 1.54180   50.00000   50.00000   50.00000   90.00000   90.00000   90.00000
LATT -1
SFAC C  
C      1  0.5462200000000  0.4821100000000  0.4801270000000 1.0
C      1  0.5380460000000  0.4995450000000  0.4589220000000 1.0
C      1  0.5111160000000  0.4951750000000  0.4498250000000 1.0
C      1  0.5046810000000  0.5571630000000  0.5394260000000 1.0
C      1  0.5035220000000  0.5380400000000  0.4742080000000 1.0
C      1  0.4708340000000  0.5033110000000  0.4879010000000 1.0
C      1  0.5283880000000  0.4599220000000  0.4842630000000 1.0
C      1  0.4896170000000  0.5132340000000  0.4613280000000 1.0
C      1  0.4831600000000  0.4796280000000  0.5001880000000 1.0
C      1  0.4630650000000  0.4650030000000  0.5200380000000 1.0
C      1  0.5541650000000  0.5183060000000  0.4483060000000 1.0
C      1  0.4298080000000  0.4726680000000  0.4871210000000 1.0
C      1  0.5618580000000  0.4912060000000  0.5024040000000 1.0
C      1  0.5108430000000  0.4638940000000  0.5046610000000 1.0
C      1  0.5476230000000  0.4991100000000  0.5253450000000 1.0
C      1  0.5238500000000  0.5105190000000  0.5352100000000 1.0
C      1  0.4619080000000  0.5359950000000  0.5342390000000 1.0
C      1  0.5887270000000  0.4928650000000  0.5008300000000 1.0
C      1  0.5176260000000  0.4492430000000  0.4600480000000 1.0
C      1  0.5033750000000  0.4943800000000  0.5474020000000 1.0
C      1  0.4444540000000  0.4907980000000  0.4715560000000 1.0
C      1  0.4942910000000  0.4696510000000  0.5331880000000 1.0
C      1  0.4617400000000  0.5192380000000  0.5571160000000 1.0
C      1  0.4772100000000  0.5595640000000  0.5372330000000 1.0
C      1  0.5177320000000  0.5402750000000  0.4970860000000 1.0
C      1  0.4586420000000  0.5062630000000  0.4503640000000 1.0
C      1  0.4391000000000  0.4588700000000  0.5096850000000 1.0
C      1  0.5060820000000  0.4681200000000  0.4430450000000 1.0
C      1  0.5180990000000  0.5369550000000  0.5250080000000 1.0
C      1  0.4843570000000  0.5053950000000  0.5648370000000 1.0
C      1  0.4598600000000  0.5235550000000  0.5090890000000 1.0
END
