TITL C-2847958-8115-601 0.000200197968476655 125000 -76.4343501043148 0 0 15 (C1) n - 1
REM
REM in /home/bkarasulu/work/CARBON/AIRSS/Generating-Clusters/AIREBO/with-SteepDescent/Only-C1/SD-CG-opt/Try1-1.4A-POS3A/HFTN-CG
REM
REM
REM
REM
REM
REM ./C.cell (11c1c37f851c82e70ff6c80c92926a4b)
REM
REM compiler GCC version 9.2.1 20190827 (Red Hat 9.2.1-1)
REM options -cpp -mtune=generic -march=x86-64 -g -O0 -fpre-include=/usr/include/finclude/math-vector-fortran.h
REM seed -1823971590 1643660494 364521292 715835229 1966895641 -44092662 -46323760 -1860849679 -1192458339 -133714961 759720362 528630078 1647384988 -618007019 537926416 -1078625359 -797993647 213681401 1207771244 554490430 -19130011 -869262704 -1210497283 31968483 1346688276 193788228 -252876786 -11262862 842570730 109992484 -1068589346 1705729960 -1711148612
REM
CELL 1.54180   50.00000   50.00000   50.00000   90.00000   90.00000   90.00000
LATT -1
SFAC C  
C      1  0.4826120000000  0.4321270000000  0.4483330000000 1.0
C      1  0.4909940000000  0.5273020000000  0.5274530000000 1.0
C      1  0.5083920000000  0.5008920000000  0.4861100000000 1.0
C      1  0.4856460000000  0.5030490000000  0.5427190000000 1.0
C      1  0.4988990000000  0.4735580000000  0.4845770000000 1.0
C      1  0.5058680000000  0.4858970000000  0.5301200000000 1.0
C      1  0.4984550000000  0.4643740000000  0.5121550000000 1.0
C      1  0.5230740000000  0.5753380000000  0.4844300000000 1.0
C      1  0.4920300000000  0.4598380000000  0.4626870000000 1.0
C      1  0.4681420000000  0.4979900000000  0.5621200000000 1.0
C      1  0.5237440000000  0.5349800000000  0.5224970000000 1.0
C      1  0.5228960000000  0.5052240000000  0.5142030000000 1.0
C      1  0.4868980000000  0.4584630000000  0.4305250000000 1.0
C      1  0.4959700000000  0.5277810000000  0.4951680000000 1.0
C      1  0.5163800000000  0.5531880000000  0.4969020000000 1.0
END
