TITL C-2848509-3138-589 -0.00303161815167567 125000 -261.90408153749 0 0 49 (C1) n - 1
REM
REM in /home/bkarasulu/work/CARBON/AIRSS/Generating-Clusters/AIREBO/with-SteepDescent/Only-C1/SD-CG-opt/Try1-1.4A-POS3A/HFTN-CG
REM
REM
REM
REM
REM
REM ./C.cell (11c1c37f851c82e70ff6c80c92926a4b)
REM
REM compiler GCC version 9.2.1 20190827 (Red Hat 9.2.1-1)
REM options -cpp -mtune=generic -march=x86-64 -g -O0 -fpre-include=/usr/include/finclude/math-vector-fortran.h
REM seed 1357802085 1715019917 1726986596 -1923700075 -749657893 809520790 850586356 -1917649140 2041641722 983036921 -2039911858 1370979979 748845652 992997427 162639913 1664748645 -1544063584 -2073294375 267589420 839649877 779021378 1087271170 -1100208008 1087532038 1603221858 1169631502 135898641 1107358962 -1165798999 1574112839 -1809663193 -697166707 1143368668
REM
CELL 1.54180   50.00000   50.00000   50.00000   90.00000   90.00000   90.00000
LATT -1
SFAC C  
C      1  0.4776980000000  0.5446020000000  0.4394170000000 1.0
C      1  0.4781980000000  0.4810980000000  0.4298680000000 1.0
C      1  0.4532210000000  0.5376670000000  0.5235220000000 1.0
C      1  0.5611990000000  0.5645060000000  0.5056600000000 1.0
C      1  0.5257220000000  0.4331270000000  0.4970850000000 1.0
C      1  0.5158190000000  0.5023600000000  0.5199290000000 1.0
C      1  0.4796730000000  0.4847720000000  0.4996040000000 1.0
C      1  0.4718320000000  0.4257290000000  0.5213820000000 1.0
C      1  0.5061710000000  0.5609530000000  0.5140590000000 1.0
C      1  0.5123900000000  0.5339800000000  0.5244290000000 1.0
C      1  0.5577410000000  0.5158660000000  0.5024000000000 1.0
C      1  0.5119030000000  0.5188780000000  0.5610940000000 1.0
C      1  0.5351430000000  0.5778950000000  0.5085440000000 1.0
C      1  0.5602610000000  0.5194330000000  0.5309160000000 1.0
C      1  0.4997210000000  0.4725490000000  0.5228570000000 1.0
C      1  0.5077620000000  0.4172530000000  0.4816350000000 1.0
C      1  0.4813750000000  0.4172290000000  0.4914950000000 1.0
C      1  0.5292300000000  0.5282770000000  0.4520250000000 1.0
C      1  0.4569150000000  0.5204110000000  0.5670670000000 1.0
C      1  0.4817450000000  0.4710210000000  0.5516920000000 1.0
C      1  0.5197260000000  0.5660110000000  0.4832900000000 1.0
C      1  0.4654410000000  0.4614050000000  0.4500680000000 1.0
C      1  0.4852610000000  0.5195870000000  0.5390300000000 1.0
C      1  0.4341390000000  0.5306340000000  0.5497170000000 1.0
C      1  0.5367420000000  0.5467290000000  0.4704610000000 1.0
C      1  0.4586650000000  0.4393120000000  0.4963360000000 1.0
C      1  0.5424730000000  0.4547910000000  0.4905050000000 1.0
C      1  0.5317940000000  0.4752120000000  0.5338430000000 1.0
C      1  0.5368740000000  0.5247940000000  0.5454080000000 1.0
C      1  0.4423700000000  0.4817090000000  0.4631880000000 1.0
C      1  0.4696080000000  0.5485100000000  0.5512700000000 1.0
C      1  0.5154710000000  0.4037210000000  0.4596950000000 1.0
C      1  0.4627770000000  0.4653920000000  0.4837370000000 1.0
C      1  0.4587550000000  0.5001760000000  0.4452560000000 1.0
C      1  0.5540490000000  0.4668010000000  0.5168290000000 1.0
C      1  0.5585530000000  0.5405200000000  0.4886740000000 1.0
C      1  0.5432060000000  0.4891590000000  0.4940980000000 1.0
C      1  0.5285330000000  0.5081450000000  0.4294090000000 1.0
C      1  0.4654690000000  0.5317570000000  0.4842710000000 1.0
C      1  0.5042020000000  0.4905750000000  0.4328000000000 1.0
C      1  0.4919130000000  0.4421730000000  0.5360060000000 1.0
C      1  0.4759350000000  0.5226940000000  0.4575860000000 1.0
C      1  0.4705920000000  0.4952890000000  0.5577550000000 1.0
C      1  0.5101560000000  0.4937390000000  0.4874930000000 1.0
C      1  0.5049400000000  0.5085860000000  0.4614500000000 1.0
C      1  0.4695960000000  0.5121020000000  0.5097770000000 1.0
C      1  0.4760570000000  0.5627190000000  0.5207460000000 1.0
C      1  0.4627590000000  0.5586690000000  0.4912070000000 1.0
C      1  0.5202240000000  0.4314830000000  0.5254150000000 1.0
END
