TITL C-2848508-1660-520 -0.00355900074216426 125000 -648.575777904398 0 0 126 (C1) n - 1
REM
REM in /home/bkarasulu/work/CARBON/AIRSS/Generating-Clusters/AIREBO/with-SteepDescent/Only-C1/SD-CG-opt/Try1-1.4A-POS3A/HFTN-CG
REM
REM
REM
REM
REM
REM ./C.cell (11c1c37f851c82e70ff6c80c92926a4b)
REM
REM compiler GCC version 9.2.1 20190827 (Red Hat 9.2.1-1)
REM options -cpp -mtune=generic -march=x86-64 -g -O0 -fpre-include=/usr/include/finclude/math-vector-fortran.h
REM seed -307441914 1461383468 533180782 1194129964 -1188507519 1902963478 -887191480 -1548635162 2043576384 -605113903 1108207655 -1986053077 -783968783 582625486 778346877 51869369 -448872434 -1277441641 -1212258199 -751878485 1955554410 -1917598661 1686355014 618634713 1984121085 -161360765 652744713 191708242 116257062 -1118709807 -635339942 -1705716647 -801615606
REM
CELL 1.54180   50.00000   50.00000   50.00000   90.00000   90.00000   90.00000
LATT -1
SFAC C  
C      1  0.4759320000000  0.5735090000000  0.5521870000000 1.0
C      1  0.5234580000000  0.5888420000000  0.4991710000000 1.0
C      1  0.4674170000000  0.4770180000000  0.4201610000000 1.0
C      1  0.5208020000000  0.4502420000000  0.5394020000000 1.0
C      1  0.4932010000000  0.3952660000000  0.5425510000000 1.0
C      1  0.4594570000000  0.4448470000000  0.4247770000000 1.0
C      1  0.5525700000000  0.5284430000000  0.4218580000000 1.0
C      1  0.5540400000000  0.5496130000000  0.4687290000000 1.0
C      1  0.4161500000000  0.4744460000000  0.4755360000000 1.0
C      1  0.4498130000000  0.5040910000000  0.4165880000000 1.0
C      1  0.4904510000000  0.4927280000000  0.4808990000000 1.0
C      1  0.5232570000000  0.4137840000000  0.4797050000000 1.0
C      1  0.4870630000000  0.5022040000000  0.4303950000000 1.0
C      1  0.5399900000000  0.5351500000000  0.5220830000000 1.0
C      1  0.4562570000000  0.5161080000000  0.5285950000000 1.0
C      1  0.4679780000000  0.4140100000000  0.5060240000000 1.0
C      1  0.5509130000000  0.4134780000000  0.4958800000000 1.0
C      1  0.4692340000000  0.5016670000000  0.5899520000000 1.0
C      1  0.4822090000000  0.5487700000000  0.5707170000000 1.0
C      1  0.5774180000000  0.5249620000000  0.4703840000000 1.0
C      1  0.4776180000000  0.4702960000000  0.5886560000000 1.0
C      1  0.4377410000000  0.5385970000000  0.5445730000000 1.0
C      1  0.4091030000000  0.5394100000000  0.5353560000000 1.0
C      1  0.4703620000000  0.4175200000000  0.5375050000000 1.0
C      1  0.4526180000000  0.4463980000000  0.5406870000000 1.0
C      1  0.5138410000000  0.4003630000000  0.5241560000000 1.0
C      1  0.5722150000000  0.5693080000000  0.4896770000000 1.0
C      1  0.5457580000000  0.4442760000000  0.4669260000000 1.0
C      1  0.5031210000000  0.6045570000000  0.5203920000000 1.0
C      1  0.5382410000000  0.4363920000000  0.4369330000000 1.0
C      1  0.4396020000000  0.4180210000000  0.5541770000000 1.0
C      1  0.5325640000000  0.5392460000000  0.4905530000000 1.0
C      1  0.4988740000000  0.5484930000000  0.4377480000000 1.0
C      1  0.5604040000000  0.4774840000000  0.5743290000000 1.0
C      1  0.4742510000000  0.4140060000000  0.4724160000000 1.0
C      1  0.5271800000000  0.4480450000000  0.5840110000000 1.0
C      1  0.5523300000000  0.4513210000000  0.5717310000000 1.0
C      1  0.5579600000000  0.4956710000000  0.5289660000000 1.0
C      1  0.4921790000000  0.4637110000000  0.4390780000000 1.0
C      1  0.5135800000000  0.4757970000000  0.4625830000000 1.0
C      1  0.5709210000000  0.4853370000000  0.4837250000000 1.0
C      1  0.5395110000000  0.4810480000000  0.5079870000000 1.0
C      1  0.5115590000000  0.5065570000000  0.4072180000000 1.0
C      1  0.5190070000000  0.5131930000000  0.5191670000000 1.0
C      1  0.5799540000000  0.5535870000000  0.5181490000000 1.0
C      1  0.4075000000000  0.4667030000000  0.5055110000000 1.0
C      1  0.5370650000000  0.4708750000000  0.4384650000000 1.0
C      1  0.4159490000000  0.4994590000000  0.4643000000000 1.0
C      1  0.4468620000000  0.4940350000000  0.4966170000000 1.0
C      1  0.5536890000000  0.4415530000000  0.5394960000000 1.0
C      1  0.4415950000000  0.5105360000000  0.4460350000000 1.0
C      1  0.4918960000000  0.4425050000000  0.5457700000000 1.0
C      1  0.5870760000000  0.5074280000000  0.4981980000000 1.0
C      1  0.4474980000000  0.5518050000000  0.4797020000000 1.0
C      1  0.4912970000000  0.4835220000000  0.5535340000000 1.0
C      1  0.5067640000000  0.4661990000000  0.5783930000000 1.0
C      1  0.4762000000000  0.4581980000000  0.5208280000000 1.0
C      1  0.4597920000000  0.4927610000000  0.4662520000000 1.0
C      1  0.5350310000000  0.5577380000000  0.5421430000000 1.0
C      1  0.4956260000000  0.5116450000000  0.5697190000000 1.0
C      1  0.5737900000000  0.4680240000000  0.5320030000000 1.0
C      1  0.4321460000000  0.4470330000000  0.4660600000000 1.0
C      1  0.4865400000000  0.5243090000000  0.5394000000000 1.0
C      1  0.5319930000000  0.5429090000000  0.4437010000000 1.0
C      1  0.4758030000000  0.4891370000000  0.5237880000000 1.0
C      1  0.5206830000000  0.4841170000000  0.5364280000000 1.0
C      1  0.5127740000000  0.5584770000000  0.5045440000000 1.0
C      1  0.5688650000000  0.5398110000000  0.5537550000000 1.0
C      1  0.4815460000000  0.4433840000000  0.4580400000000 1.0
C      1  0.5209650000000  0.5187760000000  0.5868770000000 1.0
C      1  0.4875930000000  0.5213250000000  0.4663650000000 1.0
C      1  0.5137010000000  0.5814080000000  0.5372300000000 1.0
C      1  0.5727110000000  0.5499100000000  0.4394980000000 1.0
C      1  0.5962540000000  0.5380490000000  0.4954860000000 1.0
C      1  0.5657320000000  0.4324660000000  0.5090230000000 1.0
C      1  0.4841530000000  0.5471040000000  0.4962320000000 1.0
C      1  0.4771970000000  0.5727540000000  0.4269530000000 1.0
C      1  0.4046300000000  0.5262950000000  0.5041890000000 1.0
C      1  0.4612240000000  0.5672470000000  0.5052140000000 1.0
C      1  0.4739770000000  0.4443030000000  0.5744320000000 1.0
C      1  0.5632700000000  0.4671290000000  0.4598090000000 1.0
C      1  0.4581910000000  0.5246730000000  0.5674750000000 1.0
C      1  0.4945220000000  0.5338220000000  0.4072830000000 1.0
C      1  0.4747450000000  0.5878530000000  0.4569000000000 1.0
C      1  0.4700430000000  0.5304580000000  0.4387030000000 1.0
C      1  0.4511840000000  0.4620670000000  0.4899500000000 1.0
C      1  0.4236350000000  0.5699330000000  0.4919840000000 1.0
C      1  0.4268140000000  0.5084480000000  0.5175240000000 1.0
C      1  0.4759610000000  0.5914380000000  0.5240290000000 1.0
C      1  0.4437990000000  0.4306060000000  0.5002320000000 1.0
C      1  0.4640030000000  0.5288030000000  0.4052740000000 1.0
C      1  0.4502810000000  0.5649560000000  0.5352700000000 1.0
C      1  0.4894510000000  0.5150720000000  0.5065370000000 1.0
C      1  0.4978940000000  0.4030360000000  0.4942710000000 1.0
C      1  0.5449580000000  0.5275320000000  0.5662520000000 1.0
C      1  0.5960370000000  0.4922130000000  0.5255420000000 1.0
C      1  0.5439390000000  0.4978580000000  0.5571090000000 1.0
C      1  0.5034320000000  0.5931120000000  0.4729370000000 1.0
C      1  0.4572530000000  0.5591480000000  0.4517640000000 1.0
C      1  0.4588190000000  0.4913950000000  0.5598660000000 1.0
C      1  0.4195180000000  0.4805560000000  0.5268080000000 1.0
C      1  0.5861930000000  0.5230720000000  0.5347840000000 1.0
C      1  0.5551260000000  0.4959730000000  0.4279060000000 1.0
C      1  0.5655320000000  0.5712250000000  0.5433090000000 1.0
C      1  0.5274950000000  0.4119680000000  0.4479780000000 1.0
C      1  0.5245920000000  0.4551770000000  0.5091320000000 1.0
C      1  0.5790920000000  0.5165110000000  0.4396580000000 1.0
C      1  0.5366310000000  0.4127960000000  0.5332150000000 1.0
C      1  0.5535130000000  0.5832260000000  0.5144270000000 1.0
C      1  0.5136370000000  0.4750850000000  0.4152240000000 1.0
C      1  0.5770180000000  0.4537530000000  0.4948170000000 1.0
C      1  0.4146540000000  0.4394640000000  0.4942200000000 1.0
C      1  0.3979980000000  0.5161960000000  0.4763450000000 1.0
C      1  0.4825410000000  0.4489710000000  0.4915690000000 1.0
C      1  0.4961850000000  0.5533030000000  0.5338000000000 1.0
C      1  0.4371270000000  0.4718920000000  0.5471300000000 1.0
C      1  0.4565510000000  0.5228890000000  0.4809590000000 1.0
C      1  0.4933450000000  0.5618570000000  0.4685200000000 1.0
C      1  0.5208760000000  0.5172480000000  0.4728840000000 1.0
C      1  0.5382350000000  0.4917950000000  0.4796820000000 1.0
C      1  0.5144800000000  0.4466380000000  0.4800540000000 1.0
C      1  0.4525200000000  0.4309370000000  0.4516230000000 1.0
C      1  0.5166470000000  0.5127580000000  0.4403200000000 1.0
C      1  0.5456470000000  0.5835570000000  0.4739510000000 1.0
C      1  0.4064320000000  0.5580090000000  0.5087380000000 1.0
C      1  0.5159670000000  0.5459750000000  0.5677590000000 1.0
END
