TITL C-2847952-8118-223 4.97593199325483e-05 125000 -954.305388391162 0 0 181 (C1) n - 1
REM
REM in /home/bkarasulu/work/CARBON/AIRSS/Generating-Clusters/AIREBO/with-SteepDescent/Only-C1/SD-CG-opt/Try1-1.4A-POS3A/HFTN-CG
REM
REM
REM
REM
REM
REM ./C.cell (11c1c37f851c82e70ff6c80c92926a4b)
REM
REM compiler GCC version 9.2.1 20190827 (Red Hat 9.2.1-1)
REM options -cpp -mtune=generic -march=x86-64 -g -O0 -fpre-include=/usr/include/finclude/math-vector-fortran.h
REM seed -1834462451 -694040370 1483210660 1356829081 -1518958889 -713966182 -1496059108 -796470805 -1541584690 -1282233139 1435209649 -226217540 889863379 -260255741 1108848744 -129832874 -339706033 1674922081 36151781 2112504660 390524059 1473719988 -1117484484 1770514751 -25596770 1829476321 -1393928148 -243064681 -790204026 -345594282 1246400850 1548516825 1060330956
REM
CELL 1.54180   50.00000   50.00000   50.00000   90.00000   90.00000   90.00000
LATT -1
SFAC C  
C      1  0.5873150000000  0.4938620000000  0.4827930000000 1.0
C      1  0.5448440000000  0.5129020000000  0.6023040000000 1.0
C      1  0.4597150000000  0.4423350000000  0.5074160000000 1.0
C      1  0.4817550000000  0.4438870000000  0.5559130000000 1.0
C      1  0.5653610000000  0.4495190000000  0.5757190000000 1.0
C      1  0.5699670000000  0.4767130000000  0.5428740000000 1.0
C      1  0.5684580000000  0.5557400000000  0.4363800000000 1.0
C      1  0.4683950000000  0.4643940000000  0.3899270000000 1.0
C      1  0.4546690000000  0.4723670000000  0.5559200000000 1.0
C      1  0.5156140000000  0.3934830000000  0.4909140000000 1.0
C      1  0.5595420000000  0.5560920000000  0.5727850000000 1.0
C      1  0.4746680000000  0.5521210000000  0.4637110000000 1.0
C      1  0.5194100000000  0.4421680000000  0.6103130000000 1.0
C      1  0.5619530000000  0.4613450000000  0.5144810000000 1.0
C      1  0.5412650000000  0.4137710000000  0.4970920000000 1.0
C      1  0.4475650000000  0.4664580000000  0.4167220000000 1.0
C      1  0.5730480000000  0.4136650000000  0.4849980000000 1.0
C      1  0.5697480000000  0.5325420000000  0.5311410000000 1.0
C      1  0.4948280000000  0.6233010000000  0.4803920000000 1.0
C      1  0.4187410000000  0.4956000000000  0.5909590000000 1.0
C      1  0.4867980000000  0.5703600000000  0.5292290000000 1.0
C      1  0.4840870000000  0.3947250000000  0.5340100000000 1.0
C      1  0.4821590000000  0.4809260000000  0.4809510000000 1.0
C      1  0.5169890000000  0.6073120000000  0.4811400000000 1.0
C      1  0.5406390000000  0.5786260000000  0.5608380000000 1.0
C      1  0.4650600000000  0.5296530000000  0.3987200000000 1.0
C      1  0.5439600000000  0.5172590000000  0.5230620000000 1.0
C      1  0.4856530000000  0.5253810000000  0.4639400000000 1.0
C      1  0.5084360000000  0.5962930000000  0.5253160000000 1.0
C      1  0.4446680000000  0.5362850000000  0.4865210000000 1.0
C      1  0.5467880000000  0.4702850000000  0.3976300000000 1.0
C      1  0.4511660000000  0.5575030000000  0.4426860000000 1.0
C      1  0.5378390000000  0.5434940000000  0.6038480000000 1.0
C      1  0.4177430000000  0.5252380000000  0.4911210000000 1.0
C      1  0.4362030000000  0.4524340000000  0.4637110000000 1.0
C      1  0.5385800000000  0.4441070000000  0.5902070000000 1.0
C      1  0.4240510000000  0.5118790000000  0.4451320000000 1.0
C      1  0.4815020000000  0.4140980000000  0.4893740000000 1.0
C      1  0.4804170000000  0.5637400000000  0.6008040000000 1.0
C      1  0.5501980000000  0.5304390000000  0.3989810000000 1.0
C      1  0.5221610000000  0.6024030000000  0.5558180000000 1.0
C      1  0.5933560000000  0.5582150000000  0.4953720000000 1.0
C      1  0.5547970000000  0.4851370000000  0.4912690000000 1.0
C      1  0.4880860000000  0.6059520000000  0.5507890000000 1.0
C      1  0.4269780000000  0.4619570000000  0.4387830000000 1.0
C      1  0.4028270000000  0.4677650000000  0.5163220000000 1.0
C      1  0.4970990000000  0.4644290000000  0.4084970000000 1.0
C      1  0.5209440000000  0.5648080000000  0.5831150000000 1.0
C      1  0.5192870000000  0.5332910000000  0.5371340000000 1.0
C      1  0.4388870000000  0.3984790000000  0.4563150000000 1.0
C      1  0.4900440000000  0.5695820000000  0.4824670000000 1.0
C      1  0.4962330000000  0.4826310000000  0.4370120000000 1.0
C      1  0.5136180000000  0.3974540000000  0.5246430000000 1.0
C      1  0.4779700000000  0.5129620000000  0.5427780000000 1.0
C      1  0.5165690000000  0.4451740000000  0.4501000000000 1.0
C      1  0.5367330000000  0.4867970000000  0.5820420000000 1.0
C      1  0.4697630000000  0.4163020000000  0.4253330000000 1.0
C      1  0.5216790000000  0.4360700000000  0.5103260000000 1.0
C      1  0.4987150000000  0.4409110000000  0.4857180000000 1.0
C      1  0.5171750000000  0.4923690000000  0.4560440000000 1.0
C      1  0.4596690000000  0.5337200000000  0.5141590000000 1.0
C      1  0.5139340000000  0.4881690000000  0.6072480000000 1.0
C      1  0.5542220000000  0.5631490000000  0.5337760000000 1.0
C      1  0.4340790000000  0.5672300000000  0.4771150000000 1.0
C      1  0.5335720000000  0.5202630000000  0.4508190000000 1.0
C      1  0.4415130000000  0.4565200000000  0.5310260000000 1.0
C      1  0.5532300000000  0.5854850000000  0.5084030000000 1.0
C      1  0.5101970000000  0.5328150000000  0.5873010000000 1.0
C      1  0.5228950000000  0.4211330000000  0.4288740000000 1.0
C      1  0.5692930000000  0.4831790000000  0.5729400000000 1.0
C      1  0.5375370000000  0.4501090000000  0.5330190000000 1.0
C      1  0.5643520000000  0.5706770000000  0.4827300000000 1.0
C      1  0.3885740000000  0.5256640000000  0.4755350000000 1.0
C      1  0.4724770000000  0.5019400000000  0.4344490000000 1.0
C      1  0.4044990000000  0.4772060000000  0.4413730000000 1.0
C      1  0.4473790000000  0.5151530000000  0.5574660000000 1.0
C      1  0.4741570000000  0.5573670000000  0.5683850000000 1.0
C      1  0.4308140000000  0.4154040000000  0.4774500000000 1.0
C      1  0.5401230000000  0.5726880000000  0.4290000000000 1.0
C      1  0.5486690000000  0.5856010000000  0.4588420000000 1.0
C      1  0.3903900000000  0.5279620000000  0.5094460000000 1.0
C      1  0.5450470000000  0.4407790000000  0.4775380000000 1.0
C      1  0.4638120000000  0.5083210000000  0.4836510000000 1.0
C      1  0.4974720000000  0.5222300000000  0.4338870000000 1.0
C      1  0.4250710000000  0.4999260000000  0.4158040000000 1.0
C      1  0.4918550000000  0.4658250000000  0.5071100000000 1.0
C      1  0.4120000000000  0.5277990000000  0.5302750000000 1.0
C      1  0.4189710000000  0.4775950000000  0.4916320000000 1.0
C      1  0.5003290000000  0.5518190000000  0.5072330000000 1.0
C      1  0.4150160000000  0.4441480000000  0.4864850000000 1.0
C      1  0.5522150000000  0.4315980000000  0.5549650000000 1.0
C      1  0.4837780000000  0.4652890000000  0.5824030000000 1.0
C      1  0.5364980000000  0.5137840000000  0.4921290000000 1.0
C      1  0.4200300000000  0.4720510000000  0.5756530000000 1.0
C      1  0.4453690000000  0.4926040000000  0.5075880000000 1.0
C      1  0.5548670000000  0.5303830000000  0.5680780000000 1.0
C      1  0.5211320000000  0.4067270000000  0.4596690000000 1.0
C      1  0.5041300000000  0.5067810000000  0.4839460000000 1.0
C      1  0.5246610000000  0.5089840000000  0.4205620000000 1.0
C      1  0.5560810000000  0.4402410000000  0.4075370000000 1.0
C      1  0.5647810000000  0.4212210000000  0.4319730000000 1.0
C      1  0.5725680000000  0.5294050000000  0.4188690000000 1.0
C      1  0.5031890000000  0.4968670000000  0.4003070000000 1.0
C      1  0.4908680000000  0.5203290000000  0.5121780000000 1.0
C      1  0.4799700000000  0.6130490000000  0.5172260000000 1.0
C      1  0.4469460000000  0.5455310000000  0.5667950000000 1.0
C      1  0.4983220000000  0.4718640000000  0.5459570000000 1.0
C      1  0.5882340000000  0.5628060000000  0.4598340000000 1.0
C      1  0.4326050000000  0.5764340000000  0.5068320000000 1.0
C      1  0.5973090000000  0.4751860000000  0.5260220000000 1.0
C      1  0.5256890000000  0.5134140000000  0.5639750000000 1.0
C      1  0.5768610000000  0.5128220000000  0.5580070000000 1.0
C      1  0.5873440000000  0.4841230000000  0.4502080000000 1.0
C      1  0.4517280000000  0.5043710000000  0.4548030000000 1.0
C      1  0.5247440000000  0.4675710000000  0.4717010000000 1.0
C      1  0.4258310000000  0.5424050000000  0.4467770000000 1.0
C      1  0.5151590000000  0.5813770000000  0.4627650000000 1.0
C      1  0.5229850000000  0.4479890000000  0.4077040000000 1.0
C      1  0.4290300000000  0.5028630000000  0.5356280000000 1.0
C      1  0.5258960000000  0.4605380000000  0.5632530000000 1.0
C      1  0.5093940000000  0.5884820000000  0.4300190000000 1.0
C      1  0.5637160000000  0.5311760000000  0.4578060000000 1.0
C      1  0.5513240000000  0.4975220000000  0.4077750000000 1.0
C      1  0.5425530000000  0.4894060000000  0.5345560000000 1.0
C      1  0.5197940000000  0.5485560000000  0.4574200000000 1.0
C      1  0.4503140000000  0.4132810000000  0.4980390000000 1.0
C      1  0.4735560000000  0.5319310000000  0.6033110000000 1.0
C      1  0.4914750000000  0.5440620000000  0.5453970000000 1.0
C      1  0.5292610000000  0.6001250000000  0.5049530000000 1.0
C      1  0.5105600000000  0.4958030000000  0.5251420000000 1.0
C      1  0.4556740000000  0.5867640000000  0.4594680000000 1.0
C      1  0.4853580000000  0.4493730000000  0.4561320000000 1.0
C      1  0.5306520000000  0.5528340000000  0.5116830000000 1.0
C      1  0.5923630000000  0.4501840000000  0.5085630000000 1.0
C      1  0.5280000000000  0.4126950000000  0.5433840000000 1.0
C      1  0.4866600000000  0.4190860000000  0.5865860000000 1.0
C      1  0.4718960000000  0.5551820000000  0.4167810000000 1.0
C      1  0.4623560000000  0.4195760000000  0.5421590000000 1.0
C      1  0.5010450000000  0.4635450000000  0.6090140000000 1.0
C      1  0.5043770000000  0.5549130000000  0.4277820000000 1.0
C      1  0.4644480000000  0.4298750000000  0.5930050000000 1.0
C      1  0.5107510000000  0.4301450000000  0.5652340000000 1.0
C      1  0.4454740000000  0.4520260000000  0.5849710000000 1.0
C      1  0.5007030000000  0.5127470000000  0.6120090000000 1.0
C      1  0.6025200000000  0.4984000000000  0.5109990000000 1.0
C      1  0.4330690000000  0.4256260000000  0.5319310000000 1.0
C      1  0.5483830000000  0.4501270000000  0.4391740000000 1.0
C      1  0.4659470000000  0.3996530000000  0.4466720000000 1.0
C      1  0.5434510000000  0.5438770000000  0.4815430000000 1.0
C      1  0.4571160000000  0.4981540000000  0.4088390000000 1.0
C      1  0.4624130000000  0.4559190000000  0.4787480000000 1.0
C      1  0.5896730000000  0.5287700000000  0.5078820000000 1.0
C      1  0.4649370000000  0.5818970000000  0.4978320000000 1.0
C      1  0.4828850000000  0.5190460000000  0.5753130000000 1.0
C      1  0.6025180000000  0.4637220000000  0.4727990000000 1.0
C      1  0.4739520000000  0.4475080000000  0.4267770000000 1.0
C      1  0.6123340000000  0.5415730000000  0.4632260000000 1.0
C      1  0.4133180000000  0.4227450000000  0.5124660000000 1.0
C      1  0.5303660000000  0.5493390000000  0.4065630000000 1.0
C      1  0.5520500000000  0.4130740000000  0.4587380000000 1.0
C      1  0.4055270000000  0.5530250000000  0.4653080000000 1.0
C      1  0.5636470000000  0.4660940000000  0.4645190000000 1.0
C      1  0.5886340000000  0.5250610000000  0.4740290000000 1.0
C      1  0.4470130000000  0.5140800000000  0.5914670000000 1.0
C      1  0.4714160000000  0.4829030000000  0.5282750000000 1.0
C      1  0.4042170000000  0.4965480000000  0.4675480000000 1.0
C      1  0.5242390000000  0.4749730000000  0.5022210000000 1.0
C      1  0.4934200000000  0.5835500000000  0.5760760000000 1.0
C      1  0.4670300000000  0.6101530000000  0.4858160000000 1.0
C      1  0.5771910000000  0.5012620000000  0.4288310000000 1.0
C      1  0.4566500000000  0.4841200000000  0.5861160000000 1.0
C      1  0.4990310000000  0.4933200000000  0.5705050000000 1.0
C      1  0.4778060000000  0.5841940000000  0.4335220000000 1.0
C      1  0.5877180000000  0.4380770000000  0.4797990000000 1.0
C      1  0.4868650000000  0.5139000000000  0.3873290000000 1.0
C      1  0.4246210000000  0.5629180000000  0.5594660000000 1.0
C      1  0.4862040000000  0.4261100000000  0.5203760000000 1.0
C      1  0.4344680000000  0.5509020000000  0.5292160000000 1.0
C      1  0.4911180000000  0.3936630000000  0.4673160000000 1.0
C      1  0.4572430000000  0.5780680000000  0.5302750000000 1.0
C      1  0.4166160000000  0.4748870000000  0.5451310000000 1.0
END
