TITL C-2847945-6269-619 0.00126919097498233 125000 -554.426178812024 0 0 104 (C1) n - 1
REM
REM in /home/bkarasulu/work/CARBON/AIRSS/Generating-Clusters/AIREBO/with-SteepDescent/Only-C1/SD-CG-opt/Try1-1.4A-POS3A/HFTN-CG
REM
REM
REM
REM
REM
REM ./C.cell (11c1c37f851c82e70ff6c80c92926a4b)
REM
REM compiler GCC version 9.2.1 20190827 (Red Hat 9.2.1-1)
REM options -cpp -mtune=generic -march=x86-64 -g -O0 -fpre-include=/usr/include/finclude/math-vector-fortran.h
REM seed -20591323 -533178416 593057810 -1019886660 1693949153 -148060655 1848377318 -593264306 653388015 -142315969 -961158842 171921177 -245209945 2072029797 1329429634 -2117637125 -155063139 348481242 939483544 2004769488 1200250430 -818873701 -1740805233 -1802990433 -1305643704 -452499316 -58151584 505246533 165302047 1190761661 1598493111 -1787302710 -1448120093
REM
CELL 1.54180   50.00000   50.00000   50.00000   90.00000   90.00000   90.00000
LATT -1
SFAC C  
C      1  0.5504240000000  0.5028070000000  0.4631560000000 1.0
C      1  0.5611820000000  0.4656940000000  0.4248900000000 1.0
C      1  0.4551770000000  0.4783340000000  0.5320010000000 1.0
C      1  0.5071640000000  0.5112050000000  0.5573290000000 1.0
C      1  0.5113030000000  0.4899120000000  0.4626500000000 1.0
C      1  0.5545340000000  0.5512650000000  0.5079360000000 1.0
C      1  0.5237010000000  0.4723920000000  0.5646070000000 1.0
C      1  0.4838720000000  0.4782450000000  0.4634320000000 1.0
C      1  0.4915710000000  0.4922280000000  0.5401570000000 1.0
C      1  0.4604010000000  0.4847240000000  0.5828110000000 1.0
C      1  0.4709680000000  0.4720930000000  0.5581950000000 1.0
C      1  0.5747480000000  0.5143820000000  0.4423990000000 1.0
C      1  0.4574190000000  0.5174360000000  0.5239410000000 1.0
C      1  0.4468950000000  0.5040610000000  0.4386060000000 1.0
C      1  0.5338240000000  0.4034730000000  0.4888260000000 1.0
C      1  0.4151150000000  0.4742830000000  0.4902460000000 1.0
C      1  0.5458310000000  0.4289990000000  0.5076220000000 1.0
C      1  0.4745360000000  0.5016130000000  0.4188980000000 1.0
C      1  0.5633990000000  0.5076290000000  0.5020660000000 1.0
C      1  0.4595750000000  0.5678700000000  0.5356860000000 1.0
C      1  0.4752750000000  0.5703750000000  0.5087440000000 1.0
C      1  0.4512060000000  0.4365050000000  0.4677340000000 1.0
C      1  0.5409460000000  0.5178190000000  0.4341470000000 1.0
C      1  0.5134390000000  0.4886570000000  0.4965790000000 1.0
C      1  0.5116830000000  0.5322710000000  0.4110930000000 1.0
C      1  0.4424110000000  0.5031760000000  0.4880780000000 1.0
C      1  0.5725550000000  0.4808240000000  0.4494290000000 1.0
C      1  0.4245440000000  0.4740720000000  0.5449740000000 1.0
C      1  0.5436580000000  0.4990140000000  0.5862710000000 1.0
C      1  0.5010580000000  0.5074790000000  0.4166620000000 1.0
C      1  0.4811730000000  0.4470450000000  0.4584470000000 1.0
C      1  0.5231060000000  0.5556690000000  0.4836250000000 1.0
C      1  0.5517230000000  0.5858290000000  0.4609670000000 1.0
C      1  0.4084230000000  0.5035120000000  0.4889350000000 1.0
C      1  0.4139420000000  0.5242340000000  0.5558470000000 1.0
C      1  0.4832740000000  0.4272960000000  0.5483530000000 1.0
C      1  0.5299450000000  0.5185830000000  0.5376750000000 1.0
C      1  0.5245530000000  0.5846580000000  0.5110890000000 1.0
C      1  0.4299000000000  0.5608030000000  0.5273820000000 1.0
C      1  0.5065880000000  0.5570800000000  0.4572680000000 1.0
C      1  0.4568740000000  0.5445150000000  0.5033880000000 1.0
C      1  0.5402370000000  0.5512360000000  0.5583420000000 1.0
C      1  0.5683640000000  0.5397740000000  0.4618650000000 1.0
C      1  0.5745340000000  0.4598190000000  0.4761030000000 1.0
C      1  0.4325570000000  0.4845660000000  0.5763190000000 1.0
C      1  0.5197060000000  0.4095630000000  0.5186550000000 1.0
C      1  0.5275100000000  0.4553070000000  0.5189600000000 1.0
C      1  0.5075320000000  0.4100030000000  0.5449200000000 1.0
C      1  0.4975070000000  0.4601400000000  0.5306110000000 1.0
C      1  0.4818300000000  0.4924820000000  0.5982660000000 1.0
C      1  0.4465360000000  0.4612600000000  0.4905680000000 1.0
C      1  0.4500030000000  0.4202040000000  0.4933900000000 1.0
C      1  0.5362940000000  0.4975290000000  0.5143890000000 1.0
C      1  0.4395620000000  0.5779870000000  0.4781320000000 1.0
C      1  0.5106760000000  0.4959230000000  0.5851850000000 1.0
C      1  0.4666750000000  0.5818140000000  0.4814900000000 1.0
C      1  0.5415950000000  0.4786480000000  0.5395180000000 1.0
C      1  0.4268770000000  0.5526610000000  0.4944140000000 1.0
C      1  0.5812910000000  0.5255670000000  0.5224760000000 1.0
C      1  0.5611970000000  0.5269750000000  0.5468390000000 1.0
C      1  0.6093940000000  0.5183720000000  0.5315240000000 1.0
C      1  0.5554880000000  0.4984410000000  0.5608750000000 1.0
C      1  0.4359650000000  0.4371350000000  0.5129010000000 1.0
C      1  0.5087020000000  0.4467380000000  0.5598160000000 1.0
C      1  0.5148000000000  0.5191280000000  0.4709500000000 1.0
C      1  0.5446330000000  0.4734310000000  0.4768260000000 1.0
C      1  0.4527720000000  0.4553470000000  0.4404490000000 1.0
C      1  0.4375900000000  0.5353030000000  0.5450700000000 1.0
C      1  0.4859540000000  0.5329380000000  0.4652150000000 1.0
C      1  0.5295500000000  0.5483730000000  0.5265210000000 1.0
C      1  0.4855760000000  0.5038880000000  0.5087810000000 1.0
C      1  0.5052560000000  0.5304940000000  0.5008650000000 1.0
C      1  0.4700340000000  0.4022920000000  0.4957830000000 1.0
C      1  0.4614100000000  0.4430960000000  0.5508560000000 1.0
C      1  0.4717860000000  0.5472630000000  0.4402890000000 1.0
C      1  0.4856060000000  0.5809150000000  0.4618340000000 1.0
C      1  0.5201250000000  0.4570840000000  0.4862180000000 1.0
C      1  0.5345690000000  0.4675000000000  0.4196380000000 1.0
C      1  0.5445980000000  0.5293110000000  0.4838210000000 1.0
C      1  0.5070970000000  0.5436590000000  0.5591640000000 1.0
C      1  0.5272060000000  0.5487690000000  0.4350240000000 1.0
C      1  0.5045210000000  0.4354380000000  0.4721750000000 1.0
C      1  0.5716480000000  0.4374070000000  0.4977620000000 1.0
C      1  0.5815230000000  0.5416170000000  0.4921870000000 1.0
C      1  0.5541370000000  0.5623200000000  0.4466690000000 1.0
C      1  0.5231130000000  0.4127610000000  0.4625570000000 1.0
C      1  0.5213910000000  0.4905160000000  0.4333990000000 1.0
C      1  0.5629790000000  0.5657960000000  0.5376710000000 1.0
C      1  0.5248650000000  0.4176150000000  0.5678340000000 1.0
C      1  0.4151320000000  0.5297700000000  0.4760170000000 1.0
C      1  0.4568580000000  0.5444290000000  0.5678390000000 1.0
C      1  0.4820580000000  0.5565760000000  0.5573440000000 1.0
C      1  0.4982130000000  0.4100740000000  0.4935970000000 1.0
C      1  0.4513580000000  0.4813780000000  0.4635620000000 1.0
C      1  0.5017360000000  0.5602360000000  0.5168230000000 1.0
C      1  0.4738220000000  0.4710030000000  0.5087280000000 1.0
C      1  0.4679320000000  0.5214800000000  0.4856390000000 1.0
C      1  0.4319580000000  0.4963480000000  0.5197470000000 1.0
C      1  0.5198080000000  0.4495510000000  0.4052420000000 1.0
C      1  0.5379060000000  0.5831550000000  0.4855560000000 1.0
C      1  0.4540710000000  0.5346850000000  0.4276020000000 1.0
C      1  0.4228340000000  0.5252700000000  0.4499500000000 1.0
C      1  0.4360930000000  0.4440940000000  0.5392620000000 1.0
C      1  0.5795380000000  0.4894870000000  0.4878350000000 1.0
END
