TITL C-2847949-8115-450 -0.00109642127740967 125000 -280.447480087666 0 0 53 (C1) n - 1
REM
REM in /home/bkarasulu/work/CARBON/AIRSS/Generating-Clusters/AIREBO/with-SteepDescent/Only-C1/SD-CG-opt/Try1-1.4A-POS3A/HFTN-CG
REM
REM
REM
REM
REM
REM ./C.cell (11c1c37f851c82e70ff6c80c92926a4b)
REM
REM compiler GCC version 9.2.1 20190827 (Red Hat 9.2.1-1)
REM options -cpp -mtune=generic -march=x86-64 -g -O0 -fpre-include=/usr/include/finclude/math-vector-fortran.h
REM seed -971560565 -1161130082 -438159037 1343087407 1680648823 -306425133 -1504818049 -369620992 1870341568 -1474329297 1275188816 488348157 -1204532905 1101163067 -2043726075 242235071 1252728118 1409973599 1578693150 -1687249750 -886773763 -1683393303 1461013072 107872125 798229909 132109625 1937329375 -938023052 380783822 -1458169246 -421085254 1128987855 1482627059
REM
CELL 1.54180   50.00000   50.00000   50.00000   90.00000   90.00000   90.00000
LATT -1
SFAC C  
C      1  0.4848980000000  0.5470490000000  0.4528560000000 1.0
C      1  0.4899710000000  0.5365730000000  0.5641090000000 1.0
C      1  0.5533330000000  0.4907970000000  0.4661900000000 1.0
C      1  0.4930950000000  0.5147850000000  0.4598330000000 1.0
C      1  0.4539920000000  0.5502010000000  0.5245840000000 1.0
C      1  0.4597510000000  0.4843180000000  0.5346900000000 1.0
C      1  0.5536220000000  0.5269050000000  0.5542320000000 1.0
C      1  0.4872370000000  0.4632080000000  0.5131820000000 1.0
C      1  0.4810950000000  0.4360620000000  0.4745770000000 1.0
C      1  0.5312540000000  0.4773070000000  0.5417320000000 1.0
C      1  0.4486770000000  0.4567470000000  0.5214810000000 1.0
C      1  0.5391230000000  0.5316740000000  0.4813670000000 1.0
C      1  0.5351970000000  0.4491770000000  0.5245590000000 1.0
C      1  0.4766260000000  0.4985190000000  0.4348860000000 1.0
C      1  0.5209740000000  0.4312240000000  0.5094760000000 1.0
C      1  0.5334360000000  0.4869040000000  0.5117070000000 1.0
C      1  0.5030010000000  0.4903430000000  0.5666850000000 1.0
C      1  0.4870330000000  0.5028890000000  0.5428660000000 1.0
C      1  0.5583520000000  0.4838020000000  0.4921110000000 1.0
C      1  0.4898370000000  0.4726990000000  0.4293410000000 1.0
C      1  0.5102300000000  0.5399190000000  0.4750630000000 1.0
C      1  0.4774360000000  0.5133580000000  0.4908660000000 1.0
C      1  0.5408880000000  0.5194240000000  0.5087320000000 1.0
C      1  0.5096330000000  0.5173570000000  0.5219720000000 1.0
C      1  0.5148540000000  0.5140970000000  0.4336900000000 1.0
C      1  0.4786870000000  0.5662780000000  0.5149050000000 1.0
C      1  0.4300870000000  0.5303640000000  0.5104200000000 1.0
C      1  0.5004980000000  0.4826290000000  0.4680910000000 1.0
C      1  0.4582940000000  0.5343220000000  0.4623850000000 1.0
C      1  0.5248600000000  0.5588530000000  0.5254770000000 1.0
C      1  0.5272460000000  0.4674820000000  0.5740380000000 1.0
C      1  0.5519890000000  0.5185040000000  0.4607530000000 1.0
C      1  0.4665140000000  0.4815260000000  0.4693790000000 1.0
C      1  0.5015230000000  0.4915420000000  0.5008980000000 1.0
C      1  0.4574280000000  0.4552140000000  0.4757900000000 1.0
C      1  0.5449540000000  0.5404420000000  0.5309290000000 1.0
C      1  0.4643730000000  0.5284900000000  0.5463400000000 1.0
C      1  0.5124020000000  0.5321880000000  0.5524520000000 1.0
C      1  0.4993020000000  0.4606650000000  0.5583860000000 1.0
C      1  0.4401500000000  0.4504740000000  0.4974420000000 1.0
C      1  0.5492260000000  0.4999250000000  0.5583170000000 1.0
C      1  0.5403770000000  0.5257220000000  0.4359620000000 1.0
C      1  0.4744240000000  0.4554850000000  0.5437190000000 1.0
C      1  0.4568200000000  0.5108580000000  0.5182630000000 1.0
C      1  0.5035910000000  0.5807120000000  0.5222990000000 1.0
C      1  0.4569260000000  0.5404710000000  0.4921520000000 1.0
C      1  0.5373640000000  0.4469880000000  0.4539640000000 1.0
C      1  0.5161090000000  0.4857340000000  0.4300570000000 1.0
C      1  0.4902520000000  0.4539050000000  0.4530260000000 1.0
C      1  0.4960400000000  0.4393590000000  0.4990790000000 1.0
C      1  0.4542740000000  0.5069230000000  0.4551910000000 1.0
C      1  0.5018580000000  0.5453310000000  0.5042740000000 1.0
C      1  0.5308860000000  0.4742800000000  0.4552220000000 1.0
END
