TITL C-2847945-6269-39 0.0266721864786744 125000 -112.209823633883 0 0 21 (C1) n - 1
REM
REM in /home/bkarasulu/work/CARBON/AIRSS/Generating-Clusters/AIREBO/with-SteepDescent/Only-C1/SD-CG-opt/Try1-1.4A-POS3A/HFTN-CG
REM
REM
REM
REM
REM
REM ./C.cell (11c1c37f851c82e70ff6c80c92926a4b)
REM
REM compiler GCC version 9.2.1 20190827 (Red Hat 9.2.1-1)
REM options -cpp -mtune=generic -march=x86-64 -g -O0 -fpre-include=/usr/include/finclude/math-vector-fortran.h
REM seed 720981355 -481765071 -847469604 -189788238 -2131660168 2028501840 1560639113 -656527767 687273705 572534082 737728840 -2112769524 -1101809479 1119944170 194240334 1487832087 -776850919 1350692274 -182621458 -720004063 -2035719132 680657254 -27738105 -1180029686 829200064 1050699137 257810892 1724846603 534587976 1314033591 1799242659 1460431360 1481906641
REM
CELL 1.54180   50.00000   50.00000   50.00000   90.00000   90.00000   90.00000
LATT -1
SFAC C  
C      1  0.5073150000000  0.4748090000000  0.5136870000000 1.0
C      1  0.4595450000000  0.4982020000000  0.5041110000000 1.0
C      1  0.4970000000000  0.4345180000000  0.4935360000000 1.0
C      1  0.4882710000000  0.5377140000000  0.5167080000000 1.0
C      1  0.5209570000000  0.4962550000000  0.5268790000000 1.0
C      1  0.4367130000000  0.4930460000000  0.5172040000000 1.0
C      1  0.5437740000000  0.5054030000000  0.4426830000000 1.0
C      1  0.5204550000000  0.5121500000000  0.4641060000000 1.0
C      1  0.4801640000000  0.5632590000000  0.5193040000000 1.0
C      1  0.4781600000000  0.5209580000000  0.4966520000000 1.0
C      1  0.5529290000000  0.5067470000000  0.5233090000000 1.0
C      1  0.5351080000000  0.5209120000000  0.5459320000000 1.0
C      1  0.4923480000000  0.5080200000000  0.4703050000000 1.0
C      1  0.4822940000000  0.4532320000000  0.4786630000000 1.0
C      1  0.4858520000000  0.4823690000000  0.4915350000000 1.0
C      1  0.4756400000000  0.5099230000000  0.4476580000000 1.0
C      1  0.5057960000000  0.5255960000000  0.5338100000000 1.0
C      1  0.5509360000000  0.5091680000000  0.4738030000000 1.0
C      1  0.5109150000000  0.4474930000000  0.5141890000000 1.0
C      1  0.5626160000000  0.5121340000000  0.4982260000000 1.0
C      1  0.4132140000000  0.4880900000000  0.5277010000000 1.0
END
