TITL C-2848494-1720-269 0.00240794246436559 125000 -526.200381898956 0 0 97 (C1) n - 1
REM
REM in /home/bkarasulu/work/CARBON/AIRSS/Generating-Clusters/AIREBO/with-SteepDescent/Only-C1/SD-CG-opt/Try1-1.4A-POS3A/HFTN-CG
REM
REM
REM
REM
REM
REM ./C.cell (11c1c37f851c82e70ff6c80c92926a4b)
REM
REM compiler GCC version 9.2.1 20190827 (Red Hat 9.2.1-1)
REM options -cpp -mtune=generic -march=x86-64 -g -O0 -fpre-include=/usr/include/finclude/math-vector-fortran.h
REM seed -1256400377 678085220 -459453466 -466760789 -39895479 -1199126354 116476752 -1912526666 587587574 -196189158 691505412 -646116177 859338411 708687443 1066508540 1791107990 -1233904896 -2010759197 -1215145283 801006836 2011780391 -1701615725 105328514 605512581 1134301155 -975911861 -843209204 1541261986 -1336933619 254301629 -853441103 -1621860245 -44444854
REM
CELL 1.54180   50.00000   50.00000   50.00000   90.00000   90.00000   90.00000
LATT -1
SFAC C  
C      1  0.4729010000000  0.4461950000000  0.5577610000000 1.0
C      1  0.5801230000000  0.4881230000000  0.4807830000000 1.0
C      1  0.5051430000000  0.5525830000000  0.5723860000000 1.0
C      1  0.5782820000000  0.5081120000000  0.4538860000000 1.0
C      1  0.5536750000000  0.5176330000000  0.5515940000000 1.0
C      1  0.4242510000000  0.4688490000000  0.5353540000000 1.0
C      1  0.4985760000000  0.4802260000000  0.5744680000000 1.0
C      1  0.4924330000000  0.4103820000000  0.4873070000000 1.0
C      1  0.4410920000000  0.4874870000000  0.4623450000000 1.0
C      1  0.5687780000000  0.5511460000000  0.4746200000000 1.0
C      1  0.4707210000000  0.4883800000000  0.5747040000000 1.0
C      1  0.4975240000000  0.4711790000000  0.4306030000000 1.0
C      1  0.4749810000000  0.4742910000000  0.5201340000000 1.0
C      1  0.5320900000000  0.5355020000000  0.5693640000000 1.0
C      1  0.5388990000000  0.4623700000000  0.5509460000000 1.0
C      1  0.4277300000000  0.4379630000000  0.5286330000000 1.0
C      1  0.4851180000000  0.4402230000000  0.4726940000000 1.0
C      1  0.5415270000000  0.4460550000000  0.4943190000000 1.0
C      1  0.4520540000000  0.4315730000000  0.5185230000000 1.0
C      1  0.5021750000000  0.4467360000000  0.5013850000000 1.0
C      1  0.4982400000000  0.5014290000000  0.4921690000000 1.0
C      1  0.5243010000000  0.4894100000000  0.5382400000000 1.0
C      1  0.5654990000000  0.4966340000000  0.5717190000000 1.0
C      1  0.5057870000000  0.4987190000000  0.4173600000000 1.0
C      1  0.5103290000000  0.5483820000000  0.4214650000000 1.0
C      1  0.5381330000000  0.5000440000000  0.4139620000000 1.0
C      1  0.5542490000000  0.5448340000000  0.5164740000000 1.0
C      1  0.5075770000000  0.4776860000000  0.5110500000000 1.0
C      1  0.4396110000000  0.4784700000000  0.4302280000000 1.0
C      1  0.5832930000000  0.5369160000000  0.5188750000000 1.0
C      1  0.5005470000000  0.4540820000000  0.5634290000000 1.0
C      1  0.4844790000000  0.5375210000000  0.5276550000000 1.0
C      1  0.5779530000000  0.5402780000000  0.5483150000000 1.0
C      1  0.5191620000000  0.5037880000000  0.5662650000000 1.0
C      1  0.4293200000000  0.5259450000000  0.5360820000000 1.0
C      1  0.4643500000000  0.4417520000000  0.4458050000000 1.0
C      1  0.5331470000000  0.4253530000000  0.5141280000000 1.0
C      1  0.4398130000000  0.4926890000000  0.5166410000000 1.0
C      1  0.4700890000000  0.5079350000000  0.5197110000000 1.0
C      1  0.5868240000000  0.4663920000000  0.4589660000000 1.0
C      1  0.4955340000000  0.4706550000000  0.4616570000000 1.0
C      1  0.4368220000000  0.5424220000000  0.5106970000000 1.0
C      1  0.4941660000000  0.5938120000000  0.4886640000000 1.0
C      1  0.4473380000000  0.5404550000000  0.5599870000000 1.0
C      1  0.5137160000000  0.4281820000000  0.4587570000000 1.0
C      1  0.4235780000000  0.4708410000000  0.4862900000000 1.0
C      1  0.4721060000000  0.4981040000000  0.4177790000000 1.0
C      1  0.4817960000000  0.5125530000000  0.4470440000000 1.0
C      1  0.4508910000000  0.5069700000000  0.5542660000000 1.0
C      1  0.4732980000000  0.4939730000000  0.4711820000000 1.0
C      1  0.5455900000000  0.5468410000000  0.4586720000000 1.0
C      1  0.5274420000000  0.5593800000000  0.4413110000000 1.0
C      1  0.4924530000000  0.5433170000000  0.4568490000000 1.0
C      1  0.4793300000000  0.5335860000000  0.5610350000000 1.0
C      1  0.4305840000000  0.5314260000000  0.4834550000000 1.0
C      1  0.5149670000000  0.4043090000000  0.4985430000000 1.0
C      1  0.5553120000000  0.4739960000000  0.5757260000000 1.0
C      1  0.5875900000000  0.5086120000000  0.5061930000000 1.0
C      1  0.4045300000000  0.4823110000000  0.5009980000000 1.0
C      1  0.4594390000000  0.5282170000000  0.4182620000000 1.0
C      1  0.5408360000000  0.4744100000000  0.5047340000000 1.0
C      1  0.4297720000000  0.5172860000000  0.4580370000000 1.0
C      1  0.5170310000000  0.5809440000000  0.5298690000000 1.0
C      1  0.4722940000000  0.4271980000000  0.5371960000000 1.0
C      1  0.5103780000000  0.5999230000000  0.5104070000000 1.0
C      1  0.5348510000000  0.4456430000000  0.4669370000000 1.0
C      1  0.4093420000000  0.5046830000000  0.5257980000000 1.0
C      1  0.5229870000000  0.4366130000000  0.5445870000000 1.0
C      1  0.5100660000000  0.5277320000000  0.5088470000000 1.0
C      1  0.4950930000000  0.5657610000000  0.5435780000000 1.0
C      1  0.5390700000000  0.5147420000000  0.5209990000000 1.0
C      1  0.5712220000000  0.4813720000000  0.5183250000000 1.0
C      1  0.4348890000000  0.5285760000000  0.4326370000000 1.0
C      1  0.3909740000000  0.4735420000000  0.5303290000000 1.0
C      1  0.5108870000000  0.5251560000000  0.4748170000000 1.0
C      1  0.4982770000000  0.5212550000000  0.5844390000000 1.0
C      1  0.4613560000000  0.5549470000000  0.5120390000000 1.0
C      1  0.5417110000000  0.5681550000000  0.5304490000000 1.0
C      1  0.4628210000000  0.4516480000000  0.4978070000000 1.0
C      1  0.5698990000000  0.4635030000000  0.5401240000000 1.0
C      1  0.5839820000000  0.5274440000000  0.4780130000000 1.0
C      1  0.5204420000000  0.5262190000000  0.4081200000000 1.0
C      1  0.5284130000000  0.4719320000000  0.4561070000000 1.0
C      1  0.4617300000000  0.5674130000000  0.5500400000000 1.0
C      1  0.5496260000000  0.4940870000000  0.4420870000000 1.0
C      1  0.5510760000000  0.5024770000000  0.4913970000000 1.0
C      1  0.4877270000000  0.5685260000000  0.4704200000000 1.0
C      1  0.4693220000000  0.5746530000000  0.4950860000000 1.0
C      1  0.5532200000000  0.5570060000000  0.5553530000000 1.0
C      1  0.4481560000000  0.4548320000000  0.4685970000000 1.0
C      1  0.4529280000000  0.5106220000000  0.4926980000000 1.0
C      1  0.4555220000000  0.4737530000000  0.5480260000000 1.0
C      1  0.4803510000000  0.5460000000000  0.4254530000000 1.0
C      1  0.4675790000000  0.4644190000000  0.4206480000000 1.0
C      1  0.5386040000000  0.5168280000000  0.4648460000000 1.0
C      1  0.4980130000000  0.4284060000000  0.5253880000000 1.0
C      1  0.5722880000000  0.4690630000000  0.4380450000000 1.0
END
