TITL C-2847945-6269-588 -0.000561958418493189 125000 -853.071006013188 0 0 161 (C1) n - 1
REM
REM in /home/bkarasulu/work/CARBON/AIRSS/Generating-Clusters/AIREBO/with-SteepDescent/Only-C1/SD-CG-opt/Try1-1.4A-POS3A/HFTN-CG
REM
REM
REM
REM
REM
REM ./C.cell (11c1c37f851c82e70ff6c80c92926a4b)
REM
REM compiler GCC version 9.2.1 20190827 (Red Hat 9.2.1-1)
REM options -cpp -mtune=generic -march=x86-64 -g -O0 -fpre-include=/usr/include/finclude/math-vector-fortran.h
REM seed 385631887 1327268974 153505890 2114933346 -661835138 1759870774 1978518459 -1836537580 -1610169234 -119887658 726772821 -1290786443 -372955616 1020359039 1802997968 780371133 252463967 -837178710 2027185218 -1902029084 -487482359 817471783 -1505510631 -1628783161 535063126 -171478154 -8824071 -1646984002 1300048376 -167216296 1927401736 -2091991112 1325477999
REM
CELL 1.54180   50.00000   50.00000   50.00000   90.00000   90.00000   90.00000
LATT -1
SFAC C  
C      1  0.4326960000000  0.4436370000000  0.5431670000000 1.0
C      1  0.5493800000000  0.5340930000000  0.5652760000000 1.0
C      1  0.4433950000000  0.5299470000000  0.4956130000000 1.0
C      1  0.5069970000000  0.5356740000000  0.4485730000000 1.0
C      1  0.5790160000000  0.4734920000000  0.4467190000000 1.0
C      1  0.5452580000000  0.5291910000000  0.4753010000000 1.0
C      1  0.4053190000000  0.4957590000000  0.5568520000000 1.0
C      1  0.5059210000000  0.4783430000000  0.5746860000000 1.0
C      1  0.4141960000000  0.5257960000000  0.5097250000000 1.0
C      1  0.5705040000000  0.4270610000000  0.5077950000000 1.0
C      1  0.5445310000000  0.5971510000000  0.5017760000000 1.0
C      1  0.5270660000000  0.4517450000000  0.4997330000000 1.0
C      1  0.4931430000000  0.4969720000000  0.4167880000000 1.0
C      1  0.5349190000000  0.5562350000000  0.4843500000000 1.0
C      1  0.5648980000000  0.4395780000000  0.4803800000000 1.0
C      1  0.5357500000000  0.5384020000000  0.5134540000000 1.0
C      1  0.5468710000000  0.4670570000000  0.4420580000000 1.0
C      1  0.3933810000000  0.5307700000000  0.4830520000000 1.0
C      1  0.4610150000000  0.4564200000000  0.4580380000000 1.0
C      1  0.5161470000000  0.4475670000000  0.5302920000000 1.0
C      1  0.4702420000000  0.4345560000000  0.5515450000000 1.0
C      1  0.5489620000000  0.5004910000000  0.4479310000000 1.0
C      1  0.4935280000000  0.5062070000000  0.5362760000000 1.0
C      1  0.4503530000000  0.5460250000000  0.4212100000000 1.0
C      1  0.4946000000000  0.5914380000000  0.4770930000000 1.0
C      1  0.4464770000000  0.4916960000000  0.4026750000000 1.0
C      1  0.5089800000000  0.4540540000000  0.4460800000000 1.0
C      1  0.4368340000000  0.4931970000000  0.5098510000000 1.0
C      1  0.5102300000000  0.3772900000000  0.5591850000000 1.0
C      1  0.5157360000000  0.5145070000000  0.3982970000000 1.0
C      1  0.5099220000000  0.5359940000000  0.5354500000000 1.0
C      1  0.4183730000000  0.4278400000000  0.4640790000000 1.0
C      1  0.5007790000000  0.3858780000000  0.4945160000000 1.0
C      1  0.5715680000000  0.4855850000000  0.4171380000000 1.0
C      1  0.6010980000000  0.5220780000000  0.4627210000000 1.0
C      1  0.5279610000000  0.4117210000000  0.4621050000000 1.0
C      1  0.4905710000000  0.4624030000000  0.4734450000000 1.0
C      1  0.5165020000000  0.4928820000000  0.4411600000000 1.0
C      1  0.5145170000000  0.3576160000000  0.5748640000000 1.0
C      1  0.4473920000000  0.5586230000000  0.5635120000000 1.0
C      1  0.5343590000000  0.5560510000000  0.4165170000000 1.0
C      1  0.5557480000000  0.4913450000000  0.4799710000000 1.0
C      1  0.4651310000000  0.5357350000000  0.6028620000000 1.0
C      1  0.6137850000000  0.4719860000000  0.4786580000000 1.0
C      1  0.3953290000000  0.5038930000000  0.4644230000000 1.0
C      1  0.5826090000000  0.5505430000000  0.4981090000000 1.0
C      1  0.5716120000000  0.5603060000000  0.4498000000000 1.0
C      1  0.5118590000000  0.4218790000000  0.4421770000000 1.0
C      1  0.5733540000000  0.5184030000000  0.4911330000000 1.0
C      1  0.4803260000000  0.5862870000000  0.4201720000000 1.0
C      1  0.4749320000000  0.5764860000000  0.5549640000000 1.0
C      1  0.5546560000000  0.4059880000000  0.5138980000000 1.0
C      1  0.4203250000000  0.4551970000000  0.5162070000000 1.0
C      1  0.4711610000000  0.4812370000000  0.4379380000000 1.0
C      1  0.4558110000000  0.4550920000000  0.4916130000000 1.0
C      1  0.5011820000000  0.4639620000000  0.4181850000000 1.0
C      1  0.4632370000000  0.5575530000000  0.4961630000000 1.0
C      1  0.4242120000000  0.5388700000000  0.4385740000000 1.0
C      1  0.5983520000000  0.5045140000000  0.5190570000000 1.0
C      1  0.5458490000000  0.5773740000000  0.4357070000000 1.0
C      1  0.4846950000000  0.4637800000000  0.5073080000000 1.0
C      1  0.5422480000000  0.4839850000000  0.5337910000000 1.0
C      1  0.5812310000000  0.4755140000000  0.5138230000000 1.0
C      1  0.5183070000000  0.5911030000000  0.4527020000000 1.0
C      1  0.5065160000000  0.5648290000000  0.5177490000000 1.0
C      1  0.5042920000000  0.5443870000000  0.4097990000000 1.0
C      1  0.4432410000000  0.4265210000000  0.5705870000000 1.0
C      1  0.5192050000000  0.4312740000000  0.5854670000000 1.0
C      1  0.4168750000000  0.5254270000000  0.5414900000000 1.0
C      1  0.4655720000000  0.5079710000000  0.5204610000000 1.0
C      1  0.4096750000000  0.4657040000000  0.4944060000000 1.0
C      1  0.4424040000000  0.4835900000000  0.4803300000000 1.0
C      1  0.5954340000000  0.5522140000000  0.4694340000000 1.0
C      1  0.4805480000000  0.4264070000000  0.4400800000000 1.0
C      1  0.4441010000000  0.4882740000000  0.5874230000000 1.0
C      1  0.5193080000000  0.5936320000000  0.5175540000000 1.0
C      1  0.5683430000000  0.4704280000000  0.5449040000000 1.0
C      1  0.5433600000000  0.4682100000000  0.4093810000000 1.0
C      1  0.5190410000000  0.6048930000000  0.5492250000000 1.0
C      1  0.4059630000000  0.4959120000000  0.4957430000000 1.0
C      1  0.4612150000000  0.4377630000000  0.4229520000000 1.0
C      1  0.6048600000000  0.4862570000000  0.5445820000000 1.0
C      1  0.5243500000000  0.5540730000000  0.5588830000000 1.0
C      1  0.5799480000000  0.4691150000000  0.4804370000000 1.0
C      1  0.4967250000000  0.4277240000000  0.6014410000000 1.0
C      1  0.5080060000000  0.4013000000000  0.5410030000000 1.0
C      1  0.4802290000000  0.4036690000000  0.4901000000000 1.0
C      1  0.4971790000000  0.5599680000000  0.5728850000000 1.0
C      1  0.5348060000000  0.5265540000000  0.4312310000000 1.0
C      1  0.5044770000000  0.5592380000000  0.4724120000000 1.0
C      1  0.4620630000000  0.5285710000000  0.5697630000000 1.0
C      1  0.4277640000000  0.5671230000000  0.4571600000000 1.0
C      1  0.5075250000000  0.5753220000000  0.4245700000000 1.0
C      1  0.5249360000000  0.4967480000000  0.5576050000000 1.0
C      1  0.5168890000000  0.5115490000000  0.4689530000000 1.0
C      1  0.5232840000000  0.3996070000000  0.5140960000000 1.0
C      1  0.4234350000000  0.4143820000000  0.4850760000000 1.0
C      1  0.4606700000000  0.5913920000000  0.4982740000000 1.0
C      1  0.5906310000000  0.5329330000000  0.5243400000000 1.0
C      1  0.4771150000000  0.5198200000000  0.4520460000000 1.0
C      1  0.5405460000000  0.6067880000000  0.4731280000000 1.0
C      1  0.4639750000000  0.5328130000000  0.5378590000000 1.0
C      1  0.5292310000000  0.4583550000000  0.5834200000000 1.0
C      1  0.4370390000000  0.5069800000000  0.5617580000000 1.0
C      1  0.5372500000000  0.5814490000000  0.5510670000000 1.0
C      1  0.4142300000000  0.4655100000000  0.5619610000000 1.0
C      1  0.4284440000000  0.5573990000000  0.5397410000000 1.0
C      1  0.4690450000000  0.4664950000000  0.4073690000000 1.0
C      1  0.5104260000000  0.4801410000000  0.5224010000000 1.0
C      1  0.4343190000000  0.4528600000000  0.4372780000000 1.0
C      1  0.4874180000000  0.4948850000000  0.4727390000000 1.0
C      1  0.4789560000000  0.5276290000000  0.4206600000000 1.0
C      1  0.4668670000000  0.5575840000000  0.5288890000000 1.0
C      1  0.5701020000000  0.5267880000000  0.4522110000000 1.0
C      1  0.4249550000000  0.5297210000000  0.4704730000000 1.0
C      1  0.4891190000000  0.6007970000000  0.5421640000000 1.0
C      1  0.5144570000000  0.5144010000000  0.5021940000000 1.0
C      1  0.4408500000000  0.4297570000000  0.5066340000000 1.0
C      1  0.5549090000000  0.4161090000000  0.4606630000000 1.0
C      1  0.5648970000000  0.5772500000000  0.5074500000000 1.0
C      1  0.5876900000000  0.4436800000000  0.5215820000000 1.0
C      1  0.5848950000000  0.4904410000000  0.5668550000000 1.0
C      1  0.4929570000000  0.5404730000000  0.4982780000000 1.0
C      1  0.4325030000000  0.5668580000000  0.4849180000000 1.0
C      1  0.6025440000000  0.5015130000000  0.4866510000000 1.0
C      1  0.4929680000000  0.5404710000000  0.5921940000000 1.0
C      1  0.4646680000000  0.4101750000000  0.5119410000000 1.0
C      1  0.5424070000000  0.5159870000000  0.5879750000000 1.0
C      1  0.4376560000000  0.4866240000000  0.4349980000000 1.0
C      1  0.4610410000000  0.4580970000000  0.5310710000000 1.0
C      1  0.4678070000000  0.4394750000000  0.5909250000000 1.0
C      1  0.4542870000000  0.5196650000000  0.3986510000000 1.0
C      1  0.4436630000000  0.4596220000000  0.5779930000000 1.0
C      1  0.5104110000000  0.4299500000000  0.5537860000000 1.0
C      1  0.4718900000000  0.5155020000000  0.4912020000000 1.0
C      1  0.5307570000000  0.4852890000000  0.4955670000000 1.0
C      1  0.4112770000000  0.5073830000000  0.4404400000000 1.0
C      1  0.4634210000000  0.5962740000000  0.4647470000000 1.0
C      1  0.4901100000000  0.4526880000000  0.5689170000000 1.0
C      1  0.4564230000000  0.5738570000000  0.4401460000000 1.0
C      1  0.5512240000000  0.5757500000000  0.4688890000000 1.0
C      1  0.5734560000000  0.5429540000000  0.5448310000000 1.0
C      1  0.4886230000000  0.5072960000000  0.5702930000000 1.0
C      1  0.5526530000000  0.5616280000000  0.5316540000000 1.0
C      1  0.5169020000000  0.4219830000000  0.4896080000000 1.0
C      1  0.5426470000000  0.5018270000000  0.4087740000000 1.0
C      1  0.4697310000000  0.4956120000000  0.5960420000000 1.0
C      1  0.5356900000000  0.4506200000000  0.4668610000000 1.0
C      1  0.5537170000000  0.4680370000000  0.5756110000000 1.0
C      1  0.4343260000000  0.5765860000000  0.5159460000000 1.0
C      1  0.4227100000000  0.4592740000000  0.4677280000000 1.0
C      1  0.5137200000000  0.5182720000000  0.5904640000000 1.0
C      1  0.4477820000000  0.5065060000000  0.4606640000000 1.0
C      1  0.5445020000000  0.5164610000000  0.5379250000000 1.0
C      1  0.5631490000000  0.4949100000000  0.5898210000000 1.0
C      1  0.4718840000000  0.5559390000000  0.4633120000000 1.0
C      1  0.4877660000000  0.4285030000000  0.4732460000000 1.0
C      1  0.4421930000000  0.4822540000000  0.5389930000000 1.0
C      1  0.4790960000000  0.4122810000000  0.5354020000000 1.0
C      1  0.6084660000000  0.4586610000000  0.5377250000000 1.0
C      1  0.4880310000000  0.6020770000000  0.5089560000000 1.0
END
