TITL C-2847952-8118-343 0.000289221030384204 125000 -729.954003727368 0 0 135 (C1) n - 1
REM
REM in /home/bkarasulu/work/CARBON/AIRSS/Generating-Clusters/AIREBO/with-SteepDescent/Only-C1/SD-CG-opt/Try1-1.4A-POS3A/HFTN-CG
REM
REM
REM
REM
REM
REM ./C.cell (11c1c37f851c82e70ff6c80c92926a4b)
REM
REM compiler GCC version 9.2.1 20190827 (Red Hat 9.2.1-1)
REM options -cpp -mtune=generic -march=x86-64 -g -O0 -fpre-include=/usr/include/finclude/math-vector-fortran.h
REM seed 1442265577 -14328653 -553052171 238308073 295380207 -734345894 -2125608918 2139733928 1900262342 -1098172067 108317961 -669836851 -970717849 -1903840546 489015816 -1985368037 1302322370 -1219116361 -1640809102 922425304 243345472 1674524104 347134354 645105266 -1016260523 -1374411968 -370231046 114493154 1904891537 -1899392635 -1206354632 -1798591648 313463841
REM
CELL 1.54180   50.00000   50.00000   50.00000   90.00000   90.00000   90.00000
LATT -1
SFAC C  
C      1  0.5360830000000  0.4065090000000  0.4602970000000 1.0
C      1  0.4061240000000  0.4876260000000  0.5235680000000 1.0
C      1  0.5532310000000  0.5241910000000  0.5077150000000 1.0
C      1  0.5508980000000  0.5131780000000  0.4788790000000 1.0
C      1  0.5241370000000  0.5000950000000  0.4804430000000 1.0
C      1  0.4780900000000  0.5263040000000  0.5943210000000 1.0
C      1  0.4817230000000  0.4652200000000  0.4729440000000 1.0
C      1  0.4252690000000  0.5209080000000  0.4964180000000 1.0
C      1  0.4747630000000  0.4823230000000  0.5008440000000 1.0
C      1  0.5759940000000  0.4335430000000  0.5122900000000 1.0
C      1  0.5821420000000  0.4559160000000  0.5357590000000 1.0
C      1  0.4797960000000  0.5616330000000  0.4894290000000 1.0
C      1  0.5825910000000  0.5136030000000  0.5182900000000 1.0
C      1  0.5518180000000  0.4836180000000  0.4360580000000 1.0
C      1  0.5377600000000  0.5384430000000  0.4448200000000 1.0
C      1  0.4738000000000  0.5265900000000  0.5356960000000 1.0
C      1  0.4385650000000  0.4806250000000  0.5175600000000 1.0
C      1  0.4577040000000  0.5054620000000  0.4053620000000 1.0
C      1  0.4918290000000  0.4497780000000  0.5711150000000 1.0
C      1  0.4664680000000  0.4356450000000  0.5763470000000 1.0
C      1  0.4838650000000  0.4334970000000  0.4836190000000 1.0
C      1  0.5902080000000  0.5138410000000  0.4851450000000 1.0
C      1  0.4042670000000  0.5161770000000  0.5300820000000 1.0
C      1  0.5895070000000  0.5577620000000  0.5058260000000 1.0
C      1  0.4079620000000  0.4611890000000  0.4714690000000 1.0
C      1  0.5345880000000  0.3885610000000  0.4782600000000 1.0
C      1  0.5153300000000  0.4911910000000  0.4526090000000 1.0
C      1  0.5679420000000  0.4866980000000  0.5330460000000 1.0
C      1  0.4107740000000  0.4903250000000  0.4906120000000 1.0
C      1  0.5456220000000  0.4327460000000  0.5667800000000 1.0
C      1  0.5045550000000  0.5374820000000  0.5094210000000 1.0
C      1  0.5284220000000  0.5938080000000  0.5065790000000 1.0
C      1  0.5418750000000  0.5776420000000  0.4506920000000 1.0
C      1  0.5474590000000  0.4364690000000  0.4930830000000 1.0
C      1  0.5196550000000  0.4385900000000  0.5849530000000 1.0
C      1  0.5731260000000  0.4920150000000  0.4695930000000 1.0
C      1  0.5327400000000  0.4620620000000  0.4501330000000 1.0
C      1  0.4486170000000  0.4217000000000  0.5177370000000 1.0
C      1  0.4815320000000  0.4989950000000  0.4246490000000 1.0
C      1  0.5064910000000  0.4505170000000  0.5424870000000 1.0
C      1  0.4696630000000  0.5380430000000  0.5674120000000 1.0
C      1  0.5746280000000  0.4648320000000  0.4874320000000 1.0
C      1  0.4451760000000  0.4828020000000  0.4213860000000 1.0
C      1  0.5735070000000  0.5311230000000  0.4608700000000 1.0
C      1  0.4536920000000  0.6002520000000  0.5097240000000 1.0
C      1  0.5710010000000  0.5600750000000  0.4525580000000 1.0
C      1  0.5424260000000  0.4815480000000  0.5633790000000 1.0
C      1  0.5173550000000  0.4713600000000  0.5926020000000 1.0
C      1  0.5276850000000  0.5443040000000  0.5835810000000 1.0
C      1  0.5316870000000  0.4962850000000  0.4141340000000 1.0
C      1  0.5229410000000  0.4362250000000  0.4694840000000 1.0
C      1  0.4808840000000  0.4791980000000  0.5782180000000 1.0
C      1  0.4530380000000  0.4314800000000  0.4876720000000 1.0
C      1  0.5979410000000  0.4664230000000  0.5080380000000 1.0
C      1  0.4863770000000  0.4680190000000  0.5248920000000 1.0
C      1  0.4867690000000  0.4161660000000  0.5479960000000 1.0
C      1  0.4250440000000  0.5543780000000  0.4903560000000 1.0
C      1  0.5100050000000  0.4486500000000  0.4983810000000 1.0
C      1  0.4938540000000  0.4666990000000  0.4429940000000 1.0
C      1  0.4103460000000  0.5385390000000  0.4640240000000 1.0
C      1  0.4336360000000  0.5261110000000  0.5289920000000 1.0
C      1  0.4743730000000  0.4051060000000  0.5238140000000 1.0
C      1  0.4594970000000  0.4585340000000  0.4245850000000 1.0
C      1  0.4656590000000  0.5016960000000  0.5961900000000 1.0
C      1  0.4887370000000  0.4413700000000  0.4216680000000 1.0
C      1  0.4599660000000  0.4983890000000  0.4771600000000 1.0
C      1  0.4912750000000  0.4061490000000  0.5011390000000 1.0
C      1  0.5518240000000  0.4108650000000  0.5150260000000 1.0
C      1  0.4455160000000  0.5636610000000  0.5494110000000 1.0
C      1  0.5307070000000  0.4704720000000  0.5358010000000 1.0
C      1  0.4926630000000  0.4282790000000  0.4528140000000 1.0
C      1  0.5026510000000  0.5210590000000  0.5529930000000 1.0
C      1  0.4886080000000  0.5790200000000  0.5332180000000 1.0
C      1  0.5157910000000  0.4779780000000  0.4994700000000 1.0
C      1  0.4410600000000  0.5743440000000  0.4692850000000 1.0
C      1  0.5415990000000  0.5288290000000  0.4124280000000 1.0
C      1  0.5106980000000  0.4926910000000  0.5688200000000 1.0
C      1  0.5105530000000  0.5599990000000  0.4868860000000 1.0
C      1  0.4403900000000  0.5696990000000  0.5166610000000 1.0
C      1  0.4836450000000  0.5022030000000  0.4582130000000 1.0
C      1  0.6088720000000  0.4948700000000  0.5075670000000 1.0
C      1  0.4738750000000  0.5696600000000  0.5672150000000 1.0
C      1  0.4387750000000  0.4598320000000  0.4966600000000 1.0
C      1  0.5708010000000  0.4630760000000  0.4536510000000 1.0
C      1  0.4699680000000  0.5615330000000  0.4567820000000 1.0
C      1  0.4608240000000  0.4402750000000  0.4495000000000 1.0
C      1  0.5446180000000  0.5737010000000  0.5172360000000 1.0
C      1  0.4509490000000  0.5384750000000  0.4416130000000 1.0
C      1  0.4479110000000  0.4797210000000  0.5685700000000 1.0
C      1  0.4385850000000  0.5318800000000  0.5594490000000 1.0
C      1  0.5449460000000  0.5306630000000  0.5646950000000 1.0
C      1  0.5756550000000  0.5504350000000  0.5491570000000 1.0
C      1  0.5098980000000  0.4926740000000  0.5262840000000 1.0
C      1  0.5218830000000  0.4419670000000  0.4292250000000 1.0
C      1  0.5597940000000  0.4551260000000  0.5583990000000 1.0
C      1  0.5179120000000  0.5519650000000  0.4128650000000 1.0
C      1  0.5586310000000  0.5545250000000  0.4966330000000 1.0
C      1  0.5511920000000  0.4644790000000  0.5120640000000 1.0
C      1  0.4941670000000  0.5402370000000  0.4562460000000 1.0
C      1  0.5052220000000  0.4827630000000  0.4152160000000 1.0
C      1  0.4568370000000  0.5063910000000  0.5161840000000 1.0
C      1  0.5585880000000  0.5071780000000  0.5585990000000 1.0
C      1  0.4678310000000  0.4421810000000  0.5370040000000 1.0
C      1  0.4448040000000  0.4483130000000  0.5594180000000 1.0
C      1  0.5381230000000  0.5528960000000  0.4735750000000 1.0
C      1  0.5070930000000  0.6027770000000  0.5213100000000 1.0
C      1  0.4378520000000  0.5076350000000  0.5807580000000 1.0
C      1  0.4753740000000  0.6084370000000  0.5272060000000 1.0
C      1  0.5102390000000  0.4156450000000  0.5616740000000 1.0
C      1  0.4658230000000  0.5916260000000  0.4826650000000 1.0
C      1  0.5217180000000  0.3987410000000  0.5048850000000 1.0
C      1  0.5269480000000  0.5219740000000  0.5292110000000 1.0
C      1  0.4644740000000  0.5335030000000  0.4149880000000 1.0
C      1  0.5382730000000  0.4108150000000  0.5444160000000 1.0
C      1  0.4194420000000  0.4357590000000  0.5083140000000 1.0
C      1  0.5045760000000  0.5561350000000  0.5727750000000 1.0
C      1  0.5227340000000  0.5895600000000  0.4764030000000 1.0
C      1  0.4926040000000  0.5957160000000  0.4662070000000 1.0
C      1  0.4289680000000  0.4936610000000  0.4421980000000 1.0
C      1  0.5921960000000  0.5416310000000  0.5290140000000 1.0
C      1  0.4358700000000  0.4805510000000  0.4698450000000 1.0
C      1  0.5035510000000  0.5524970000000  0.5400670000000 1.0
C      1  0.4328700000000  0.4396360000000  0.4630350000000 1.0
C      1  0.4700140000000  0.5554110000000  0.5189280000000 1.0
C      1  0.4915810000000  0.5816650000000  0.4398960000000 1.0
C      1  0.4235690000000  0.5217930000000  0.4449240000000 1.0
C      1  0.4919750000000  0.5373740000000  0.4148700000000 1.0
C      1  0.4498600000000  0.5280310000000  0.4739850000000 1.0
C      1  0.5166700000000  0.4270070000000  0.5237430000000 1.0
C      1  0.5594060000000  0.5133560000000  0.4371880000000 1.0
C      1  0.5176770000000  0.5742710000000  0.4295960000000 1.0
C      1  0.5004200000000  0.5217500000000  0.4811250000000 1.0
C      1  0.4264640000000  0.4712720000000  0.5453610000000 1.0
C      1  0.5117000000000  0.5215130000000  0.4376570000000 1.0
C      1  0.5432060000000  0.5501070000000  0.5393110000000 1.0
END
