TITL C-2847958-8115-696 0.00221835119228934 125000 -632.381376039243 0 0 113 (C1) n - 1
REM
REM in /home/bkarasulu/work/CARBON/AIRSS/Generating-Clusters/AIREBO/with-SteepDescent/Only-C1/SD-CG-opt/Try1-1.4A-POS3A/HFTN-CG
REM
REM
REM
REM
REM
REM ./C.cell (11c1c37f851c82e70ff6c80c92926a4b)
REM
REM compiler GCC version 9.2.1 20190827 (Red Hat 9.2.1-1)
REM options -cpp -mtune=generic -march=x86-64 -g -O0 -fpre-include=/usr/include/finclude/math-vector-fortran.h
REM seed -973024783 137414134 142118675 -1432686624 1551775103 78131819 941248209 2010893957 1688795974 285827738 -1484146763 -1807675082 -924541612 1181879468 308029691 1861014555 2125240332 503738463 -1582151652 -16628576 1001579784 2083005881 -1279977601 -1688565301 309149529 1191719700 6188890 -88102008 -666962864 -1788443539 1639625803 -2122049816 -1334281785
REM
CELL 1.54180   50.00000   50.00000   50.00000   90.00000   90.00000   90.00000
LATT -1
SFAC C  
C      1  0.4245040000000  0.5190930000000  0.5676580000000 1.0
C      1  0.4450040000000  0.5223460000000  0.5336070000000 1.0
C      1  0.4573760000000  0.5873210000000  0.4712660000000 1.0
C      1  0.5259100000000  0.5399240000000  0.5281620000000 1.0
C      1  0.4801830000000  0.4791640000000  0.4461180000000 1.0
C      1  0.5542900000000  0.5265320000000  0.5838670000000 1.0
C      1  0.5056480000000  0.5604470000000  0.5630280000000 1.0
C      1  0.5619750000000  0.5027180000000  0.4274770000000 1.0
C      1  0.5583580000000  0.5004500000000  0.5755890000000 1.0
C      1  0.4408560000000  0.5669720000000  0.4640230000000 1.0
C      1  0.5118010000000  0.4682010000000  0.4503340000000 1.0
C      1  0.4901460000000  0.5494380000000  0.4288780000000 1.0
C      1  0.5511820000000  0.5565970000000  0.5391940000000 1.0
C      1  0.5351880000000  0.4252060000000  0.4296470000000 1.0
C      1  0.4820860000000  0.5269670000000  0.6001380000000 1.0
C      1  0.5493800000000  0.4449410000000  0.4802770000000 1.0
C      1  0.5126260000000  0.4384960000000  0.4412100000000 1.0
C      1  0.4519210000000  0.4453550000000  0.5621920000000 1.0
C      1  0.5002490000000  0.5895320000000  0.5169940000000 1.0
C      1  0.5792880000000  0.5061300000000  0.5421260000000 1.0
C      1  0.5839580000000  0.4331190000000  0.4646530000000 1.0
C      1  0.4724950000000  0.4327490000000  0.4392050000000 1.0
C      1  0.5575920000000  0.4286010000000  0.4449680000000 1.0
C      1  0.5281330000000  0.4669470000000  0.4795980000000 1.0
C      1  0.4839200000000  0.5668350000000  0.4103770000000 1.0
C      1  0.4518610000000  0.5006350000000  0.5675380000000 1.0
C      1  0.5554760000000  0.5641280000000  0.4899470000000 1.0
C      1  0.4820230000000  0.4513600000000  0.5584820000000 1.0
C      1  0.5112890000000  0.5023470000000  0.4551540000000 1.0
C      1  0.4306490000000  0.5904690000000  0.5123070000000 1.0
C      1  0.4838870000000  0.5112620000000  0.4385520000000 1.0
C      1  0.5182820000000  0.5671940000000  0.4572830000000 1.0
C      1  0.5047990000000  0.5557820000000  0.4786220000000 1.0
C      1  0.4934350000000  0.5467100000000  0.5355140000000 1.0
C      1  0.4675210000000  0.5387160000000  0.4502120000000 1.0
C      1  0.4368090000000  0.5450780000000  0.4874550000000 1.0
C      1  0.4758340000000  0.4214670000000  0.5195240000000 1.0
C      1  0.5647690000000  0.4594370000000  0.4536420000000 1.0
C      1  0.4904030000000  0.5503340000000  0.5897830000000 1.0
C      1  0.4208490000000  0.4886990000000  0.5605350000000 1.0
C      1  0.4187780000000  0.5223780000000  0.4752250000000 1.0
C      1  0.5786340000000  0.4391150000000  0.5233460000000 1.0
C      1  0.5291540000000  0.5484610000000  0.5816990000000 1.0
C      1  0.4754490000000  0.4813940000000  0.4764580000000 1.0
C      1  0.4217730000000  0.5341010000000  0.4238200000000 1.0
C      1  0.4545330000000  0.5026780000000  0.4826840000000 1.0
C      1  0.5821100000000  0.4981530000000  0.4704970000000 1.0
C      1  0.4886970000000  0.4749400000000  0.5386570000000 1.0
C      1  0.5718320000000  0.4865180000000  0.4478750000000 1.0
C      1  0.5562970000000  0.5328150000000  0.5032710000000 1.0
C      1  0.4637970000000  0.5295190000000  0.4969560000000 1.0
C      1  0.5147900000000  0.4027050000000  0.4750200000000 1.0
C      1  0.4506940000000  0.5680540000000  0.5062520000000 1.0
C      1  0.5484780000000  0.5270330000000  0.4246570000000 1.0
C      1  0.5774070000000  0.4802360000000  0.5572750000000 1.0
C      1  0.4181410000000  0.4707600000000  0.5392510000000 1.0
C      1  0.5796740000000  0.4497020000000  0.4942460000000 1.0
C      1  0.5662000000000  0.5677060000000  0.5201040000000 1.0
C      1  0.5074990000000  0.5094650000000  0.5048920000000 1.0
C      1  0.5221340000000  0.6125670000000  0.5115920000000 1.0
C      1  0.5351820000000  0.5873750000000  0.5043340000000 1.0
C      1  0.4418360000000  0.4643050000000  0.4186670000000 1.0
C      1  0.5558620000000  0.5532460000000  0.5660480000000 1.0
C      1  0.5111760000000  0.3960180000000  0.5043150000000 1.0
C      1  0.5013270000000  0.4627350000000  0.5804530000000 1.0
C      1  0.5382340000000  0.4185240000000  0.4869790000000 1.0
C      1  0.4819280000000  0.5215410000000  0.5185780000000 1.0
C      1  0.4591250000000  0.4693680000000  0.5037640000000 1.0
C      1  0.5129370000000  0.4657230000000  0.5165730000000 1.0
C      1  0.4667050000000  0.5908740000000  0.5562050000000 1.0
C      1  0.5297840000000  0.5290050000000  0.4599510000000 1.0
C      1  0.4191320000000  0.4705270000000  0.4071530000000 1.0
C      1  0.4887090000000  0.4545690000000  0.5016850000000 1.0
C      1  0.5168870000000  0.5313140000000  0.4284350000000 1.0
C      1  0.5376700000000  0.4114620000000  0.5191170000000 1.0
C      1  0.4699720000000  0.5003500000000  0.5406100000000 1.0
C      1  0.5367470000000  0.4919000000000  0.5507720000000 1.0
C      1  0.4152460000000  0.5009950000000  0.4931210000000 1.0
C      1  0.4924200000000  0.5851130000000  0.5461520000000 1.0
C      1  0.4683430000000  0.5049460000000  0.5927790000000 1.0
C      1  0.4293780000000  0.4264170000000  0.4953280000000 1.0
C      1  0.5507620000000  0.5171850000000  0.5328550000000 1.0
C      1  0.4338290000000  0.5375480000000  0.4484920000000 1.0
C      1  0.5196090000000  0.4794080000000  0.5773530000000 1.0
C      1  0.5382900000000  0.4603780000000  0.5381210000000 1.0
C      1  0.4062080000000  0.4805480000000  0.5148020000000 1.0
C      1  0.4600850000000  0.5522460000000  0.5310770000000 1.0
C      1  0.5332630000000  0.4094690000000  0.4079570000000 1.0
C      1  0.5616990000000  0.5490710000000  0.4346520000000 1.0
C      1  0.5239720000000  0.5349120000000  0.4929400000000 1.0
C      1  0.5045410000000  0.4890500000000  0.4836680000000 1.0
C      1  0.4642150000000  0.4577070000000  0.4330400000000 1.0
C      1  0.5684960000000  0.4578940000000  0.5420410000000 1.0
C      1  0.4131290000000  0.4150090000000  0.4793000000000 1.0
C      1  0.4939320000000  0.4301930000000  0.5396970000000 1.0
C      1  0.5097200000000  0.4998830000000  0.5364560000000 1.0
C      1  0.4885030000000  0.5126970000000  0.3842830000000 1.0
C      1  0.4865890000000  0.4262070000000  0.4904500000000 1.0
C      1  0.4420910000000  0.4976060000000  0.5122960000000 1.0
C      1  0.4488790000000  0.4401710000000  0.5144270000000 1.0
C      1  0.4935590000000  0.4206140000000  0.4599860000000 1.0
C      1  0.5630370000000  0.5021420000000  0.4979380000000 1.0
C      1  0.4951150000000  0.5153650000000  0.4087510000000 1.0
C      1  0.5484510000000  0.5573990000000  0.4615700000000 1.0
C      1  0.5680590000000  0.4137550000000  0.5260920000000 1.0
C      1  0.4485460000000  0.5687380000000  0.5559580000000 1.0
C      1  0.5878780000000  0.4789840000000  0.4946430000000 1.0
C      1  0.4300720000000  0.5448550000000  0.5557410000000 1.0
C      1  0.4356180000000  0.4487740000000  0.5405180000000 1.0
C      1  0.5385930000000  0.4845570000000  0.5045860000000 1.0
C      1  0.5220250000000  0.4321250000000  0.5361880000000 1.0
C      1  0.4795730000000  0.5810610000000  0.4957650000000 1.0
C      1  0.4750390000000  0.5521420000000  0.4784280000000 1.0
END
