TITL C-2848509-3138-659 0.00118563756229582 125000 -338.869077472522 0 0 63 (C1) n - 1
REM
REM in /home/bkarasulu/work/CARBON/AIRSS/Generating-Clusters/AIREBO/with-SteepDescent/Only-C1/SD-CG-opt/Try1-1.4A-POS3A/HFTN-CG
REM
REM
REM
REM
REM
REM ./C.cell (11c1c37f851c82e70ff6c80c92926a4b)
REM
REM compiler GCC version 9.2.1 20190827 (Red Hat 9.2.1-1)
REM options -cpp -mtune=generic -march=x86-64 -g -O0 -fpre-include=/usr/include/finclude/math-vector-fortran.h
REM seed 1846271463 -1856921952 -495805980 246239301 625641092 529623767 -211461944 625311986 -468868706 1033086905 -1697166697 -2066452389 -1351777894 -654037051 -1142671132 1051888708 6765245 -727977346 -1020006581 1473211172 -2086971522 -1823065332 -1340392070 -216187193 -970564481 2093063925 -1850335401 -1027530026 813294408 -711923377 1051537806 483874137 -1822787600
REM
CELL 1.54180   50.00000   50.00000   50.00000   90.00000   90.00000   90.00000
LATT -1
SFAC C  
C      1  0.5172580000000  0.4886590000000  0.5850580000000 1.0
C      1  0.5319080000000  0.4944190000000  0.4555210000000 1.0
C      1  0.5314950000000  0.5497260000000  0.5393940000000 1.0
C      1  0.4995230000000  0.4577240000000  0.4506240000000 1.0
C      1  0.5280730000000  0.4639920000000  0.4552080000000 1.0
C      1  0.4493240000000  0.5487630000000  0.4437330000000 1.0
C      1  0.4845020000000  0.4376990000000  0.4739090000000 1.0
C      1  0.5621700000000  0.5476430000000  0.5020470000000 1.0
C      1  0.5302390000000  0.5521370000000  0.4552760000000 1.0
C      1  0.5664360000000  0.4839520000000  0.5416370000000 1.0
C      1  0.5630660000000  0.5268360000000  0.4826980000000 1.0
C      1  0.5377050000000  0.4232960000000  0.5519900000000 1.0
C      1  0.4206360000000  0.5295300000000  0.5199150000000 1.0
C      1  0.4788200000000  0.4724340000000  0.4278670000000 1.0
C      1  0.5135910000000  0.4689170000000  0.5016150000000 1.0
C      1  0.4728270000000  0.5050140000000  0.4320130000000 1.0
C      1  0.4565100000000  0.5449460000000  0.4917990000000 1.0
C      1  0.4761390000000  0.4918490000000  0.4617450000000 1.0
C      1  0.4599550000000  0.5168930000000  0.5694240000000 1.0
C      1  0.5363370000000  0.5529890000000  0.5122560000000 1.0
C      1  0.4459020000000  0.4902140000000  0.5227930000000 1.0
C      1  0.4961080000000  0.4686440000000  0.5760820000000 1.0
C      1  0.5117130000000  0.5165860000000  0.5703010000000 1.0
C      1  0.5253220000000  0.4256890000000  0.5274700000000 1.0
C      1  0.4785540000000  0.4968430000000  0.5826220000000 1.0
C      1  0.5374260000000  0.5226970000000  0.5519510000000 1.0
C      1  0.5570340000000  0.5002730000000  0.4918340000000 1.0
C      1  0.5221020000000  0.5093510000000  0.4279200000000 1.0
C      1  0.5385070000000  0.4281390000000  0.4961160000000 1.0
C      1  0.4797420000000  0.4391820000000  0.5037630000000 1.0
C      1  0.4810870000000  0.5138690000000  0.5072740000000 1.0
C      1  0.4905560000000  0.4991330000000  0.5508890000000 1.0
C      1  0.5066400000000  0.5469890000000  0.5578600000000 1.0
C      1  0.4618800000000  0.5342430000000  0.5470840000000 1.0
C      1  0.5207010000000  0.5117850000000  0.4796990000000 1.0
C      1  0.4661280000000  0.5492520000000  0.4666630000000 1.0
C      1  0.5033260000000  0.4470240000000  0.5243870000000 1.0
C      1  0.4818500000000  0.5540080000000  0.5469760000000 1.0
C      1  0.5464910000000  0.4507160000000  0.4345720000000 1.0
C      1  0.5519500000000  0.5137460000000  0.4370930000000 1.0
C      1  0.5145040000000  0.5434640000000  0.4910900000000 1.0
C      1  0.4999430000000  0.5057630000000  0.5235770000000 1.0
C      1  0.4603510000000  0.4654420000000  0.5044620000000 1.0
C      1  0.4856770000000  0.4751140000000  0.4879800000000 1.0
C      1  0.4341910000000  0.5698330000000  0.4364800000000 1.0
C      1  0.4832660000000  0.5726500000000  0.5258810000000 1.0
C      1  0.5362830000000  0.4552140000000  0.4840900000000 1.0
C      1  0.4506590000000  0.5234750000000  0.5175170000000 1.0
C      1  0.4284260000000  0.4594390000000  0.5044670000000 1.0
C      1  0.4980310000000  0.5687630000000  0.5033360000000 1.0
C      1  0.4980480000000  0.5225490000000  0.4325240000000 1.0
C      1  0.5282540000000  0.4978420000000  0.5097820000000 1.0
C      1  0.4986470000000  0.5409660000000  0.4611020000000 1.0
C      1  0.5270250000000  0.4001540000000  0.5050830000000 1.0
C      1  0.4887860000000  0.5138820000000  0.4791440000000 1.0
C      1  0.5625580000000  0.4736200000000  0.4864360000000 1.0
C      1  0.4661400000000  0.4597320000000  0.4567730000000 1.0
C      1  0.4488110000000  0.5240220000000  0.4296460000000 1.0
C      1  0.5534490000000  0.5349510000000  0.4568070000000 1.0
C      1  0.4672230000000  0.4783730000000  0.5415770000000 1.0
C      1  0.5461460000000  0.5014840000000  0.5364260000000 1.0
C      1  0.4896210000000  0.4592060000000  0.5495000000000 1.0
C      1  0.4144290000000  0.4782610000000  0.5192410000000 1.0
END
