TITL C-2847945-6269-384 0.00157340368554405 125000 -643.346622186262 0 0 118 (C1) n - 1
REM
REM in /home/bkarasulu/work/CARBON/AIRSS/Generating-Clusters/AIREBO/with-SteepDescent/Only-C1/SD-CG-opt/Try1-1.4A-POS3A/HFTN-CG
REM
REM
REM
REM
REM
REM ./C.cell (11c1c37f851c82e70ff6c80c92926a4b)
REM
REM compiler GCC version 9.2.1 20190827 (Red Hat 9.2.1-1)
REM options -cpp -mtune=generic -march=x86-64 -g -O0 -fpre-include=/usr/include/finclude/math-vector-fortran.h
REM seed 217819091 1620075166 384595214 1228297429 915712916 1705448305 164712252 -58321741 1705541114 -126826636 -1310222196 -1494997419 931830719 -1814024695 -731125895 1517540403 1840476976 -488621392 -442454847 560735015 1085542350 1081557067 -914169887 -362075822 2007319726 892379794 -49597548 -220855502 1284410761 -753612053 -1593314006 1027661686 -689840962
REM
CELL 1.54180   50.00000   50.00000   50.00000   90.00000   90.00000   90.00000
LATT -1
SFAC C  
C      1  0.4146160000000  0.5086220000000  0.5242390000000 1.0
C      1  0.4705880000000  0.4210820000000  0.5038470000000 1.0
C      1  0.5087800000000  0.5851000000000  0.4370500000000 1.0
C      1  0.5752910000000  0.4558790000000  0.4524700000000 1.0
C      1  0.4930410000000  0.5099660000000  0.5405670000000 1.0
C      1  0.5220320000000  0.5614450000000  0.5685040000000 1.0
C      1  0.5025400000000  0.4766800000000  0.5899990000000 1.0
C      1  0.5076780000000  0.5719290000000  0.5184880000000 1.0
C      1  0.5280400000000  0.4308610000000  0.5386190000000 1.0
C      1  0.4896590000000  0.4953930000000  0.6073100000000 1.0
C      1  0.4530950000000  0.5087130000000  0.5703270000000 1.0
C      1  0.4272890000000  0.4998970000000  0.4423630000000 1.0
C      1  0.4270610000000  0.5356020000000  0.4736910000000 1.0
C      1  0.5302470000000  0.5542040000000  0.5363050000000 1.0
C      1  0.4311630000000  0.5225730000000  0.5509220000000 1.0
C      1  0.5228890000000  0.5067120000000  0.4251750000000 1.0
C      1  0.3949270000000  0.4862210000000  0.5086160000000 1.0
C      1  0.5668180000000  0.4875720000000  0.4434780000000 1.0
C      1  0.4262260000000  0.4372550000000  0.4564690000000 1.0
C      1  0.4647490000000  0.4601260000000  0.5083630000000 1.0
C      1  0.4414290000000  0.4808370000000  0.5847590000000 1.0
C      1  0.4972390000000  0.5294650000000  0.5025120000000 1.0
C      1  0.5198730000000  0.5255890000000  0.5515080000000 1.0
C      1  0.4991940000000  0.4971560000000  0.4429510000000 1.0
C      1  0.4735790000000  0.5344590000000  0.5802510000000 1.0
C      1  0.5229540000000  0.4668090000000  0.4745710000000 1.0
C      1  0.5009380000000  0.4310040000000  0.5073490000000 1.0
C      1  0.4189800000000  0.4477180000000  0.4857590000000 1.0
C      1  0.5073680000000  0.4717810000000  0.4134590000000 1.0
C      1  0.4818840000000  0.5718010000000  0.4203250000000 1.0
C      1  0.4959970000000  0.4834160000000  0.5616080000000 1.0
C      1  0.5410870000000  0.5034790000000  0.5939370000000 1.0
C      1  0.5764120000000  0.5417260000000  0.5609870000000 1.0
C      1  0.4655600000000  0.4831080000000  0.5514570000000 1.0
C      1  0.4790430000000  0.5710700000000  0.4911470000000 1.0
C      1  0.5602850000000  0.4300690000000  0.4693070000000 1.0
C      1  0.4931000000000  0.5608100000000  0.5710610000000 1.0
C      1  0.4396150000000  0.5565980000000  0.4947800000000 1.0
C      1  0.4663250000000  0.4845220000000  0.4612340000000 1.0
C      1  0.4668980000000  0.5414030000000  0.4223750000000 1.0
C      1  0.5085820000000  0.4610960000000  0.5212190000000 1.0
C      1  0.5011540000000  0.4786130000000  0.4961670000000 1.0
C      1  0.4791400000000  0.5716930000000  0.4601560000000 1.0
C      1  0.4943780000000  0.4163000000000  0.5714810000000 1.0
C      1  0.4532240000000  0.4271600000000  0.5280240000000 1.0
C      1  0.5490670000000  0.5453160000000  0.5703240000000 1.0
C      1  0.5182430000000  0.5064040000000  0.4992460000000 1.0
C      1  0.4809590000000  0.5796180000000  0.5549360000000 1.0
C      1  0.4303080000000  0.4527480000000  0.4350860000000 1.0
C      1  0.4858380000000  0.4255260000000  0.4437270000000 1.0
C      1  0.4694710000000  0.5375520000000  0.5150810000000 1.0
C      1  0.4798970000000  0.4961730000000  0.5157490000000 1.0
C      1  0.5450200000000  0.4866480000000  0.4174000000000 1.0
C      1  0.4749420000000  0.5800880000000  0.5228670000000 1.0
C      1  0.5538460000000  0.5730250000000  0.5206350000000 1.0
C      1  0.5382470000000  0.5819000000000  0.4756580000000 1.0
C      1  0.5570200000000  0.5682450000000  0.4929500000000 1.0
C      1  0.5530080000000  0.5328550000000  0.4232510000000 1.0
C      1  0.4846080000000  0.3994670000000  0.4371100000000 1.0
C      1  0.4448890000000  0.5687900000000  0.5192300000000 1.0
C      1  0.4443530000000  0.5529350000000  0.5433320000000 1.0
C      1  0.4409440000000  0.4784520000000  0.4310880000000 1.0
C      1  0.6020380000000  0.5361810000000  0.5122910000000 1.0
C      1  0.4563710000000  0.4376870000000  0.5557470000000 1.0
C      1  0.4798620000000  0.4551160000000  0.5384120000000 1.0
C      1  0.4383390000000  0.4682840000000  0.5374570000000 1.0
C      1  0.5724110000000  0.4708140000000  0.5427940000000 1.0
C      1  0.4729110000000  0.5350760000000  0.5481230000000 1.0
C      1  0.5195190000000  0.5369280000000  0.4188570000000 1.0
C      1  0.4424010000000  0.5303360000000  0.4434550000000 1.0
C      1  0.4346080000000  0.4475500000000  0.5110110000000 1.0
C      1  0.5807370000000  0.5277160000000  0.5332080000000 1.0
C      1  0.5456230000000  0.4866570000000  0.4771950000000 1.0
C      1  0.5808280000000  0.4761910000000  0.4791710000000 1.0
C      1  0.5812100000000  0.5335940000000  0.4628890000000 1.0
C      1  0.5471200000000  0.4087560000000  0.4804080000000 1.0
C      1  0.4885060000000  0.4959630000000  0.4046730000000 1.0
C      1  0.5207660000000  0.4811660000000  0.5412330000000 1.0
C      1  0.5019480000000  0.4321700000000  0.5503450000000 1.0
C      1  0.5327230000000  0.5242650000000  0.4758500000000 1.0
C      1  0.5617680000000  0.4527990000000  0.4897580000000 1.0
C      1  0.5301400000000  0.4134630000000  0.5094920000000 1.0
C      1  0.5597990000000  0.5346760000000  0.4892860000000 1.0
C      1  0.4127410000000  0.4938930000000  0.4650330000000 1.0
C      1  0.4390000000000  0.4588090000000  0.5686930000000 1.0
C      1  0.4897570000000  0.5169360000000  0.4613800000000 1.0
C      1  0.4655910000000  0.5412260000000  0.4819540000000 1.0
C      1  0.5463940000000  0.4782790000000  0.5633890000000 1.0
C      1  0.4749040000000  0.4355990000000  0.4668730000000 1.0
C      1  0.5695770000000  0.4964680000000  0.5261210000000 1.0
C      1  0.5360570000000  0.5020080000000  0.5236150000000 1.0
C      1  0.5724840000000  0.5209130000000  0.4396390000000 1.0
C      1  0.4034020000000  0.4737890000000  0.4849910000000 1.0
C      1  0.4945340000000  0.5217360000000  0.5977860000000 1.0
C      1  0.5990140000000  0.5415100000000  0.4857000000000 1.0
C      1  0.4992300000000  0.4441440000000  0.4286370000000 1.0
C      1  0.5386270000000  0.5044730000000  0.4523600000000 1.0
C      1  0.4892880000000  0.5244270000000  0.4095650000000 1.0
C      1  0.4469540000000  0.4889440000000  0.5113470000000 1.0
C      1  0.5192840000000  0.5236740000000  0.5855150000000 1.0
C      1  0.4771720000000  0.4633560000000  0.4794190000000 1.0
C      1  0.5306420000000  0.4754090000000  0.5929110000000 1.0
C      1  0.5470830000000  0.4483670000000  0.5471930000000 1.0
C      1  0.5124070000000  0.5714740000000  0.4861160000000 1.0
C      1  0.5499530000000  0.5307210000000  0.5215940000000 1.0
C      1  0.5330590000000  0.5928550000000  0.4493260000000 1.0
C      1  0.5953780000000  0.4457690000000  0.4354470000000 1.0
C      1  0.4246530000000  0.5069020000000  0.4917900000000 1.0
C      1  0.4719330000000  0.4825440000000  0.4287860000000 1.0
C      1  0.5001830000000  0.5525120000000  0.4415450000000 1.0
C      1  0.5057350000000  0.5422580000000  0.4734960000000 1.0
C      1  0.5491910000000  0.5122420000000  0.5624010000000 1.0
C      1  0.4468380000000  0.5193210000000  0.5224340000000 1.0
C      1  0.4476060000000  0.4268270000000  0.4794140000000 1.0
C      1  0.5694850000000  0.5025250000000  0.4947110000000 1.0
C      1  0.5113910000000  0.4681550000000  0.4471530000000 1.0
C      1  0.5294810000000  0.4423680000000  0.4927620000000 1.0
C      1  0.4597170000000  0.5149200000000  0.4663860000000 1.0
END
