TITL C-2847948-6138-177 6.13459803533923e-05 125000 -374.454349473035 0 0 67 (C1) n - 1
REM
REM in /home/bkarasulu/work/CARBON/AIRSS/Generating-Clusters/AIREBO/with-SteepDescent/Only-C1/SD-CG-opt/Try1-1.4A-POS3A/HFTN-CG
REM
REM
REM
REM
REM
REM ./C.cell (11c1c37f851c82e70ff6c80c92926a4b)
REM
REM compiler GCC version 9.2.1 20190827 (Red Hat 9.2.1-1)
REM options -cpp -mtune=generic -march=x86-64 -g -O0 -fpre-include=/usr/include/finclude/math-vector-fortran.h
REM seed 1650116205 -580815813 -893182467 -1358606564 735711275 1557450260 611961063 1832536951 -966162335 -523012129 443748423 1501929466 -1004018874 1830218987 809372634 -2051355924 -1223104694 1639932296 75009250 1933233528 294932109 443401681 -1082759107 421703946 307970965 2085969411 -193058136 1106290190 -1867167247 -690240075 -1446380169 754377517 -968340221
REM
CELL 1.54180   50.00000   50.00000   50.00000   90.00000   90.00000   90.00000
LATT -1
SFAC C  
C      1  0.5117820000000  0.4363620000000  0.5661930000000 1.0
C      1  0.5379060000000  0.4704090000000  0.5463310000000 1.0
C      1  0.4525200000000  0.5001480000000  0.5022040000000 1.0
C      1  0.4353130000000  0.5397550000000  0.4475950000000 1.0
C      1  0.4779700000000  0.4876030000000  0.4285260000000 1.0
C      1  0.5866630000000  0.4949160000000  0.5086860000000 1.0
C      1  0.4667570000000  0.4573990000000  0.4512190000000 1.0
C      1  0.4824480000000  0.5686380000000  0.4997190000000 1.0
C      1  0.4976080000000  0.4400650000000  0.4900130000000 1.0
C      1  0.5556650000000  0.5672880000000  0.4982560000000 1.0
C      1  0.4313380000000  0.4601250000000  0.4864120000000 1.0
C      1  0.5098680000000  0.5519710000000  0.4098840000000 1.0
C      1  0.5389370000000  0.4852580000000  0.4608500000000 1.0
C      1  0.4953430000000  0.4217330000000  0.4360010000000 1.0
C      1  0.4914450000000  0.4543560000000  0.5708740000000 1.0
C      1  0.4880750000000  0.4373740000000  0.4624720000000 1.0
C      1  0.4112290000000  0.5506840000000  0.4405980000000 1.0
C      1  0.4764010000000  0.4848730000000  0.4922710000000 1.0
C      1  0.4650770000000  0.5614620000000  0.4838030000000 1.0
C      1  0.4798370000000  0.4779770000000  0.5770970000000 1.0
C      1  0.5561060000000  0.4419910000000  0.5029090000000 1.0
C      1  0.5733560000000  0.4711250000000  0.5060980000000 1.0
C      1  0.5151680000000  0.5530860000000  0.5691330000000 1.0
C      1  0.4275650000000  0.5360020000000  0.5041370000000 1.0
C      1  0.5536800000000  0.4897540000000  0.5639430000000 1.0
C      1  0.5033690000000  0.5239300000000  0.4486150000000 1.0
C      1  0.5139550000000  0.4828630000000  0.5265850000000 1.0
C      1  0.4902860000000  0.5620880000000  0.5282950000000 1.0
C      1  0.5034860000000  0.4984660000000  0.4916710000000 1.0
C      1  0.4556600000000  0.5089790000000  0.4684050000000 1.0
C      1  0.5110670000000  0.5134680000000  0.5201080000000 1.0
C      1  0.5634830000000  0.4891820000000  0.4376510000000 1.0
C      1  0.4546450000000  0.5310300000000  0.4305420000000 1.0
C      1  0.4761150000000  0.5118810000000  0.4427800000000 1.0
C      1  0.4541690000000  0.4221980000000  0.5119880000000 1.0
C      1  0.5108860000000  0.4656910000000  0.4968970000000 1.0
C      1  0.4569370000000  0.5381230000000  0.4041760000000 1.0
C      1  0.5401250000000  0.5581110000000  0.5273750000000 1.0
C      1  0.5683830000000  0.5080240000000  0.5548880000000 1.0
C      1  0.5340890000000  0.5608100000000  0.4504960000000 1.0
C      1  0.5371510000000  0.5294660000000  0.4843130000000 1.0
C      1  0.5446200000000  0.5546220000000  0.4756800000000 1.0
C      1  0.5151170000000  0.5457020000000  0.4355940000000 1.0
C      1  0.4412380000000  0.5175300000000  0.5195130000000 1.0
C      1  0.4728640000000  0.4404820000000  0.4260160000000 1.0
C      1  0.5408300000000  0.4660630000000  0.4837830000000 1.0
C      1  0.5175890000000  0.5654850000000  0.5441870000000 1.0
C      1  0.4639380000000  0.5553560000000  0.5463910000000 1.0
C      1  0.4994730000000  0.5306690000000  0.5675090000000 1.0
C      1  0.4447720000000  0.5002320000000  0.6144040000000 1.0
C      1  0.5398180000000  0.5264100000000  0.5148580000000 1.0
C      1  0.5370010000000  0.4290140000000  0.5217050000000 1.0
C      1  0.4815230000000  0.4216460000000  0.5119810000000 1.0
C      1  0.4439090000000  0.5398290000000  0.4771560000000 1.0
C      1  0.5133270000000  0.4185840000000  0.5101040000000 1.0
C      1  0.4597390000000  0.4960510000000  0.5928100000000 1.0
C      1  0.4537670000000  0.4751260000000  0.4711430000000 1.0
C      1  0.5209950000000  0.5090270000000  0.4687580000000 1.0
C      1  0.4356290000000  0.4411230000000  0.5054510000000 1.0
C      1  0.5439390000000  0.4773010000000  0.5157200000000 1.0
C      1  0.4919140000000  0.5290300000000  0.5361290000000 1.0
C      1  0.5709150000000  0.5172950000000  0.5251810000000 1.0
C      1  0.5385510000000  0.4747710000000  0.4283690000000 1.0
C      1  0.4573010000000  0.5237520000000  0.5434670000000 1.0
C      1  0.4746900000000  0.5099890000000  0.5667670000000 1.0
C      1  0.5720390000000  0.5492310000000  0.5197140000000 1.0
C      1  0.5326440000000  0.4410110000000  0.5475990000000 1.0
END
