TITL C-2847944-5688-617 -0.00341562784049851 125000 -534.795021539454 0 0 96 (C1) n - 1
REM
REM in /home/bkarasulu/work/CARBON/AIRSS/Generating-Clusters/AIREBO/with-SteepDescent/Only-C1/SD-CG-opt/Try1-1.4A-POS3A/HFTN-CG
REM
REM
REM
REM
REM
REM ./C.cell (11c1c37f851c82e70ff6c80c92926a4b)
REM
REM compiler GCC version 9.2.1 20190827 (Red Hat 9.2.1-1)
REM options -cpp -mtune=generic -march=x86-64 -g -O0 -fpre-include=/usr/include/finclude/math-vector-fortran.h
REM seed -846798447 141114648 1398772033 -838602785 1342967098 -1241250553 -34325497 -729045518 1597817292 258412044 807275825 1916646539 -305773262 1080456152 1550085258 778330237 -1816515437 -109014679 -489162615 -1663681042 1256110242 1833317608 1742890139 -2067412462 1383345696 1649067982 1321377305 387710913 -1645863897 -357618789 -862479569 -1332631061 -2093111010
REM
CELL 1.54180   50.00000   50.00000   50.00000   90.00000   90.00000   90.00000
LATT -1
SFAC C  
C      1  0.5040250000000  0.5071900000000  0.5714730000000 1.0
C      1  0.5112550000000  0.5355100000000  0.5173270000000 1.0
C      1  0.4768650000000  0.4350440000000  0.5369020000000 1.0
C      1  0.4264840000000  0.4428490000000  0.5257750000000 1.0
C      1  0.4137980000000  0.4920340000000  0.5360310000000 1.0
C      1  0.4241690000000  0.5178360000000  0.5202260000000 1.0
C      1  0.4783400000000  0.5270060000000  0.5161220000000 1.0
C      1  0.5135870000000  0.4720720000000  0.5268240000000 1.0
C      1  0.5030340000000  0.4648770000000  0.4980860000000 1.0
C      1  0.5728730000000  0.4591220000000  0.4727430000000 1.0
C      1  0.5161550000000  0.5807160000000  0.5454080000000 1.0
C      1  0.4745520000000  0.4462670000000  0.4988740000000 1.0
C      1  0.4681810000000  0.4655880000000  0.5261430000000 1.0
C      1  0.4570850000000  0.5737340000000  0.5308370000000 1.0
C      1  0.5477860000000  0.5346700000000  0.5862020000000 1.0
C      1  0.4930190000000  0.5110070000000  0.4395590000000 1.0
C      1  0.5155500000000  0.5950650000000  0.4945070000000 1.0
C      1  0.4740000000000  0.5641640000000  0.4635650000000 1.0
C      1  0.4638710000000  0.4543010000000  0.5746670000000 1.0
C      1  0.4699580000000  0.4579320000000  0.4355240000000 1.0
C      1  0.5897050000000  0.5230710000000  0.5201720000000 1.0
C      1  0.5446520000000  0.4616090000000  0.5205400000000 1.0
C      1  0.5722520000000  0.5033800000000  0.5047650000000 1.0
C      1  0.4502710000000  0.4612100000000  0.5520680000000 1.0
C      1  0.5783710000000  0.5352640000000  0.5422200000000 1.0
C      1  0.5337240000000  0.4446310000000  0.4436470000000 1.0
C      1  0.4771200000000  0.4763450000000  0.4078370000000 1.0
C      1  0.5402960000000  0.5613630000000  0.3986520000000 1.0
C      1  0.5464150000000  0.4935280000000  0.4213730000000 1.0
C      1  0.5228940000000  0.4902410000000  0.3985320000000 1.0
C      1  0.4598000000000  0.5055510000000  0.4060940000000 1.0
C      1  0.5868740000000  0.5592930000000  0.5523200000000 1.0
C      1  0.5068090000000  0.5448740000000  0.4746840000000 1.0
C      1  0.4937050000000  0.5050280000000  0.4001960000000 1.0
C      1  0.4894140000000  0.4208280000000  0.4880460000000 1.0
C      1  0.5196660000000  0.5489790000000  0.4071460000000 1.0
C      1  0.4948920000000  0.5342060000000  0.4177500000000 1.0
C      1  0.5556350000000  0.5047530000000  0.4443550000000 1.0
C      1  0.4830220000000  0.5510730000000  0.4936540000000 1.0
C      1  0.4802890000000  0.5170660000000  0.5878510000000 1.0
C      1  0.4452500000000  0.4414970000000  0.4905620000000 1.0
C      1  0.5086800000000  0.4438290000000  0.5451160000000 1.0
C      1  0.5615910000000  0.4830560000000  0.5247480000000 1.0
C      1  0.5266760000000  0.4621890000000  0.5673930000000 1.0
C      1  0.4921700000000  0.5018840000000  0.4879180000000 1.0
C      1  0.5063910000000  0.5918780000000  0.5199580000000 1.0
C      1  0.4292380000000  0.5114340000000  0.4898800000000 1.0
C      1  0.4532930000000  0.5419580000000  0.4492930000000 1.0
C      1  0.4589430000000  0.5017860000000  0.4922610000000 1.0
C      1  0.5568420000000  0.5200430000000  0.5568730000000 1.0
C      1  0.6032190000000  0.4602090000000  0.4814780000000 1.0
C      1  0.4971280000000  0.4791870000000  0.4631090000000 1.0
C      1  0.4876070000000  0.4648730000000  0.5934340000000 1.0
C      1  0.5534270000000  0.4699130000000  0.5678860000000 1.0
C      1  0.5185680000000  0.4250620000000  0.4890150000000 1.0
C      1  0.5110260000000  0.5498480000000  0.5449760000000 1.0
C      1  0.4652540000000  0.4911010000000  0.4425850000000 1.0
C      1  0.4640760000000  0.4790200000000  0.4711420000000 1.0
C      1  0.4323550000000  0.4177750000000  0.5056440000000 1.0
C      1  0.5017530000000  0.4807570000000  0.4308600000000 1.0
C      1  0.4865490000000  0.5659230000000  0.5236310000000 1.0
C      1  0.4278250000000  0.5262640000000  0.4624340000000 1.0
C      1  0.5280170000000  0.5680010000000  0.4796910000000 1.0
C      1  0.4848760000000  0.4352830000000  0.4431030000000 1.0
C      1  0.5612180000000  0.4909040000000  0.5511830000000 1.0
C      1  0.4099310000000  0.5484140000000  0.5248380000000 1.0
C      1  0.5075640000000  0.5176640000000  0.4648050000000 1.0
C      1  0.6152050000000  0.5279160000000  0.5113630000000 1.0
C      1  0.4985910000000  0.5834270000000  0.4700190000000 1.0
C      1  0.5363580000000  0.5059340000000  0.4679460000000 1.0
C      1  0.5274910000000  0.4664950000000  0.4233450000000 1.0
C      1  0.5259460000000  0.4357800000000  0.5156490000000 1.0
C      1  0.4920820000000  0.4384780000000  0.5743160000000 1.0
C      1  0.5856890000000  0.4893040000000  0.4809530000000 1.0
C      1  0.5505470000000  0.5198580000000  0.4908390000000 1.0
C      1  0.4382020000000  0.5541260000000  0.5294920000000 1.0
C      1  0.5474250000000  0.4574260000000  0.4651070000000 1.0
C      1  0.4518610000000  0.4218640000000  0.5321410000000 1.0
C      1  0.5362350000000  0.5442570000000  0.5012140000000 1.0
C      1  0.4955120000000  0.5038810000000  0.5430230000000 1.0
C      1  0.4581720000000  0.5262930000000  0.5642220000000 1.0
C      1  0.4219270000000  0.4658960000000  0.5431870000000 1.0
C      1  0.4762560000000  0.5030450000000  0.6114140000000 1.0
C      1  0.5246370000000  0.5298970000000  0.5642160000000 1.0
C      1  0.4757100000000  0.5551450000000  0.4306620000000 1.0
C      1  0.5814650000000  0.5045670000000  0.4536610000000 1.0
C      1  0.4447020000000  0.5137290000000  0.4354450000000 1.0
C      1  0.5116340000000  0.4295380000000  0.4559640000000 1.0
C      1  0.4721880000000  0.4939980000000  0.5215990000000 1.0
C      1  0.5266790000000  0.4769660000000  0.4768080000000 1.0
C      1  0.4666820000000  0.5481650000000  0.5856310000000 1.0
C      1  0.5099800000000  0.4793660000000  0.5821160000000 1.0
C      1  0.5097950000000  0.5025530000000  0.5127340000000 1.0
C      1  0.4182330000000  0.4817870000000  0.4823300000000 1.0
C      1  0.4381840000000  0.4638630000000  0.4766440000000 1.0
C      1  0.4527510000000  0.5274150000000  0.5354480000000 1.0
END
