TITL C-2847944-5688-670 0.00231387145511047 125000 -972.763352961481 0 0 181 (C1) n - 1
REM
REM in /home/bkarasulu/work/CARBON/AIRSS/Generating-Clusters/AIREBO/with-SteepDescent/Only-C1/SD-CG-opt/Try1-1.4A-POS3A/HFTN-CG
REM
REM
REM
REM
REM
REM ./C.cell (11c1c37f851c82e70ff6c80c92926a4b)
REM
REM compiler GCC version 9.2.1 20190827 (Red Hat 9.2.1-1)
REM options -cpp -mtune=generic -march=x86-64 -g -O0 -fpre-include=/usr/include/finclude/math-vector-fortran.h
REM seed 2011455863 1413893693 1432380354 66740086 1682948118 -1519164600 -356147471 1202717100 -1672409073 -519289398 -844341619 -1215223062 -2091643483 1503914481 82053485 337122926 -802083709 -862141444 1460494602 433166511 717168067 -1857259453 1077667122 -1914715448 -29442083 2136384014 1418149398 -486222452 -1805604533 -1142149422 -226436238 -1546219036 -940402485
REM
CELL 1.54180   50.00000   50.00000   50.00000   90.00000   90.00000   90.00000
LATT -1
SFAC C  
C      1  0.4692030000000  0.4448750000000  0.5654780000000 1.0
C      1  0.4985600000000  0.5006890000000  0.5324270000000 1.0
C      1  0.4362340000000  0.5166190000000  0.4091020000000 1.0
C      1  0.5712390000000  0.4659920000000  0.5189570000000 1.0
C      1  0.4344670000000  0.4649380000000  0.4240810000000 1.0
C      1  0.4276810000000  0.4238480000000  0.4983370000000 1.0
C      1  0.5665160000000  0.5608620000000  0.5514540000000 1.0
C      1  0.4805270000000  0.5195700000000  0.5660550000000 1.0
C      1  0.5359500000000  0.4826110000000  0.5425840000000 1.0
C      1  0.3895970000000  0.5160350000000  0.4528960000000 1.0
C      1  0.5357130000000  0.5264620000000  0.6026260000000 1.0
C      1  0.5092980000000  0.5375160000000  0.5635230000000 1.0
C      1  0.4332270000000  0.4306420000000  0.4669020000000 1.0
C      1  0.4796680000000  0.4368180000000  0.5214950000000 1.0
C      1  0.4992290000000  0.4330290000000  0.4020940000000 1.0
C      1  0.4800910000000  0.5164360000000  0.4320670000000 1.0
C      1  0.5203540000000  0.5495410000000  0.4659480000000 1.0
C      1  0.4829890000000  0.4711370000000  0.3717210000000 1.0
C      1  0.4941880000000  0.4489810000000  0.6118440000000 1.0
C      1  0.4527470000000  0.4038230000000  0.4665680000000 1.0
C      1  0.5082690000000  0.4061760000000  0.5649060000000 1.0
C      1  0.6162210000000  0.4849460000000  0.5098080000000 1.0
C      1  0.5230410000000  0.4923810000000  0.5002260000000 1.0
C      1  0.5403130000000  0.6141690000000  0.4993610000000 1.0
C      1  0.5200060000000  0.4241380000000  0.4528360000000 1.0
C      1  0.4810870000000  0.5494170000000  0.4293800000000 1.0
C      1  0.5562770000000  0.4172620000000  0.4931760000000 1.0
C      1  0.6075840000000  0.5306650000000  0.4532180000000 1.0
C      1  0.4327000000000  0.5335960000000  0.5794130000000 1.0
C      1  0.4522910000000  0.5752420000000  0.5475590000000 1.0
C      1  0.3888960000000  0.4897750000000  0.4751900000000 1.0
C      1  0.4342610000000  0.5811820000000  0.4853680000000 1.0
C      1  0.4576330000000  0.5170150000000  0.3922070000000 1.0
C      1  0.5797710000000  0.4810510000000  0.4327020000000 1.0
C      1  0.5266890000000  0.4544800000000  0.4479150000000 1.0
C      1  0.5473410000000  0.5409900000000  0.5221010000000 1.0
C      1  0.5725870000000  0.5499040000000  0.4525050000000 1.0
C      1  0.5010590000000  0.4905280000000  0.4540190000000 1.0
C      1  0.5248670000000  0.5891130000000  0.5501850000000 1.0
C      1  0.5908610000000  0.5034940000000  0.5787140000000 1.0
C      1  0.4704480000000  0.6021270000000  0.5503070000000 1.0
C      1  0.4611870000000  0.5208820000000  0.5041480000000 1.0
C      1  0.4275500000000  0.4133680000000  0.5540140000000 1.0
C      1  0.4896710000000  0.5236510000000  0.4002440000000 1.0
C      1  0.4452930000000  0.4720090000000  0.4819580000000 1.0
C      1  0.4747480000000  0.4511370000000  0.3902090000000 1.0
C      1  0.4812800000000  0.4093490000000  0.5790930000000 1.0
C      1  0.4562610000000  0.4503230000000  0.4121760000000 1.0
C      1  0.5379260000000  0.5677350000000  0.5071310000000 1.0
C      1  0.4723690000000  0.4345090000000  0.5977300000000 1.0
C      1  0.5569240000000  0.4655970000000  0.4716200000000 1.0
C      1  0.4629740000000  0.5709940000000  0.4732210000000 1.0
C      1  0.5525380000000  0.4722440000000  0.4412170000000 1.0
C      1  0.5620410000000  0.5349390000000  0.3992130000000 1.0
C      1  0.4198690000000  0.5554010000000  0.4972200000000 1.0
C      1  0.5874470000000  0.5244740000000  0.5086940000000 1.0
C      1  0.5612160000000  0.4123760000000  0.5206240000000 1.0
C      1  0.4370480000000  0.5041010000000  0.5506940000000 1.0
C      1  0.3963380000000  0.5346680000000  0.4976030000000 1.0
C      1  0.5268600000000  0.4338480000000  0.5716080000000 1.0
C      1  0.4481750000000  0.4413910000000  0.5190310000000 1.0
C      1  0.4191960000000  0.5033450000000  0.4539740000000 1.0
C      1  0.6088670000000  0.5555310000000  0.4683500000000 1.0
C      1  0.5235110000000  0.4385730000000  0.6035530000000 1.0
C      1  0.4703740000000  0.4779110000000  0.4624190000000 1.0
C      1  0.5023030000000  0.4887890000000  0.3790000000000 1.0
C      1  0.5210860000000  0.4638580000000  0.5186420000000 1.0
C      1  0.5020130000000  0.4932120000000  0.5654400000000 1.0
C      1  0.5220120000000  0.4779250000000  0.4023880000000 1.0
C      1  0.5085130000000  0.4572530000000  0.4226660000000 1.0
C      1  0.4151380000000  0.4385750000000  0.5266180000000 1.0
C      1  0.5694710000000  0.4969920000000  0.4752970000000 1.0
C      1  0.5828950000000  0.5717020000000  0.4741770000000 1.0
C      1  0.4380910000000  0.5109870000000  0.4811900000000 1.0
C      1  0.4616890000000  0.5358560000000  0.5428760000000 1.0
C      1  0.5302350000000  0.4953980000000  0.4372250000000 1.0
C      1  0.4896730000000  0.4678930000000  0.5310150000000 1.0
C      1  0.5052970000000  0.5194280000000  0.4715140000000 1.0
C      1  0.5778760000000  0.5089790000000  0.4144620000000 1.0
C      1  0.4594910000000  0.4138440000000  0.5558580000000 1.0
C      1  0.4598620000000  0.4959560000000  0.5709480000000 1.0
C      1  0.5446920000000  0.5501000000000  0.4136940000000 1.0
C      1  0.4803870000000  0.4790940000000  0.6158240000000 1.0
C      1  0.5258550000000  0.4155670000000  0.4852690000000 1.0
C      1  0.4131660000000  0.5255980000000  0.5527430000000 1.0
C      1  0.4947190000000  0.4882680000000  0.4206780000000 1.0
C      1  0.4836660000000  0.6410210000000  0.5079100000000 1.0
C      1  0.5565630000000  0.4926610000000  0.5060990000000 1.0
C      1  0.5056120000000  0.5644250000000  0.5448370000000 1.0
C      1  0.5877180000000  0.5338950000000  0.4320800000000 1.0
C      1  0.4153850000000  0.4506260000000  0.4478150000000 1.0
C      1  0.6017460000000  0.5054620000000  0.4686270000000 1.0
C      1  0.4997100000000  0.3919910000000  0.5355900000000 1.0
C      1  0.4530720000000  0.5416340000000  0.4605310000000 1.0
C      1  0.4191080000000  0.4752060000000  0.4695380000000 1.0
C      1  0.4959140000000  0.5943130000000  0.4486230000000 1.0
C      1  0.5037750000000  0.5648040000000  0.4404670000000 1.0
C      1  0.4266650000000  0.5548000000000  0.5460930000000 1.0
C      1  0.5702640000000  0.4777620000000  0.5750720000000 1.0
C      1  0.5341180000000  0.5244930000000  0.4986370000000 1.0
C      1  0.4227640000000  0.4709520000000  0.5336580000000 1.0
C      1  0.5000750000000  0.5652150000000  0.4868770000000 1.0
C      1  0.5574850000000  0.5280740000000  0.5518940000000 1.0
C      1  0.5097860000000  0.5518580000000  0.5145270000000 1.0
C      1  0.4180470000000  0.5317410000000  0.6101180000000 1.0
C      1  0.4370260000000  0.4034950000000  0.5239280000000 1.0
C      1  0.4790160000000  0.3920500000000  0.4567240000000 1.0
C      1  0.4621750000000  0.4451330000000  0.4583390000000 1.0
C      1  0.4566310000000  0.5522340000000  0.5722170000000 1.0
C      1  0.4967100000000  0.4207500000000  0.4337000000000 1.0
C      1  0.5126430000000  0.4170920000000  0.3838960000000 1.0
C      1  0.5180290000000  0.5469880000000  0.5905980000000 1.0
C      1  0.4585120000000  0.5822850000000  0.4415180000000 1.0
C      1  0.4387040000000  0.5419530000000  0.5185510000000 1.0
C      1  0.5268690000000  0.5155250000000  0.5440440000000 1.0
C      1  0.4712270000000  0.4041550000000  0.5256210000000 1.0
C      1  0.5951220000000  0.4554320000000  0.4769070000000 1.0
C      1  0.5708730000000  0.5371870000000  0.4901490000000 1.0
C      1  0.5500450000000  0.5030400000000  0.5737160000000 1.0
C      1  0.4725170000000  0.5527470000000  0.5003990000000 1.0
C      1  0.5444050000000  0.5867870000000  0.4553680000000 1.0
C      1  0.5489080000000  0.5217450000000  0.4692830000000 1.0
C      1  0.4952740000000  0.5969590000000  0.5650200000000 1.0
C      1  0.4839590000000  0.6192620000000  0.4945770000000 1.0
C      1  0.5432580000000  0.5638710000000  0.5909790000000 1.0
C      1  0.5003880000000  0.4463100000000  0.4852750000000 1.0
C      1  0.5474890000000  0.4987810000000  0.4081120000000 1.0
C      1  0.4455310000000  0.4702620000000  0.5099800000000 1.0
C      1  0.5241980000000  0.4675540000000  0.5679320000000 1.0
C      1  0.5139350000000  0.4766330000000  0.6103620000000 1.0
C      1  0.5714680000000  0.4352920000000  0.4768150000000 1.0
C      1  0.5174250000000  0.5216390000000  0.4197840000000 1.0
C      1  0.5485030000000  0.5766950000000  0.5662960000000 1.0
C      1  0.5356590000000  0.5956900000000  0.5188930000000 1.0
C      1  0.5368100000000  0.5342020000000  0.4420510000000 1.0
C      1  0.4534950000000  0.4960970000000  0.5243470000000 1.0
C      1  0.4730920000000  0.4046230000000  0.4937980000000 1.0
C      1  0.5983280000000  0.4637430000000  0.5047190000000 1.0
C      1  0.5161910000000  0.4705460000000  0.4750610000000 1.0
C      1  0.5666280000000  0.4638300000000  0.6031760000000 1.0
C      1  0.4921420000000  0.5066020000000  0.4995400000000 1.0
C      1  0.4767950000000  0.5695890000000  0.5280210000000 1.0
C      1  0.5120920000000  0.4317810000000  0.5118260000000 1.0
C      1  0.4504600000000  0.5603430000000  0.4194360000000 1.0
C      1  0.4247800000000  0.5475010000000  0.4660020000000 1.0
C      1  0.4265920000000  0.5410960000000  0.4196410000000 1.0
C      1  0.5334890000000  0.5726010000000  0.4316830000000 1.0
C      1  0.4373680000000  0.4955290000000  0.4301750000000 1.0
C      1  0.4737540000000  0.5534290000000  0.3962330000000 1.0
C      1  0.4080250000000  0.5073350000000  0.4971860000000 1.0
C      1  0.5228960000000  0.4993580000000  0.5915880000000 1.0
C      1  0.4787000000000  0.4331870000000  0.4791400000000 1.0
C      1  0.4546290000000  0.4825260000000  0.5989200000000 1.0
C      1  0.5976550000000  0.4765600000000  0.4558030000000 1.0
C      1  0.5616910000000  0.4612010000000  0.5485820000000 1.0
C      1  0.4987800000000  0.4501490000000  0.5584030000000 1.0
C      1  0.5912610000000  0.5693040000000  0.5433760000000 1.0
C      1  0.4443080000000  0.4527260000000  0.5872800000000 1.0
C      1  0.4585570000000  0.5086930000000  0.4541160000000 1.0
C      1  0.5012430000000  0.3967880000000  0.4763200000000 1.0
C      1  0.5240490000000  0.5130300000000  0.3875650000000 1.0
C      1  0.5507210000000  0.5608690000000  0.4763610000000 1.0
C      1  0.4712300000000  0.4369840000000  0.4319670000000 1.0
C      1  0.4375100000000  0.5083010000000  0.6016220000000 1.0
C      1  0.5246050000000  0.4151340000000  0.5364250000000 1.0
C      1  0.4091030000000  0.5403810000000  0.4434550000000 1.0
C      1  0.4601720000000  0.4720870000000  0.5475030000000 1.0
C      1  0.5719590000000  0.5100530000000  0.5278420000000 1.0
C      1  0.5445460000000  0.6102980000000  0.4718370000000 1.0
C      1  0.5519100000000  0.4299860000000  0.5482130000000 1.0
C      1  0.4108850000000  0.5005350000000  0.5292660000000 1.0
C      1  0.5464960000000  0.4554280000000  0.4996900000000 1.0
C      1  0.6084020000000  0.5091420000000  0.4978290000000 1.0
C      1  0.5799150000000  0.5289290000000  0.5774470000000 1.0
C      1  0.4784500000000  0.5770820000000  0.5802960000000 1.0
C      1  0.5427050000000  0.4588800000000  0.6145070000000 1.0
C      1  0.3846780000000  0.4600410000000  0.4590380000000 1.0
C      1  0.4302910000000  0.4471670000000  0.5567640000000 1.0
C      1  0.4897350000000  0.5319590000000  0.5295410000000 1.0
C      1  0.5639120000000  0.5400120000000  0.5990350000000 1.0
C      1  0.4871930000000  0.5941790000000  0.4788780000000 1.0
END
