TITL C-2848497-6229-145 -0.00189463996633875 125000 -996.937517993118 0 0 182 (C1) n - 1
REM
REM in /home/bkarasulu/work/CARBON/AIRSS/Generating-Clusters/AIREBO/with-SteepDescent/Only-C1/SD-CG-opt/Try1-1.4A-POS3A/HFTN-CG
REM
REM
REM
REM
REM
REM ./C.cell (11c1c37f851c82e70ff6c80c92926a4b)
REM
REM compiler GCC version 9.2.1 20190827 (Red Hat 9.2.1-1)
REM options -cpp -mtune=generic -march=x86-64 -g -O0 -fpre-include=/usr/include/finclude/math-vector-fortran.h
REM seed 1769630162 1572987600 -290289106 -1883619281 -1474938630 -2036839856 1592202016 -2007829208 -406990612 -1686188571 629307425 689354871 -1793645002 -156590486 1472478421 -1911983282 1986578542 -1008121340 -1998179976 9337371 646138364 461087683 2061936170 -731595332 -1837711505 -109544444 -208802994 -110109326 -882613611 1933648785 1253395143 -337629493 98267361
REM
CELL 1.54180   50.00000   50.00000   50.00000   90.00000   90.00000   90.00000
LATT -1
SFAC C  
C      1  0.4431680000000  0.4551100000000  0.5928650000000 1.0
C      1  0.5708620000000  0.5216970000000  0.4648570000000 1.0
C      1  0.5285880000000  0.5613030000000  0.4750840000000 1.0
C      1  0.5218300000000  0.5934170000000  0.4726210000000 1.0
C      1  0.5274770000000  0.5380890000000  0.5093330000000 1.0
C      1  0.5255610000000  0.6011050000000  0.5270010000000 1.0
C      1  0.5743340000000  0.4503800000000  0.5643310000000 1.0
C      1  0.5557770000000  0.5122650000000  0.4862050000000 1.0
C      1  0.5824840000000  0.4218510000000  0.4874650000000 1.0
C      1  0.5285150000000  0.5557210000000  0.4296570000000 1.0
C      1  0.4370520000000  0.4645470000000  0.4407330000000 1.0
C      1  0.5398670000000  0.4843820000000  0.5849850000000 1.0
C      1  0.4406350000000  0.4363030000000  0.4981180000000 1.0
C      1  0.4525200000000  0.3978690000000  0.5017790000000 1.0
C      1  0.5092700000000  0.4599760000000  0.4315000000000 1.0
C      1  0.4742230000000  0.5169540000000  0.6060400000000 1.0
C      1  0.5701600000000  0.5055960000000  0.5154200000000 1.0
C      1  0.4765070000000  0.4797870000000  0.5305210000000 1.0
C      1  0.5664700000000  0.4989570000000  0.5695050000000 1.0
C      1  0.3913880000000  0.5335350000000  0.5100210000000 1.0
C      1  0.6075930000000  0.4751440000000  0.5151700000000 1.0
C      1  0.3891010000000  0.5368270000000  0.4479830000000 1.0
C      1  0.4537940000000  0.5896390000000  0.4373500000000 1.0
C      1  0.4409880000000  0.5701310000000  0.5179470000000 1.0
C      1  0.5974680000000  0.4984670000000  0.5343900000000 1.0
C      1  0.5652810000000  0.5655450000000  0.4419320000000 1.0
C      1  0.4540180000000  0.4885910000000  0.5532820000000 1.0
C      1  0.5204830000000  0.4043250000000  0.4996290000000 1.0
C      1  0.5400310000000  0.5352190000000  0.4077350000000 1.0
C      1  0.4876320000000  0.4453450000000  0.4783510000000 1.0
C      1  0.5125810000000  0.4926830000000  0.3956920000000 1.0
C      1  0.5559710000000  0.5779360000000  0.4864990000000 1.0
C      1  0.4953170000000  0.4964650000000  0.5534980000000 1.0
C      1  0.4463260000000  0.5538420000000  0.5672090000000 1.0
C      1  0.5280410000000  0.4809350000000  0.4182410000000 1.0
C      1  0.4351680000000  0.5130670000000  0.4591850000000 1.0
C      1  0.4143970000000  0.5360650000000  0.4644250000000 1.0
C      1  0.5059040000000  0.5403710000000  0.5354740000000 1.0
C      1  0.4739510000000  0.6102870000000  0.5100180000000 1.0
C      1  0.4323750000000  0.3953900000000  0.5192170000000 1.0
C      1  0.5084930000000  0.4493080000000  0.5029610000000 1.0
C      1  0.4117520000000  0.5581440000000  0.5053290000000 1.0
C      1  0.5491900000000  0.5021800000000  0.5403950000000 1.0
C      1  0.5165490000000  0.5216510000000  0.4816310000000 1.0
C      1  0.4297540000000  0.4605520000000  0.5387560000000 1.0
C      1  0.4434760000000  0.4179630000000  0.4695790000000 1.0
C      1  0.4608560000000  0.5987210000000  0.4623350000000 1.0
C      1  0.4463140000000  0.5251430000000  0.5395090000000 1.0
C      1  0.6027550000000  0.5578070000000  0.4786800000000 1.0
C      1  0.4901690000000  0.4137370000000  0.5433150000000 1.0
C      1  0.5527200000000  0.5536640000000  0.5100860000000 1.0
C      1  0.6170150000000  0.5208240000000  0.5178100000000 1.0
C      1  0.4721450000000  0.4250620000000  0.4960790000000 1.0
C      1  0.4833100000000  0.5198640000000  0.5750560000000 1.0
C      1  0.4819540000000  0.4940850000000  0.6187820000000 1.0
C      1  0.5533560000000  0.4500120000000  0.4572980000000 1.0
C      1  0.6046660000000  0.5399600000000  0.5000690000000 1.0
C      1  0.4261250000000  0.5659950000000  0.4755240000000 1.0
C      1  0.5014240000000  0.4008800000000  0.4716720000000 1.0
C      1  0.4909080000000  0.4425560000000  0.5289410000000 1.0
C      1  0.5824490000000  0.5461430000000  0.5434150000000 1.0
C      1  0.4034860000000  0.4697050000000  0.5554500000000 1.0
C      1  0.4899610000000  0.5258050000000  0.5024270000000 1.0
C      1  0.4515930000000  0.4324720000000  0.5777820000000 1.0
C      1  0.5813100000000  0.5032130000000  0.5971820000000 1.0
C      1  0.4174720000000  0.4895260000000  0.4962410000000 1.0
C      1  0.4310780000000  0.5073720000000  0.5842870000000 1.0
C      1  0.4588680000000  0.4518640000000  0.5222930000000 1.0
C      1  0.5688030000000  0.4320010000000  0.5433450000000 1.0
C      1  0.4935690000000  0.4084850000000  0.5925860000000 1.0
C      1  0.5589720000000  0.4506220000000  0.5166450000000 1.0
C      1  0.4968110000000  0.4563170000000  0.5918530000000 1.0
C      1  0.4741410000000  0.5643560000000  0.5126000000000 1.0
C      1  0.4680080000000  0.3944140000000  0.4713480000000 1.0
C      1  0.5345750000000  0.4318180000000  0.5020620000000 1.0
C      1  0.5303910000000  0.5595850000000  0.5877150000000 1.0
C      1  0.5914320000000  0.4403270000000  0.4639920000000 1.0
C      1  0.4738580000000  0.4669150000000  0.4629420000000 1.0
C      1  0.6216270000000  0.5137990000000  0.3937140000000 1.0
C      1  0.4936320000000  0.5653850000000  0.4102980000000 1.0
C      1  0.3875680000000  0.4758600000000  0.4992820000000 1.0
C      1  0.4758250000000  0.4124590000000  0.5696150000000 1.0
C      1  0.5744630000000  0.5981830000000  0.5083360000000 1.0
C      1  0.4437640000000  0.4823870000000  0.4662780000000 1.0
C      1  0.4810180000000  0.4734760000000  0.4303350000000 1.0
C      1  0.4929790000000  0.5289790000000  0.4582440000000 1.0
C      1  0.4518000000000  0.4270730000000  0.4195660000000 1.0
C      1  0.4900920000000  0.4067550000000  0.5111800000000 1.0
C      1  0.5304540000000  0.4907110000000  0.4790820000000 1.0
C      1  0.4742220000000  0.3918110000000  0.4395220000000 1.0
C      1  0.4538250000000  0.4735280000000  0.4965670000000 1.0
C      1  0.5316040000000  0.5256790000000  0.5480830000000 1.0
C      1  0.5610850000000  0.5331340000000  0.4343610000000 1.0
C      1  0.4142140000000  0.4567000000000  0.4894980000000 1.0
C      1  0.5776240000000  0.4384320000000  0.4368780000000 1.0
C      1  0.4289120000000  0.5717500000000  0.4421270000000 1.0
C      1  0.4522230000000  0.4284070000000  0.5460280000000 1.0
C      1  0.4597220000000  0.4704430000000  0.3966600000000 1.0
C      1  0.5055440000000  0.6012140000000  0.5012040000000 1.0
C      1  0.4643850000000  0.5409080000000  0.4606780000000 1.0
C      1  0.4592570000000  0.5620790000000  0.4821130000000 1.0
C      1  0.5154390000000  0.5839470000000  0.4177080000000 1.0
C      1  0.5132680000000  0.4622610000000  0.5431540000000 1.0
C      1  0.4138700000000  0.5205360000000  0.4920150000000 1.0
C      1  0.5494350000000  0.6091530000000  0.4724900000000 1.0
C      1  0.5434180000000  0.5507380000000  0.5638080000000 1.0
C      1  0.5077430000000  0.4263470000000  0.4260600000000 1.0
C      1  0.4648630000000  0.5717160000000  0.4124050000000 1.0
C      1  0.4479230000000  0.4553320000000  0.4169730000000 1.0
C      1  0.3691220000000  0.5383290000000  0.4321730000000 1.0
C      1  0.5575820000000  0.4562840000000  0.5869430000000 1.0
C      1  0.5177470000000  0.4787280000000  0.5049570000000 1.0
C      1  0.4823280000000  0.5952680000000  0.5670520000000 1.0
C      1  0.5076060000000  0.5183140000000  0.4303010000000 1.0
C      1  0.4793680000000  0.4967110000000  0.4773950000000 1.0
C      1  0.4303340000000  0.4772710000000  0.5749290000000 1.0
C      1  0.4428900000000  0.5178540000000  0.5080910000000 1.0
C      1  0.5588140000000  0.4515820000000  0.4177050000000 1.0
C      1  0.4060090000000  0.5233290000000  0.5840520000000 1.0
C      1  0.5872490000000  0.4224320000000  0.5164290000000 1.0
C      1  0.5130080000000  0.3917270000000  0.5305080000000 1.0
C      1  0.5367290000000  0.4347580000000  0.4103900000000 1.0
C      1  0.5291490000000  0.3765860000000  0.4320060000000 1.0
C      1  0.4836900000000  0.5856540000000  0.4802840000000 1.0
C      1  0.5794540000000  0.5678520000000  0.4666840000000 1.0
C      1  0.4274920000000  0.5534170000000  0.5416210000000 1.0
C      1  0.5562560000000  0.4324600000000  0.4811110000000 1.0
C      1  0.5260560000000  0.5300510000000  0.5991100000000 1.0
C      1  0.5601710000000  0.4821350000000  0.4167650000000 1.0
C      1  0.5123680000000  0.4746540000000  0.5717430000000 1.0
C      1  0.4381770000000  0.4877530000000  0.5231910000000 1.0
C      1  0.5177240000000  0.5844720000000  0.5822200000000 1.0
C      1  0.4766280000000  0.4144330000000  0.4237510000000 1.0
C      1  0.6100720000000  0.4815230000000  0.4887800000000 1.0
C      1  0.5379620000000  0.4744940000000  0.5287060000000 1.0
C      1  0.4703110000000  0.4697350000000  0.6056580000000 1.0
C      1  0.5861230000000  0.4749250000000  0.5561520000000 1.0
C      1  0.3863230000000  0.5026820000000  0.5173750000000 1.0
C      1  0.4144880000000  0.5226480000000  0.5512770000000 1.0
C      1  0.5569890000000  0.4829650000000  0.4592670000000 1.0
C      1  0.5863740000000  0.4700410000000  0.4705980000000 1.0
C      1  0.4532120000000  0.5238120000000  0.5727760000000 1.0
C      1  0.5171920000000  0.3973580000000  0.4417560000000 1.0
C      1  0.5930480000000  0.4528540000000  0.5198050000000 1.0
C      1  0.5698120000000  0.4766290000000  0.4976130000000 1.0
C      1  0.5359240000000  0.5030970000000  0.4416120000000 1.0
C      1  0.4672900000000  0.5710240000000  0.5656450000000 1.0
C      1  0.5977220000000  0.5106980000000  0.4039950000000 1.0
C      1  0.5887410000000  0.5221340000000  0.5571940000000 1.0
C      1  0.4517920000000  0.5756860000000  0.3880330000000 1.0
C      1  0.5373420000000  0.5846350000000  0.4436410000000 1.0
C      1  0.5230320000000  0.4623250000000  0.4605230000000 1.0
C      1  0.4850420000000  0.5001860000000  0.4444580000000 1.0
C      1  0.5003320000000  0.5391680000000  0.4066890000000 1.0
C      1  0.3977340000000  0.4982550000000  0.5425060000000 1.0
C      1  0.4316620000000  0.4198390000000  0.4390760000000 1.0
C      1  0.4244710000000  0.4440690000000  0.4624770000000 1.0
C      1  0.4729110000000  0.4696580000000  0.5716830000000 1.0
C      1  0.5300090000000  0.5033790000000  0.6085480000000 1.0
C      1  0.5345400000000  0.6303250000000  0.5319060000000 1.0
C      1  0.5780500000000  0.5378590000000  0.5149910000000 1.0
C      1  0.5738370000000  0.5066360000000  0.4170820000000 1.0
C      1  0.4892730000000  0.5664200000000  0.5403250000000 1.0
C      1  0.4910430000000  0.4921110000000  0.5064040000000 1.0
C      1  0.5194440000000  0.5196030000000  0.3921700000000 1.0
C      1  0.4514930000000  0.5502430000000  0.4349190000000 1.0
C      1  0.5512450000000  0.5831520000000  0.5258190000000 1.0
C      1  0.5083750000000  0.4316580000000  0.4596390000000 1.0
C      1  0.5095700000000  0.5910790000000  0.5501320000000 1.0
C      1  0.4492900000000  0.5984460000000  0.5071750000000 1.0
C      1  0.5054390000000  0.4291460000000  0.6017250000000 1.0
C      1  0.4066550000000  0.4374270000000  0.5440950000000 1.0
C      1  0.4383020000000  0.5973080000000  0.4808220000000 1.0
C      1  0.5095610000000  0.4934620000000  0.6259480000000 1.0
C      1  0.5626400000000  0.5642670000000  0.5499690000000 1.0
C      1  0.4979980000000  0.5562030000000  0.4894480000000 1.0
C      1  0.4871610000000  0.4812580000000  0.3978690000000 1.0
C      1  0.5121240000000  0.5275090000000  0.5727810000000 1.0
C      1  0.4794660000000  0.5195020000000  0.5341510000000 1.0
C      1  0.4574740000000  0.5167970000000  0.4811170000000 1.0
C      1  0.5341380000000  0.5341690000000  0.4553460000000 1.0
C      1  0.4264090000000  0.4162010000000  0.5374070000000 1.0
END
