TITL C-2847946-5639-164 0.0411273484371664 125000 -254.922568169303 0 0 48 (C1) n - 1
REM
REM in /home/bkarasulu/work/CARBON/AIRSS/Generating-Clusters/AIREBO/with-SteepDescent/Only-C1/SD-CG-opt/Try1-1.4A-POS3A/HFTN-CG
REM
REM
REM
REM
REM
REM ./C.cell (11c1c37f851c82e70ff6c80c92926a4b)
REM
REM compiler GCC version 9.2.1 20190827 (Red Hat 9.2.1-1)
REM options -cpp -mtune=generic -march=x86-64 -g -O0 -fpre-include=/usr/include/finclude/math-vector-fortran.h
REM seed -472832719 -2121078340 -1994641663 -616366451 -529093934 1955966670 2136998847 -1572806200 354851241 -936240798 -1921325413 2130570400 1308846388 1077074393 -1965968783 720468302 106240270 880649983 -891986651 -894343601 -1465985236 -2131116519 -1891484301 -232506705 1955054865 -1238513926 -124751323 1434198086 829732184 -217406299 592219262 1412262184 1433467699
REM
CELL 1.54180   50.00000   50.00000   50.00000   90.00000   90.00000   90.00000
LATT -1
SFAC C  
C      1  0.4532620000000  0.5514110000000  0.4992240000000 1.0
C      1  0.4585550000000  0.5226570000000  0.5524980000000 1.0
C      1  0.5229960000000  0.4926890000000  0.5620500000000 1.0
C      1  0.4412500000000  0.5167300000000  0.5332160000000 1.0
C      1  0.4773920000000  0.4367220000000  0.5087700000000 1.0
C      1  0.5081300000000  0.5115640000000  0.5473990000000 1.0
C      1  0.4602950000000  0.4854630000000  0.5076490000000 1.0
C      1  0.5657700000000  0.5247380000000  0.5029090000000 1.0
C      1  0.5325950000000  0.4977490000000  0.5867100000000 1.0
C      1  0.4907360000000  0.5201490000000  0.4982250000000 1.0
C      1  0.5270400000000  0.4399010000000  0.5098050000000 1.0
C      1  0.5000090000000  0.5396880000000  0.4285280000000 1.0
C      1  0.5361650000000  0.5364890000000  0.5134200000000 1.0
C      1  0.5257030000000  0.5600590000000  0.4981960000000 1.0
C      1  0.5084850000000  0.4442450000000  0.5529980000000 1.0
C      1  0.4569210000000  0.5169480000000  0.4964220000000 1.0
C      1  0.4802240000000  0.5497780000000  0.4964080000000 1.0
C      1  0.5189970000000  0.4332280000000  0.4828300000000 1.0
C      1  0.4945970000000  0.4198340000000  0.4867490000000 1.0
C      1  0.5585030000000  0.5426350000000  0.5374590000000 1.0
C      1  0.4852200000000  0.5240280000000  0.5563990000000 1.0
C      1  0.5153070000000  0.5149930000000  0.5181790000000 1.0
C      1  0.5036210000000  0.4327070000000  0.5271890000000 1.0
C      1  0.5383400000000  0.4741160000000  0.4545080000000 1.0
C      1  0.5058410000000  0.5366660000000  0.4550600000000 1.0
C      1  0.5013690000000  0.5071110000000  0.4695440000000 1.0
C      1  0.5544220000000  0.5554170000000  0.5610490000000 1.0
C      1  0.5488280000000  0.5217910000000  0.4515400000000 1.0
C      1  0.4244030000000  0.5164780000000  0.5063720000000 1.0
C      1  0.5847690000000  0.5305500000000  0.5256350000000 1.0
C      1  0.5335970000000  0.4666210000000  0.5214140000000 1.0
C      1  0.4747970000000  0.4991610000000  0.4533860000000 1.0
C      1  0.4109950000000  0.4924460000000  0.5008250000000 1.0
C      1  0.5602610000000  0.4631970000000  0.4424630000000 1.0
C      1  0.4530060000000  0.4258690000000  0.5166520000000 1.0
C      1  0.5029070000000  0.4768300000000  0.4849370000000 1.0
C      1  0.5188360000000  0.5545720000000  0.4718720000000 1.0
C      1  0.5324420000000  0.5006380000000  0.4573380000000 1.0
C      1  0.4295920000000  0.5190270000000  0.4524830000000 1.0
C      1  0.4772000000000  0.4660650000000  0.4982980000000 1.0
C      1  0.5155380000000  0.4569710000000  0.4640590000000 1.0
C      1  0.4528360000000  0.5113240000000  0.4645930000000 1.0
C      1  0.5257970000000  0.4672380000000  0.5497150000000 1.0
C      1  0.4934670000000  0.4546130000000  0.4419290000000 1.0
C      1  0.4097350000000  0.5397230000000  0.5009290000000 1.0
C      1  0.5223620000000  0.4871530000000  0.5064270000000 1.0
C      1  0.5285300000000  0.5850100000000  0.5091290000000 1.0
C      1  0.4783560000000  0.4770070000000  0.4366070000000 1.0
END
