TITL C-2847951-7423-682 0.00111182475840432 125000 -442.176137219366 0 0 81 (C1) n - 1
REM
REM in /home/bkarasulu/work/CARBON/AIRSS/Generating-Clusters/AIREBO/with-SteepDescent/Only-C1/SD-CG-opt/Try1-1.4A-POS3A/HFTN-CG
REM
REM
REM
REM
REM
REM ./C.cell (11c1c37f851c82e70ff6c80c92926a4b)
REM
REM compiler GCC version 9.2.1 20190827 (Red Hat 9.2.1-1)
REM options -cpp -mtune=generic -march=x86-64 -g -O0 -fpre-include=/usr/include/finclude/math-vector-fortran.h
REM seed -1436323160 574764450 1856097341 -1156437493 320778611 -521007538 1761057521 -1673608887 1776359465 1521877711 697315803 500162495 330485737 51446018 2094126699 236408639 -1523209948 2073078284 239463506 184410524 -1950802686 466581162 1870677216 -962475387 -676805162 -1544574628 -53327289 -2044078711 -991904754 699377742 -1299037221 710634203 -537702723
REM
CELL 1.54180   50.00000   50.00000   50.00000   90.00000   90.00000   90.00000
LATT -1
SFAC C  
C      1  0.4524160000000  0.5530800000000  0.5069500000000 1.0
C      1  0.4439470000000  0.4966270000000  0.4750010000000 1.0
C      1  0.4803060000000  0.5142740000000  0.4366340000000 1.0
C      1  0.4248090000000  0.4870220000000  0.5284790000000 1.0
C      1  0.5238300000000  0.4516740000000  0.4755750000000 1.0
C      1  0.5618370000000  0.5518060000000  0.4655970000000 1.0
C      1  0.4580870000000  0.5202880000000  0.5070810000000 1.0
C      1  0.5504240000000  0.4950250000000  0.5177230000000 1.0
C      1  0.5601010000000  0.5677490000000  0.5098970000000 1.0
C      1  0.5477570000000  0.4836510000000  0.4740590000000 1.0
C      1  0.5766380000000  0.4717400000000  0.4988230000000 1.0
C      1  0.4948760000000  0.4704920000000  0.5734040000000 1.0
C      1  0.5338150000000  0.5535130000000  0.4564210000000 1.0
C      1  0.4816250000000  0.5131420000000  0.5384320000000 1.0
C      1  0.4989110000000  0.5067660000000  0.4617600000000 1.0
C      1  0.4643490000000  0.5387650000000  0.4446070000000 1.0
C      1  0.4819650000000  0.4646340000000  0.5170300000000 1.0
C      1  0.5577950000000  0.4520590000000  0.4816250000000 1.0
C      1  0.5128350000000  0.4233550000000  0.5134430000000 1.0
C      1  0.4957460000000  0.5740760000000  0.5021990000000 1.0
C      1  0.4590970000000  0.4261270000000  0.5170680000000 1.0
C      1  0.4758140000000  0.5604490000000  0.4588490000000 1.0
C      1  0.4547120000000  0.5041230000000  0.5664070000000 1.0
C      1  0.4345550000000  0.5329360000000  0.4881640000000 1.0
C      1  0.4890540000000  0.5240190000000  0.5697770000000 1.0
C      1  0.5614520000000  0.5242250000000  0.5616250000000 1.0
C      1  0.5034540000000  0.5676180000000  0.4502860000000 1.0
C      1  0.4963400000000  0.5643620000000  0.5313450000000 1.0
C      1  0.4701590000000  0.4843630000000  0.5788620000000 1.0
C      1  0.5306190000000  0.4842900000000  0.5432040000000 1.0
C      1  0.4857360000000  0.5132320000000  0.4903190000000 1.0
C      1  0.4425190000000  0.4758070000000  0.4386860000000 1.0
C      1  0.4429790000000  0.4501730000000  0.5574210000000 1.0
C      1  0.5168860000000  0.5268900000000  0.4911820000000 1.0
C      1  0.4921030000000  0.4469270000000  0.5564800000000 1.0
C      1  0.5157370000000  0.4819650000000  0.4627310000000 1.0
C      1  0.4209790000000  0.4691050000000  0.5113440000000 1.0
C      1  0.5200680000000  0.5193340000000  0.4156870000000 1.0
C      1  0.5120600000000  0.4328220000000  0.5428640000000 1.0
C      1  0.4418350000000  0.5256000000000  0.4573330000000 1.0
C      1  0.5214690000000  0.4986970000000  0.5071300000000 1.0
C      1  0.5241870000000  0.5488180000000  0.5372180000000 1.0
C      1  0.5253280000000  0.5673920000000  0.5725250000000 1.0
C      1  0.5478530000000  0.5028040000000  0.4389780000000 1.0
C      1  0.4413840000000  0.4653710000000  0.4880010000000 1.0
C      1  0.5295030000000  0.4873310000000  0.4159660000000 1.0
C      1  0.4688630000000  0.4840810000000  0.4951910000000 1.0
C      1  0.4135250000000  0.5122670000000  0.4706340000000 1.0
C      1  0.4487830000000  0.5056430000000  0.5337350000000 1.0
C      1  0.5084890000000  0.5792930000000  0.5576730000000 1.0
C      1  0.4962400000000  0.4353530000000  0.4653760000000 1.0
C      1  0.4484680000000  0.4534590000000  0.4572190000000 1.0
C      1  0.4975110000000  0.4875610000000  0.4245310000000 1.0
C      1  0.4997100000000  0.4896840000000  0.5283090000000 1.0
C      1  0.5195220000000  0.4551720000000  0.4206750000000 1.0
C      1  0.4709740000000  0.5675640000000  0.4868390000000 1.0
C      1  0.5182570000000  0.4881340000000  0.5713380000000 1.0
C      1  0.4917030000000  0.4389700000000  0.4980150000000 1.0
C      1  0.5677680000000  0.5038290000000  0.4928910000000 1.0
C      1  0.5338270000000  0.5365160000000  0.5660770000000 1.0
C      1  0.5709070000000  0.5723570000000  0.4849340000000 1.0
C      1  0.5233960000000  0.4664870000000  0.5061190000000 1.0
C      1  0.5374270000000  0.5151160000000  0.4667590000000 1.0
C      1  0.5371790000000  0.4285470000000  0.4966430000000 1.0
C      1  0.4652200000000  0.4470120000000  0.5408970000000 1.0
C      1  0.4977610000000  0.4603640000000  0.4452810000000 1.0
C      1  0.4715110000000  0.5461480000000  0.5342260000000 1.0
C      1  0.5394000000000  0.5414160000000  0.5121330000000 1.0
C      1  0.5802410000000  0.4661270000000  0.5255870000000 1.0
C      1  0.5142090000000  0.5158030000000  0.5761940000000 1.0
C      1  0.5639650000000  0.5333360000000  0.4900340000000 1.0
C      1  0.4589260000000  0.4372530000000  0.4891420000000 1.0
C      1  0.5645010000000  0.5053540000000  0.5455540000000 1.0
C      1  0.5326730000000  0.4520930000000  0.5324610000000 1.0
C      1  0.5127370000000  0.5592790000000  0.4817040000000 1.0
C      1  0.4691360000000  0.4330170000000  0.4508320000000 1.0
C      1  0.4634930000000  0.4875710000000  0.4251180000000 1.0
C      1  0.5172170000000  0.5282370000000  0.4427640000000 1.0
C      1  0.4191700000000  0.4915300000000  0.4442570000000 1.0
C      1  0.4596380000000  0.5349910000000  0.5632400000000 1.0
C      1  0.5597000000000  0.4659200000000  0.5434260000000 1.0
END
