TITL C-2847953-8112-536 0.00191323869946786 125000 -127.278233493336 0 0 28 (C1) n - 1
REM
REM in /home/bkarasulu/work/CARBON/AIRSS/Generating-Clusters/AIREBO/with-SteepDescent/Only-C1/SD-CG-opt/Try1-1.4A-POS3A/HFTN-CG
REM
REM
REM
REM
REM
REM ./C.cell (11c1c37f851c82e70ff6c80c92926a4b)
REM
REM compiler GCC version 9.2.1 20190827 (Red Hat 9.2.1-1)
REM options -cpp -mtune=generic -march=x86-64 -g -O0 -fpre-include=/usr/include/finclude/math-vector-fortran.h
REM seed -629911097 570708082 2005813287 -242404719 -1175940847 1139507863 672307464 1142275704 -948863983 -918189561 549578515 -1374832877 1975858543 1413904004 -213221001 1751236949 -2105075383 441325630 -378966238 1446560718 -771068750 -528342841 -1482744726 757461173 720756327 -394024564 629623106 1371406278 1439767353 -1505110525 1127537402 -1740434759 1622170239
REM
CELL 1.54180   50.00000   50.00000   50.00000   90.00000   90.00000   90.00000
LATT -1
SFAC C  
C      1  0.4898620000000  0.4866650000000  0.4359100000000 1.0
C      1  0.5296430000000  0.4910310000000  0.4922200000000 1.0
C      1  0.5008420000000  0.5193890000000  0.5111600000000 1.0
C      1  0.4899500000000  0.4633800000000  0.5137920000000 1.0
C      1  0.5315860000000  0.4634020000000  0.4482730000000 1.0
C      1  0.5317450000000  0.4581970000000  0.5448660000000 1.0
C      1  0.4866940000000  0.4926230000000  0.5592660000000 1.0
C      1  0.4817170000000  0.5158450000000  0.5458820000000 1.0
C      1  0.4415780000000  0.5153620000000  0.5152000000000 1.0
C      1  0.5077310000000  0.5070390000000  0.4491360000000 1.0
C      1  0.5327610000000  0.5110900000000  0.5195160000000 1.0
C      1  0.4606570000000  0.5374550000000  0.4608400000000 1.0
C      1  0.5227640000000  0.4725190000000  0.5172570000000 1.0
C      1  0.5371980000000  0.5243220000000  0.4885000000000 1.0
C      1  0.5266110000000  0.5406330000000  0.5351850000000 1.0
C      1  0.4802660000000  0.4880530000000  0.4964220000000 1.0
C      1  0.4961700000000  0.5397330000000  0.5452060000000 1.0
C      1  0.5041600000000  0.4528420000000  0.4879070000000 1.0
C      1  0.4796990000000  0.4748880000000  0.4652260000000 1.0
C      1  0.4996840000000  0.4695160000000  0.5450200000000 1.0
C      1  0.4588630000000  0.4532270000000  0.4624510000000 1.0
C      1  0.4684490000000  0.5112770000000  0.4773320000000 1.0
C      1  0.5135480000000  0.4778320000000  0.4668360000000 1.0
C      1  0.5522900000000  0.4983840000000  0.5363720000000 1.0
C      1  0.5112430000000  0.5423490000000  0.4843550000000 1.0
C      1  0.4935890000000  0.5292470000000  0.4640340000000 1.0
C      1  0.5021020000000  0.5532010000000  0.5145500000000 1.0
C      1  0.4685990000000  0.5104960000000  0.5172850000000 1.0
END
