TITL C-2847947-6848-105 -0.000637525003000017 125000 -684.144837331873 0 0 125 (C1) n - 1
REM
REM in /home/bkarasulu/work/CARBON/AIRSS/Generating-Clusters/AIREBO/with-SteepDescent/Only-C1/SD-CG-opt/Try1-1.4A-POS3A/HFTN-CG
REM
REM
REM
REM
REM
REM ./C.cell (11c1c37f851c82e70ff6c80c92926a4b)
REM
REM compiler GCC version 9.2.1 20190827 (Red Hat 9.2.1-1)
REM options -cpp -mtune=generic -march=x86-64 -g -O0 -fpre-include=/usr/include/finclude/math-vector-fortran.h
REM seed 1884778580 -329305854 -1041128600 -698255055 975422790 -315663361 -934618364 954000246 1621105608 -1719741884 -1846429629 -1352718160 -803200586 546006891 -1098049913 -1098590744 -789038831 -1116424633 -383524539 -1024721206 1940358121 2104773299 1665593016 -410567335 -546331086 1319566458 -1206046074 -1498867979 -1814741443 -1479414696 -2047626863 154384257 1989302583
REM
CELL 1.54180   50.00000   50.00000   50.00000   90.00000   90.00000   90.00000
LATT -1
SFAC C  
C      1  0.4369510000000  0.5667350000000  0.5137510000000 1.0
C      1  0.5217410000000  0.5238180000000  0.4160510000000 1.0
C      1  0.4991530000000  0.5697050000000  0.5597580000000 1.0
C      1  0.4301990000000  0.5159770000000  0.4313680000000 1.0
C      1  0.4894030000000  0.5144970000000  0.4209750000000 1.0
C      1  0.4541390000000  0.5965660000000  0.5117090000000 1.0
C      1  0.5255420000000  0.5146080000000  0.4484880000000 1.0
C      1  0.4492990000000  0.4108060000000  0.5315810000000 1.0
C      1  0.5343800000000  0.5393430000000  0.5656260000000 1.0
C      1  0.4896890000000  0.5220640000000  0.5361040000000 1.0
C      1  0.5172620000000  0.4984250000000  0.3973800000000 1.0
C      1  0.4411130000000  0.4582090000000  0.5863060000000 1.0
C      1  0.5353480000000  0.4943410000000  0.5410210000000 1.0
C      1  0.4933510000000  0.5673350000000  0.5872530000000 1.0
C      1  0.4918310000000  0.4685930000000  0.5254410000000 1.0
C      1  0.5152900000000  0.4925350000000  0.5931210000000 1.0
C      1  0.4127720000000  0.5291580000000  0.4165590000000 1.0
C      1  0.5628790000000  0.5662850000000  0.4444260000000 1.0
C      1  0.5123730000000  0.4947130000000  0.5178480000000 1.0
C      1  0.5127040000000  0.4458740000000  0.5318540000000 1.0
C      1  0.5285010000000  0.4493350000000  0.5591900000000 1.0
C      1  0.5307690000000  0.4741920000000  0.4986610000000 1.0
C      1  0.5145480000000  0.5284960000000  0.5145410000000 1.0
C      1  0.4775670000000  0.5368140000000  0.4816310000000 1.0
C      1  0.4706630000000  0.5265030000000  0.5845500000000 1.0
C      1  0.5567190000000  0.4451960000000  0.4675840000000 1.0
C      1  0.4443720000000  0.4199350000000  0.4553330000000 1.0
C      1  0.5441750000000  0.5446700000000  0.4308940000000 1.0
C      1  0.4890870000000  0.4982820000000  0.4490480000000 1.0
C      1  0.4507050000000  0.5478290000000  0.5335280000000 1.0
C      1  0.5670750000000  0.5800440000000  0.4739580000000 1.0
C      1  0.5436270000000  0.5807820000000  0.4986000000000 1.0
C      1  0.5858050000000  0.5537750000000  0.4630060000000 1.0
C      1  0.4609790000000  0.5113600000000  0.5287520000000 1.0
C      1  0.4835550000000  0.4897520000000  0.3983780000000 1.0
C      1  0.4980020000000  0.5794690000000  0.4544220000000 1.0
C      1  0.4283460000000  0.4272010000000  0.5124070000000 1.0
C      1  0.5842500000000  0.5114480000000  0.5352550000000 1.0
C      1  0.5581390000000  0.4248600000000  0.4948040000000 1.0
C      1  0.4935310000000  0.5398660000000  0.5940850000000 1.0
C      1  0.5875980000000  0.4888030000000  0.5247470000000 1.0
C      1  0.4704460000000  0.5740620000000  0.4937130000000 1.0
C      1  0.6074630000000  0.5033990000000  0.4701400000000 1.0
C      1  0.4433300000000  0.4561570000000  0.4901310000000 1.0
C      1  0.5344380000000  0.4617660000000  0.4277280000000 1.0
C      1  0.4739850000000  0.4827520000000  0.4834790000000 1.0
C      1  0.5729770000000  0.5191130000000  0.4946560000000 1.0
C      1  0.4563660000000  0.4804580000000  0.5729160000000 1.0
C      1  0.4115710000000  0.5156560000000  0.5274330000000 1.0
C      1  0.4369530000000  0.4240500000000  0.4815750000000 1.0
C      1  0.4400600000000  0.5739020000000  0.4806520000000 1.0
C      1  0.4758710000000  0.4545350000000  0.4986520000000 1.0
C      1  0.4817900000000  0.5093020000000  0.5628450000000 1.0
C      1  0.4172360000000  0.5135360000000  0.4987250000000 1.0
C      1  0.5123240000000  0.4132500000000  0.5247790000000 1.0
C      1  0.4215660000000  0.4825590000000  0.4895610000000 1.0
C      1  0.5099180000000  0.5590080000000  0.5001280000000 1.0
C      1  0.5544020000000  0.5206500000000  0.5486970000000 1.0
C      1  0.5541600000000  0.4294890000000  0.5490000000000 1.0
C      1  0.6024660000000  0.4757480000000  0.4817340000000 1.0
C      1  0.5130670000000  0.5617840000000  0.4702570000000 1.0
C      1  0.5350880000000  0.4333290000000  0.4459780000000 1.0
C      1  0.4886890000000  0.4343270000000  0.4744930000000 1.0
C      1  0.5622820000000  0.4701090000000  0.5118560000000 1.0
C      1  0.5723630000000  0.4528560000000  0.5627140000000 1.0
C      1  0.4211290000000  0.4603640000000  0.5153240000000 1.0
C      1  0.4417990000000  0.4780130000000  0.4280360000000 1.0
C      1  0.5928840000000  0.5291170000000  0.4752370000000 1.0
C      1  0.4556000000000  0.5012530000000  0.4987330000000 1.0
C      1  0.5488560000000  0.5492170000000  0.4906690000000 1.0
C      1  0.5397620000000  0.4864580000000  0.4479590000000 1.0
C      1  0.4849350000000  0.4372810000000  0.4192360000000 1.0
C      1  0.5510600000000  0.4752850000000  0.4738270000000 1.0
C      1  0.5479190000000  0.5275630000000  0.5160400000000 1.0
C      1  0.4680770000000  0.4275220000000  0.5124210000000 1.0
C      1  0.4292660000000  0.4063150000000  0.4369920000000 1.0
C      1  0.5686500000000  0.5764320000000  0.5293770000000 1.0
C      1  0.5097930000000  0.4774850000000  0.4545570000000 1.0
C      1  0.4720390000000  0.4283400000000  0.4482670000000 1.0
C      1  0.5098760000000  0.4593470000000  0.4782200000000 1.0
C      1  0.4506280000000  0.5244520000000  0.4802790000000 1.0
C      1  0.4277740000000  0.4818280000000  0.4574520000000 1.0
C      1  0.4614980000000  0.4849030000000  0.4548040000000 1.0
C      1  0.5136140000000  0.4877660000000  0.6208950000000 1.0
C      1  0.5045670000000  0.4225230000000  0.4398740000000 1.0
C      1  0.4573770000000  0.5041650000000  0.4160200000000 1.0
C      1  0.5262790000000  0.5645050000000  0.5545240000000 1.0
C      1  0.5377260000000  0.5818330000000  0.5320790000000 1.0
C      1  0.4860520000000  0.6027230000000  0.4995100000000 1.0
C      1  0.4910510000000  0.4583060000000  0.4043130000000 1.0
C      1  0.4261500000000  0.5450290000000  0.4894130000000 1.0
C      1  0.5362470000000  0.5429380000000  0.4628590000000 1.0
C      1  0.5797780000000  0.4513880000000  0.4894950000000 1.0
C      1  0.4437540000000  0.4824230000000  0.5228030000000 1.0
C      1  0.5733210000000  0.5580260000000  0.5126220000000 1.0
C      1  0.5201700000000  0.4357290000000  0.5002690000000 1.0
C      1  0.4209380000000  0.5131450000000  0.5947320000000 1.0
C      1  0.4542450000000  0.5970580000000  0.4625850000000 1.0
C      1  0.5181860000000  0.4698130000000  0.4062080000000 1.0
C      1  0.4798400000000  0.5463800000000  0.4193740000000 1.0
C      1  0.5344110000000  0.4730620000000  0.5791080000000 1.0
C      1  0.4435290000000  0.5105870000000  0.5742750000000 1.0
C      1  0.4156750000000  0.4201770000000  0.6121290000000 1.0
C      1  0.5736560000000  0.4907560000000  0.4873500000000 1.0
C      1  0.4667700000000  0.4746270000000  0.5433000000000 1.0
C      1  0.5504870000000  0.4682550000000  0.5414520000000 1.0
C      1  0.5621690000000  0.4773820000000  0.5785390000000 1.0
C      1  0.5129450000000  0.5900090000000  0.5103060000000 1.0
C      1  0.5001340000000  0.5215180000000  0.4693580000000 1.0
C      1  0.5545100000000  0.5408520000000  0.4009970000000 1.0
C      1  0.5462510000000  0.4176300000000  0.5242280000000 1.0
C      1  0.5026420000000  0.4085130000000  0.4772210000000 1.0
C      1  0.4821530000000  0.6000940000000  0.4661180000000 1.0
C      1  0.5317880000000  0.4157870000000  0.4752840000000 1.0
C      1  0.5692000000000  0.5044970000000  0.5747060000000 1.0
C      1  0.4993390000000  0.4971070000000  0.4876590000000 1.0
C      1  0.5183610000000  0.5256660000000  0.5860930000000 1.0
C      1  0.4354480000000  0.5215700000000  0.5458160000000 1.0
C      1  0.4901370000000  0.5693300000000  0.4293760000000 1.0
C      1  0.4283150000000  0.4398630000000  0.6003140000000 1.0
C      1  0.4806720000000  0.5506960000000  0.5100410000000 1.0
C      1  0.4241980000000  0.5143520000000  0.4640000000000 1.0
C      1  0.4827750000000  0.4048530000000  0.5268860000000 1.0
C      1  0.4813370000000  0.5539960000000  0.5422760000000 1.0
C      1  0.4900210000000  0.4838990000000  0.5763270000000 1.0
END
