TITL C-2848503-6230-315 0.00316026636368112 125000 -1060.61993034537 0 0 197 (C1) n - 1
REM
REM in /home/bkarasulu/work/CARBON/AIRSS/Generating-Clusters/AIREBO/with-SteepDescent/Only-C1/SD-CG-opt/Try1-1.4A-POS3A/HFTN-CG
REM
REM
REM
REM
REM
REM ./C.cell (11c1c37f851c82e70ff6c80c92926a4b)
REM
REM compiler GCC version 9.2.1 20190827 (Red Hat 9.2.1-1)
REM options -cpp -mtune=generic -march=x86-64 -g -O0 -fpre-include=/usr/include/finclude/math-vector-fortran.h
REM seed -718152688 350354008 1668913807 -237654606 -363508745 -2133889993 1359164462 -600456026 631474489 -1893812257 1125986918 -1407747679 -841354438 -105107017 2066624200 -912515722 556524928 1971055559 548412578 -442608545 813061650 -1473071630 1575479108 781093471 786809862 -1564324370 -352788341 -559955984 -911120538 741469477 1181134012 -310728969 263316026
REM
CELL 1.54180   50.00000   50.00000   50.00000   90.00000   90.00000   90.00000
LATT -1
SFAC C  
C      1  0.5178070000000  0.4420280000000  0.5415870000000 1.0
C      1  0.4785470000000  0.4155230000000  0.5840700000000 1.0
C      1  0.4402450000000  0.5542490000000  0.5626820000000 1.0
C      1  0.4862870000000  0.5214650000000  0.5928550000000 1.0
C      1  0.4392290000000  0.4702340000000  0.4882080000000 1.0
C      1  0.4369900000000  0.5261550000000  0.4808440000000 1.0
C      1  0.4664150000000  0.4408060000000  0.5946130000000 1.0
C      1  0.5353040000000  0.4998190000000  0.4935510000000 1.0
C      1  0.5618660000000  0.5258120000000  0.4073760000000 1.0
C      1  0.5728580000000  0.5517420000000  0.5879420000000 1.0
C      1  0.4905930000000  0.4521490000000  0.4480800000000 1.0
C      1  0.4823590000000  0.5228620000000  0.4845120000000 1.0
C      1  0.5127580000000  0.4966840000000  0.4610680000000 1.0
C      1  0.5590580000000  0.4677410000000  0.4779420000000 1.0
C      1  0.4101380000000  0.4316300000000  0.5468950000000 1.0
C      1  0.5657540000000  0.5985860000000  0.5055750000000 1.0
C      1  0.5014050000000  0.4056450000000  0.5622650000000 1.0
C      1  0.5530470000000  0.4109310000000  0.5465430000000 1.0
C      1  0.6040410000000  0.5150600000000  0.5218300000000 1.0
C      1  0.4917680000000  0.5845910000000  0.5191730000000 1.0
C      1  0.4280480000000  0.4945100000000  0.5952520000000 1.0
C      1  0.5097840000000  0.5099420000000  0.6089880000000 1.0
C      1  0.4719470000000  0.5620550000000  0.3808370000000 1.0
C      1  0.4642260000000  0.5071230000000  0.4031860000000 1.0
C      1  0.4495400000000  0.4781140000000  0.4567710000000 1.0
C      1  0.5100890000000  0.3848550000000  0.4695550000000 1.0
C      1  0.5875950000000  0.5562380000000  0.4944180000000 1.0
C      1  0.5375010000000  0.5048420000000  0.5809950000000 1.0
C      1  0.4233320000000  0.4068260000000  0.4819420000000 1.0
C      1  0.4128390000000  0.4562120000000  0.4342280000000 1.0
C      1  0.4448900000000  0.5554440000000  0.5303640000000 1.0
C      1  0.5477060000000  0.5761540000000  0.4637940000000 1.0
C      1  0.5380340000000  0.4877640000000  0.5544580000000 1.0
C      1  0.5655280000000  0.4076990000000  0.4896080000000 1.0
C      1  0.5017550000000  0.5244000000000  0.4312750000000 1.0
C      1  0.5441100000000  0.3881070000000  0.5059710000000 1.0
C      1  0.5036870000000  0.5764480000000  0.4771590000000 1.0
C      1  0.5578460000000  0.3987970000000  0.4585400000000 1.0
C      1  0.4503250000000  0.4662790000000  0.4254130000000 1.0
C      1  0.5318070000000  0.4499930000000  0.4764910000000 1.0
C      1  0.5619260000000  0.5226470000000  0.5965800000000 1.0
C      1  0.4815330000000  0.4323210000000  0.5546590000000 1.0
C      1  0.4174440000000  0.4741480000000  0.5247250000000 1.0
C      1  0.5336510000000  0.5397460000000  0.4940480000000 1.0
C      1  0.5182310000000  0.4822510000000  0.5979760000000 1.0
C      1  0.6025910000000  0.4343370000000  0.4633420000000 1.0
C      1  0.5120670000000  0.5245050000000  0.4726270000000 1.0
C      1  0.4680180000000  0.5417980000000  0.6112260000000 1.0
C      1  0.5710040000000  0.4942620000000  0.4752940000000 1.0
C      1  0.4421000000000  0.4391670000000  0.4380480000000 1.0
C      1  0.5094770000000  0.4986650000000  0.5157900000000 1.0
C      1  0.5455310000000  0.5133410000000  0.4344750000000 1.0
C      1  0.4386500000000  0.5474890000000  0.4233290000000 1.0
C      1  0.5191120000000  0.4351430000000  0.4538930000000 1.0
C      1  0.6135770000000  0.4586650000000  0.5546420000000 1.0
C      1  0.5267610000000  0.4714760000000  0.5271360000000 1.0
C      1  0.4045980000000  0.5340030000000  0.4532240000000 1.0
C      1  0.5422460000000  0.4213830000000  0.4400510000000 1.0
C      1  0.4009230000000  0.5206910000000  0.4972040000000 1.0
C      1  0.4603780000000  0.5781690000000  0.5651180000000 1.0
C      1  0.4165630000000  0.5679550000000  0.4880740000000 1.0
C      1  0.4999470000000  0.4308990000000  0.3747430000000 1.0
C      1  0.5476520000000  0.4671280000000  0.6005700000000 1.0
C      1  0.5377430000000  0.5915730000000  0.4911890000000 1.0
C      1  0.4526240000000  0.4195660000000  0.4733770000000 1.0
C      1  0.4832560000000  0.4801810000000  0.5627880000000 1.0
C      1  0.4759190000000  0.5556190000000  0.5273320000000 1.0
C      1  0.5518600000000  0.5527280000000  0.5178640000000 1.0
C      1  0.5246920000000  0.5565670000000  0.5962980000000 1.0
C      1  0.5346550000000  0.5374330000000  0.5715270000000 1.0
C      1  0.5063500000000  0.5524930000000  0.4590060000000 1.0
C      1  0.4488950000000  0.5015190000000  0.5693020000000 1.0
C      1  0.4015030000000  0.4812890000000  0.4416370000000 1.0
C      1  0.5830810000000  0.5021460000000  0.5796010000000 1.0
C      1  0.5488520000000  0.4399920000000  0.5925700000000 1.0
C      1  0.4612080000000  0.4860490000000  0.5969970000000 1.0
C      1  0.4849890000000  0.3913950000000  0.5208250000000 1.0
C      1  0.4091510000000  0.4981930000000  0.5713630000000 1.0
C      1  0.4968320000000  0.4136780000000  0.4676510000000 1.0
C      1  0.4974860000000  0.5577400000000  0.6053620000000 1.0
C      1  0.4114390000000  0.4164720000000  0.5042380000000 1.0
C      1  0.5636460000000  0.5163420000000  0.3827880000000 1.0
C      1  0.4842050000000  0.6160350000000  0.4797500000000 1.0
C      1  0.4304950000000  0.4216910000000  0.5270380000000 1.0
C      1  0.5995790000000  0.5079990000000  0.4738040000000 1.0
C      1  0.5055180000000  0.4438330000000  0.5732540000000 1.0
C      1  0.5839260000000  0.5797770000000  0.5142890000000 1.0
C      1  0.4863360000000  0.4742630000000  0.5209130000000 1.0
C      1  0.5354800000000  0.3974840000000  0.5300280000000 1.0
C      1  0.4430280000000  0.4488250000000  0.5804160000000 1.0
C      1  0.5625580000000  0.4890140000000  0.3789800000000 1.0
C      1  0.4723290000000  0.4244180000000  0.4461400000000 1.0
C      1  0.4690510000000  0.4524950000000  0.5377320000000 1.0
C      1  0.5781080000000  0.5318500000000  0.5122790000000 1.0
C      1  0.4886030000000  0.4664660000000  0.5921720000000 1.0
C      1  0.4724660000000  0.4997570000000  0.5371680000000 1.0
C      1  0.4527000000000  0.4362270000000  0.5197310000000 1.0
C      1  0.5052060000000  0.4598890000000  0.4201610000000 1.0
C      1  0.4163440000000  0.5670710000000  0.4091520000000 1.0
C      1  0.3819090000000  0.4616190000000  0.4950490000000 1.0
C      1  0.4721100000000  0.5954970000000  0.5446920000000 1.0
C      1  0.5587960000000  0.4735340000000  0.4015260000000 1.0
C      1  0.4308230000000  0.4091770000000  0.4494240000000 1.0
C      1  0.4916530000000  0.5770520000000  0.3873860000000 1.0
C      1  0.4864860000000  0.5494910000000  0.4157260000000 1.0
C      1  0.4562430000000  0.5323070000000  0.5807670000000 1.0
C      1  0.4167530000000  0.4504810000000  0.5666940000000 1.0
C      1  0.6010010000000  0.4882290000000  0.5542670000000 1.0
C      1  0.5048300000000  0.5779930000000  0.4185020000000 1.0
C      1  0.5341450000000  0.5232230000000  0.6161930000000 1.0
C      1  0.5240330000000  0.5739430000000  0.5171630000000 1.0
C      1  0.5942920000000  0.4067120000000  0.4979850000000 1.0
C      1  0.5008330000000  0.6002630000000  0.4390890000000 1.0
C      1  0.5559660000000  0.5445130000000  0.4731090000000 1.0
C      1  0.3924170000000  0.4783220000000  0.4683210000000 1.0
C      1  0.6032320000000  0.4714170000000  0.5247990000000 1.0
C      1  0.4209520000000  0.4989000000000  0.4889230000000 1.0
C      1  0.4351430000000  0.5763050000000  0.4674950000000 1.0
C      1  0.4910240000000  0.5272920000000  0.5160650000000 1.0
C      1  0.5741440000000  0.4772510000000  0.4269330000000 1.0
C      1  0.4608980000000  0.5377730000000  0.4019600000000 1.0
C      1  0.5614860000000  0.5056380000000  0.5126110000000 1.0
C      1  0.5945920000000  0.5375620000000  0.4659950000000 1.0
C      1  0.5735580000000  0.4282440000000  0.4514000000000 1.0
C      1  0.4660950000000  0.5507000000000  0.4839960000000 1.0
C      1  0.4113240000000  0.4761360000000  0.5541040000000 1.0
C      1  0.4181560000000  0.5082890000000  0.4345100000000 1.0
C      1  0.4734810000000  0.4917050000000  0.4947100000000 1.0
C      1  0.5424670000000  0.4275520000000  0.4973040000000 1.0
C      1  0.6023860000000  0.4802580000000  0.4549590000000 1.0
C      1  0.4426710000000  0.4946100000000  0.4153260000000 1.0
C      1  0.5587880000000  0.4568310000000  0.4477890000000 1.0
C      1  0.4781310000000  0.5524880000000  0.4460630000000 1.0
C      1  0.5229510000000  0.5522890000000  0.4310260000000 1.0
C      1  0.5799040000000  0.5676870000000  0.4644900000000 1.0
C      1  0.4461310000000  0.5481890000000  0.4565790000000 1.0
C      1  0.5077980000000  0.4968950000000  0.5556000000000 1.0
C      1  0.4376430000000  0.6025010000000  0.5171600000000 1.0
C      1  0.4904590000000  0.4376060000000  0.3998980000000 1.0
C      1  0.4008920000000  0.5430610000000  0.4794530000000 1.0
C      1  0.5870510000000  0.5739290000000  0.5418440000000 1.0
C      1  0.5524890000000  0.4574630000000  0.5098640000000 1.0
C      1  0.5743090000000  0.5307540000000  0.4395080000000 1.0
C      1  0.6124660000000  0.4601370000000  0.4720600000000 1.0
C      1  0.5054450000000  0.4128260000000  0.5292660000000 1.0
C      1  0.5101350000000  0.6357760000000  0.5230280000000 1.0
C      1  0.4354690000000  0.5301680000000  0.5146330000000 1.0
C      1  0.4531530000000  0.4692480000000  0.5594520000000 1.0
C      1  0.4590340000000  0.5975070000000  0.4663120000000 1.0
C      1  0.5231530000000  0.4282470000000  0.5928580000000 1.0
C      1  0.4112140000000  0.4535300000000  0.4801320000000 1.0
C      1  0.5747520000000  0.4794540000000  0.5179560000000 1.0
C      1  0.4792580000000  0.5680750000000  0.5847200000000 1.0
C      1  0.5736880000000  0.5581280000000  0.5610310000000 1.0
C      1  0.5047810000000  0.5520170000000  0.5001090000000 1.0
C      1  0.4876850000000  0.5217860000000  0.5588820000000 1.0
C      1  0.5368770000000  0.5105670000000  0.5320300000000 1.0
C      1  0.4483650000000  0.4860500000000  0.5169450000000 1.0
C      1  0.5142710000000  0.4747820000000  0.4841630000000 1.0
C      1  0.4028970000000  0.5226740000000  0.5594030000000 1.0
C      1  0.5148950000000  0.6048200000000  0.4697140000000 1.0
C      1  0.5539200000000  0.5577400000000  0.4358770000000 1.0
C      1  0.6141090000000  0.5006890000000  0.4998190000000 1.0
C      1  0.4078760000000  0.4331710000000  0.4562060000000 1.0
C      1  0.4929380000000  0.4484910000000  0.4878410000000 1.0
C      1  0.5697730000000  0.4824600000000  0.6007630000000 1.0
C      1  0.4595630000000  0.4430400000000  0.4915170000000 1.0
C      1  0.4456970000000  0.5083880000000  0.4544510000000 1.0
C      1  0.4705730000000  0.4638820000000  0.4026450000000 1.0
C      1  0.4984750000000  0.6166650000000  0.5100970000000 1.0
C      1  0.4744370000000  0.5194840000000  0.4516980000000 1.0
C      1  0.5500810000000  0.5146190000000  0.4667300000000 1.0
C      1  0.5183240000000  0.4965580000000  0.4285500000000 1.0
C      1  0.4002940000000  0.4458500000000  0.5175890000000 1.0
C      1  0.4919090000000  0.5554070000000  0.5558050000000 1.0
C      1  0.4607760000000  0.6069850000000  0.5043310000000 1.0
C      1  0.4262210000000  0.5762100000000  0.5143980000000 1.0
C      1  0.5518160000000  0.4434980000000  0.5408570000000 1.0
C      1  0.4066640000000  0.5364940000000  0.4193750000000 1.0
C      1  0.5825800000000  0.5148820000000  0.5482060000000 1.0
C      1  0.4336960000000  0.5070660000000  0.5393250000000 1.0
C      1  0.4744280000000  0.5791090000000  0.4904300000000 1.0
C      1  0.4050980000000  0.5217870000000  0.5282940000000 1.0
C      1  0.4928550000000  0.4888830000000  0.4073530000000 1.0
C      1  0.5628690000000  0.4317660000000  0.5696290000000 1.0
C      1  0.5357440000000  0.4673340000000  0.4248990000000 1.0
C      1  0.4108280000000  0.5467830000000  0.5692890000000 1.0
C      1  0.4770520000000  0.4718000000000  0.4701990000000 1.0
C      1  0.5105280000000  0.4233680000000  0.4973190000000 1.0
C      1  0.4813010000000  0.4142000000000  0.4189230000000 1.0
C      1  0.5361700000000  0.3837930000000  0.4773940000000 1.0
C      1  0.6195110000000  0.4709700000000  0.4979340000000 1.0
C      1  0.5221180000000  0.5536930000000  0.5444250000000 1.0
C      1  0.4745590000000  0.6098750000000  0.4414270000000 1.0
C      1  0.5568740000000  0.5342700000000  0.5459750000000 1.0
C      1  0.5004780000000  0.5882800000000  0.5577660000000 1.0
C      1  0.5907300000000  0.5012610000000  0.4353600000000 1.0
END
