TITL C-2848498-1409-604 0.0187077081797601 125000 -134.021495502268 0 0 25 (C1) n - 1
REM
REM in /home/bkarasulu/work/CARBON/AIRSS/Generating-Clusters/AIREBO/with-SteepDescent/Only-C1/SD-CG-opt/Try1-1.4A-POS3A/HFTN-CG
REM
REM
REM
REM
REM
REM ./C.cell (11c1c37f851c82e70ff6c80c92926a4b)
REM
REM compiler GCC version 9.2.1 20190827 (Red Hat 9.2.1-1)
REM options -cpp -mtune=generic -march=x86-64 -g -O0 -fpre-include=/usr/include/finclude/math-vector-fortran.h
REM seed -839976833 1474315145 -945513340 -1957277998 1015495005 -1599290075 -1641369557 153189597 1235551235 1116372349 30255102 -768644707 1456420269 323389841 1250650369 1599398218 1547211922 422430991 520946131 2067124741 1614817128 2045183585 1678229192 866056693 -2010416339 -2009479474 336189369 321033600 1691330041 1992135310 334155819 1379932163 -1597228731
REM
CELL 1.54180   50.00000   50.00000   50.00000   90.00000   90.00000   90.00000
LATT -1
SFAC C  
C      1  0.5197830000000  0.5337140000000  0.4660330000000 1.0
C      1  0.4282210000000  0.5245930000000  0.4908990000000 1.0
C      1  0.5146370000000  0.4490340000000  0.5369850000000 1.0
C      1  0.4539710000000  0.5169460000000  0.4857390000000 1.0
C      1  0.5591010000000  0.5087710000000  0.4887870000000 1.0
C      1  0.4967990000000  0.4979320000000  0.4920060000000 1.0
C      1  0.5122970000000  0.4764580000000  0.5335870000000 1.0
C      1  0.5444120000000  0.4862040000000  0.4972460000000 1.0
C      1  0.4041460000000  0.5337880000000  0.4976350000000 1.0
C      1  0.5590970000000  0.4620920000000  0.4966110000000 1.0
C      1  0.5855710000000  0.5153470000000  0.4916470000000 1.0
C      1  0.5855440000000  0.4567300000000  0.5014720000000 1.0
C      1  0.3558790000000  0.5489150000000  0.5127340000000 1.0
C      1  0.5180850000000  0.4873250000000  0.5062160000000 1.0
C      1  0.3792990000000  0.5404690000000  0.5045350000000 1.0
C      1  0.6077750000000  0.4719480000000  0.4959340000000 1.0
C      1  0.4881950000000  0.4949890000000  0.5468030000000 1.0
C      1  0.4999880000000  0.5134990000000  0.4648150000000 1.0
C      1  0.5028300000000  0.4961630000000  0.4426720000000 1.0
C      1  0.5159070000000  0.4965000000000  0.5610370000000 1.0
C      1  0.6077760000000  0.4991240000000  0.4913360000000 1.0
C      1  0.4669140000000  0.5003060000000  0.5320480000000 1.0
C      1  0.4707960000000  0.5261520000000  0.4666160000000 1.0
C      1  0.4668460000000  0.4941690000000  0.5014230000000 1.0
C      1  0.4561310000000  0.4688320000000  0.4951830000000 1.0
END
