TITL C-2848496-4490-670 0.000485793222196757 125000 -797.68608430576 0 0 151 (C1) n - 1
REM
REM in /home/bkarasulu/work/CARBON/AIRSS/Generating-Clusters/AIREBO/with-SteepDescent/Only-C1/SD-CG-opt/Try1-1.4A-POS3A/HFTN-CG
REM
REM
REM
REM
REM
REM ./C.cell (11c1c37f851c82e70ff6c80c92926a4b)
REM
REM compiler GCC version 9.2.1 20190827 (Red Hat 9.2.1-1)
REM options -cpp -mtune=generic -march=x86-64 -g -O0 -fpre-include=/usr/include/finclude/math-vector-fortran.h
REM seed 805834305 -2141665902 -1725128938 1730772887 420612590 1744466314 2044632279 790391013 -779954738 744674511 789364943 -1840560697 1828012337 1843027371 1895622738 699845453 708680970 -366940125 1810051688 988866773 -1084218192 -1230907880 -173200047 -1782623645 -1915474683 1541012247 -1318145435 652801322 1524773882 1423106975 -1446105726 1823607275 1105475296
REM
CELL 1.54180   50.00000   50.00000   50.00000   90.00000   90.00000   90.00000
LATT -1
SFAC C  
C      1  0.5127260000000  0.4356000000000  0.4668240000000 1.0
C      1  0.5934510000000  0.5190580000000  0.4985340000000 1.0
C      1  0.5570450000000  0.4583410000000  0.5245060000000 1.0
C      1  0.4717280000000  0.4610050000000  0.3896010000000 1.0
C      1  0.4648750000000  0.4998660000000  0.5816750000000 1.0
C      1  0.4227980000000  0.4710770000000  0.5218880000000 1.0
C      1  0.4860860000000  0.5140190000000  0.4070120000000 1.0
C      1  0.3919870000000  0.5240560000000  0.4562940000000 1.0
C      1  0.3980250000000  0.4790670000000  0.4718620000000 1.0
C      1  0.5959390000000  0.5316710000000  0.5269090000000 1.0
C      1  0.4682080000000  0.5442290000000  0.4693860000000 1.0
C      1  0.4173010000000  0.5647760000000  0.5277600000000 1.0
C      1  0.5040210000000  0.4110130000000  0.4338270000000 1.0
C      1  0.5486900000000  0.5400060000000  0.5936000000000 1.0
C      1  0.5541520000000  0.4550020000000  0.4932520000000 1.0
C      1  0.4496230000000  0.5183890000000  0.5687050000000 1.0
C      1  0.5215690000000  0.4766900000000  0.5078180000000 1.0
C      1  0.5300170000000  0.4735470000000  0.5384900000000 1.0
C      1  0.4969320000000  0.3722180000000  0.5699310000000 1.0
C      1  0.5319600000000  0.4966920000000  0.4625330000000 1.0
C      1  0.5370430000000  0.4917100000000  0.6121780000000 1.0
C      1  0.5569470000000  0.4243760000000  0.4503250000000 1.0
C      1  0.3991480000000  0.5555570000000  0.5544790000000 1.0
C      1  0.5587010000000  0.4702070000000  0.4119680000000 1.0
C      1  0.5210690000000  0.5766540000000  0.5097490000000 1.0
C      1  0.5084590000000  0.5176250000000  0.4678840000000 1.0
C      1  0.5383800000000  0.5411210000000  0.5678110000000 1.0
C      1  0.5015060000000  0.5895970000000  0.4724870000000 1.0
C      1  0.5560630000000  0.5171290000000  0.4613660000000 1.0
C      1  0.4495890000000  0.5849580000000  0.5681450000000 1.0
C      1  0.5127180000000  0.4131340000000  0.5439490000000 1.0
C      1  0.4595540000000  0.4328170000000  0.5017560000000 1.0
C      1  0.5667980000000  0.4990080000000  0.5683520000000 1.0
C      1  0.5355800000000  0.4338020000000  0.5493690000000 1.0
C      1  0.5085970000000  0.5445440000000  0.5342530000000 1.0
C      1  0.5051950000000  0.4643080000000  0.5821230000000 1.0
C      1  0.4364540000000  0.5438510000000  0.4308960000000 1.0
C      1  0.4853790000000  0.5329200000000  0.4463680000000 1.0
C      1  0.5625730000000  0.4716620000000  0.4439360000000 1.0
C      1  0.5078170000000  0.6074520000000  0.5315380000000 1.0
C      1  0.5038140000000  0.5904050000000  0.5541590000000 1.0
C      1  0.4475150000000  0.5121680000000  0.3975180000000 1.0
C      1  0.5219830000000  0.4672050000000  0.4640420000000 1.0
C      1  0.4240910000000  0.5158220000000  0.5118440000000 1.0
C      1  0.5110780000000  0.4832420000000  0.4089890000000 1.0
C      1  0.4684570000000  0.4088940000000  0.5190060000000 1.0
C      1  0.5990190000000  0.4473950000000  0.5469890000000 1.0
C      1  0.5337390000000  0.4513200000000  0.5768760000000 1.0
C      1  0.4690410000000  0.4265250000000  0.4703030000000 1.0
C      1  0.4754360000000  0.3852350000000  0.5588520000000 1.0
C      1  0.4047500000000  0.4273020000000  0.4754920000000 1.0
C      1  0.5404560000000  0.4844120000000  0.5798620000000 1.0
C      1  0.4950460000000  0.4953660000000  0.5062540000000 1.0
C      1  0.4877590000000  0.5279900000000  0.5000250000000 1.0
C      1  0.4375470000000  0.5465330000000  0.5176050000000 1.0
C      1  0.5113670000000  0.5816340000000  0.4176540000000 1.0
C      1  0.4613610000000  0.5289490000000  0.4226130000000 1.0
C      1  0.4428030000000  0.4598890000000  0.4884020000000 1.0
C      1  0.5816070000000  0.4353100000000  0.5292540000000 1.0
C      1  0.4696560000000  0.4620120000000  0.4429060000000 1.0
C      1  0.5118610000000  0.5094920000000  0.4282700000000 1.0
C      1  0.4278140000000  0.4810170000000  0.4284320000000 1.0
C      1  0.4908480000000  0.4737460000000  0.5527520000000 1.0
C      1  0.5239360000000  0.5709070000000  0.5600360000000 1.0
C      1  0.4823710000000  0.5518800000000  0.5835800000000 1.0
C      1  0.5382740000000  0.4753030000000  0.3987700000000 1.0
C      1  0.4950850000000  0.5057460000000  0.5849190000000 1.0
C      1  0.5452380000000  0.4940120000000  0.4939010000000 1.0
C      1  0.5201970000000  0.5342680000000  0.4934740000000 1.0
C      1  0.4284300000000  0.4929620000000  0.4031000000000 1.0
C      1  0.5448760000000  0.5557160000000  0.4549200000000 1.0
C      1  0.5553690000000  0.4187270000000  0.5285940000000 1.0
C      1  0.4014720000000  0.4676440000000  0.5368550000000 1.0
C      1  0.5156650000000  0.4959630000000  0.5596540000000 1.0
C      1  0.4285930000000  0.5691760000000  0.5656190000000 1.0
C      1  0.4087950000000  0.4683030000000  0.4429000000000 1.0
C      1  0.4935840000000  0.4087820000000  0.4659210000000 1.0
C      1  0.5187550000000  0.5771330000000  0.4506040000000 1.0
C      1  0.5571600000000  0.4923260000000  0.5257040000000 1.0
C      1  0.4898320000000  0.4477460000000  0.5044210000000 1.0
C      1  0.4758860000000  0.5823580000000  0.5589040000000 1.0
C      1  0.5459680000000  0.5922170000000  0.4925910000000 1.0
C      1  0.5914540000000  0.5094760000000  0.5474070000000 1.0
C      1  0.4760140000000  0.5767270000000  0.4909480000000 1.0
C      1  0.4924710000000  0.5585020000000  0.5090940000000 1.0
C      1  0.5011250000000  0.5553460000000  0.4325530000000 1.0
C      1  0.4297240000000  0.5703610000000  0.4273950000000 1.0
C      1  0.4612510000000  0.6296840000000  0.4773120000000 1.0
C      1  0.4499550000000  0.4604650000000  0.5259420000000 1.0
C      1  0.4239600000000  0.4879230000000  0.4923760000000 1.0
C      1  0.5660260000000  0.5651360000000  0.5527090000000 1.0
C      1  0.5768960000000  0.5506190000000  0.4651890000000 1.0
C      1  0.5875860000000  0.4765770000000  0.5562290000000 1.0
C      1  0.5216240000000  0.4445000000000  0.4968650000000 1.0
C      1  0.5116100000000  0.4388150000000  0.4248380000000 1.0
C      1  0.3948360000000  0.4030610000000  0.4745030000000 1.0
C      1  0.4256150000000  0.5359870000000  0.5625740000000 1.0
C      1  0.4798860000000  0.4474890000000  0.5355380000000 1.0
C      1  0.4986030000000  0.4041880000000  0.5176840000000 1.0
C      1  0.4592820000000  0.5350950000000  0.5412580000000 1.0
C      1  0.5035140000000  0.6049280000000  0.5027880000000 1.0
C      1  0.4762180000000  0.4532930000000  0.5867250000000 1.0
C      1  0.5336210000000  0.5602940000000  0.4832560000000 1.0
C      1  0.4793300000000  0.4168280000000  0.5502340000000 1.0
C      1  0.4837450000000  0.4877200000000  0.3913970000000 1.0
C      1  0.5129610000000  0.4056010000000  0.4936800000000 1.0
C      1  0.4271490000000  0.5601930000000  0.4706280000000 1.0
C      1  0.4487350000000  0.5593070000000  0.4921450000000 1.0
C      1  0.5617010000000  0.5221490000000  0.4919590000000 1.0
C      1  0.3814280000000  0.5042730000000  0.4676570000000 1.0
C      1  0.4388200000000  0.5069770000000  0.4684540000000 1.0
C      1  0.4580310000000  0.4742490000000  0.5907190000000 1.0
C      1  0.5880360000000  0.5511470000000  0.4973460000000 1.0
C      1  0.4233970000000  0.5807160000000  0.4525920000000 1.0
C      1  0.5673090000000  0.4760040000000  0.4753330000000 1.0
C      1  0.4728220000000  0.6071550000000  0.4780540000000 1.0
C      1  0.4515390000000  0.4902120000000  0.4455520000000 1.0
C      1  0.5301340000000  0.4126040000000  0.4508320000000 1.0
C      1  0.5664390000000  0.5678900000000  0.5136820000000 1.0
C      1  0.5931380000000  0.4459240000000  0.4806240000000 1.0
C      1  0.4577990000000  0.5205780000000  0.4885310000000 1.0
C      1  0.4711130000000  0.4852850000000  0.5274870000000 1.0
C      1  0.5663640000000  0.4275140000000  0.4786130000000 1.0
C      1  0.4928860000000  0.5337900000000  0.5971760000000 1.0
C      1  0.4076010000000  0.5270880000000  0.5364990000000 1.0
C      1  0.4746470000000  0.4597640000000  0.4764670000000 1.0
C      1  0.5857790000000  0.5234770000000  0.4467130000000 1.0
C      1  0.5412530000000  0.5281740000000  0.5180310000000 1.0
C      1  0.5374480000000  0.4500110000000  0.4390940000000 1.0
C      1  0.4713060000000  0.4282860000000  0.5790400000000 1.0
C      1  0.4569560000000  0.5117150000000  0.5195310000000 1.0
C      1  0.4218790000000  0.5312460000000  0.4571360000000 1.0
C      1  0.5997740000000  0.4770870000000  0.4739290000000 1.0
C      1  0.5423170000000  0.4177670000000  0.5005880000000 1.0
C      1  0.5562510000000  0.6150290000000  0.4869790000000 1.0
C      1  0.4833780000000  0.4990700000000  0.4437220000000 1.0
C      1  0.4888770000000  0.4592980000000  0.4189190000000 1.0
C      1  0.5393980000000  0.5589870000000  0.5322890000000 1.0
C      1  0.5336450000000  0.5281600000000  0.4382540000000 1.0
C      1  0.4138500000000  0.4517280000000  0.4789340000000 1.0
C      1  0.6109380000000  0.4981490000000  0.4922130000000 1.0
C      1  0.5092770000000  0.4858100000000  0.6047330000000 1.0
C      1  0.5066960000000  0.5139590000000  0.5322370000000 1.0
C      1  0.5903750000000  0.5607000000000  0.5359020000000 1.0
C      1  0.5431170000000  0.5132690000000  0.5485500000000 1.0
C      1  0.4499380000000  0.3750700000000  0.5581970000000 1.0
C      1  0.4949170000000  0.4868980000000  0.4733060000000 1.0
C      1  0.5893060000000  0.4918480000000  0.4464010000000 1.0
C      1  0.5613110000000  0.4546380000000  0.5580390000000 1.0
C      1  0.5622200000000  0.5343510000000  0.4259300000000 1.0
C      1  0.4821670000000  0.5520560000000  0.5505900000000 1.0
END
