TITL C-2847959-7740-336 -0.00160455832966284 125000 -462.017529862425 0 0 86 (C1) n - 1
REM
REM in /home/bkarasulu/work/CARBON/AIRSS/Generating-Clusters/AIREBO/with-SteepDescent/Only-C1/SD-CG-opt/Try1-1.4A-POS3A/HFTN-CG
REM
REM
REM
REM
REM
REM ./C.cell (11c1c37f851c82e70ff6c80c92926a4b)
REM
REM compiler GCC version 9.2.1 20190827 (Red Hat 9.2.1-1)
REM options -cpp -mtune=generic -march=x86-64 -g -O0 -fpre-include=/usr/include/finclude/math-vector-fortran.h
REM seed 1921807435 -1087673799 749817956 1158028823 -408299941 192021507 -415591839 2082408477 -92440962 -1967016217 158592134 -751387273 2060216669 878063661 -1792185932 -1611996291 -1337262433 1645112430 1674052014 -196830453 -2129722510 949803439 1087401897 -1098922141 -1928910237 1262170253 -842576909 -484232732 2085370248 -1507398593 796805682 260548073 -2197749
REM
CELL 1.54180   50.00000   50.00000   50.00000   90.00000   90.00000   90.00000
LATT -1
SFAC C  
C      1  0.4604340000000  0.4977830000000  0.5564880000000 1.0
C      1  0.5053110000000  0.5782350000000  0.5061590000000 1.0
C      1  0.4957980000000  0.5269610000000  0.4707870000000 1.0
C      1  0.4534610000000  0.5271250000000  0.5589860000000 1.0
C      1  0.5357400000000  0.4904730000000  0.5401660000000 1.0
C      1  0.4912800000000  0.4586320000000  0.5799450000000 1.0
C      1  0.4403890000000  0.5085640000000  0.4295140000000 1.0
C      1  0.4612290000000  0.4914230000000  0.4978110000000 1.0
C      1  0.4513230000000  0.4607370000000  0.4938200000000 1.0
C      1  0.5186320000000  0.4515720000000  0.5783890000000 1.0
C      1  0.5536400000000  0.5252410000000  0.4768030000000 1.0
C      1  0.4587280000000  0.4449140000000  0.5230950000000 1.0
C      1  0.5134910000000  0.5998640000000  0.4873460000000 1.0
C      1  0.4409920000000  0.5296470000000  0.4634480000000 1.0
C      1  0.4394250000000  0.4720150000000  0.5300970000000 1.0
C      1  0.4280530000000  0.5326210000000  0.5479550000000 1.0
C      1  0.4834230000000  0.4854550000000  0.4301500000000 1.0
C      1  0.4978590000000  0.5029820000000  0.5208670000000 1.0
C      1  0.5710470000000  0.5154310000000  0.4987010000000 1.0
C      1  0.4842720000000  0.5271680000000  0.5020530000000 1.0
C      1  0.4236800000000  0.4901720000000  0.5123800000000 1.0
C      1  0.4928530000000  0.5152380000000  0.4183320000000 1.0
C      1  0.5118890000000  0.5111510000000  0.4453480000000 1.0
C      1  0.5066090000000  0.4742370000000  0.5468000000000 1.0
C      1  0.4565740000000  0.5415280000000  0.4901670000000 1.0
C      1  0.5566440000000  0.4797660000000  0.4463800000000 1.0
C      1  0.5217190000000  0.6253470000000  0.4868020000000 1.0
C      1  0.5007310000000  0.5641930000000  0.5528390000000 1.0
C      1  0.4656370000000  0.4499400000000  0.4666660000000 1.0
C      1  0.4949540000000  0.4507770000000  0.4815910000000 1.0
C      1  0.4849070000000  0.4955430000000  0.4776880000000 1.0
C      1  0.4202030000000  0.5210710000000  0.5250010000000 1.0
C      1  0.5162550000000  0.5028120000000  0.5727150000000 1.0
C      1  0.5261470000000  0.5554620000000  0.5080090000000 1.0
C      1  0.4996980000000  0.4621480000000  0.4319350000000 1.0
C      1  0.4422880000000  0.5163040000000  0.5010950000000 1.0
C      1  0.5573810000000  0.4406670000000  0.4973690000000 1.0
C      1  0.4259640000000  0.4801280000000  0.4821110000000 1.0
C      1  0.5544170000000  0.4621400000000  0.5423310000000 1.0
C      1  0.5530170000000  0.5683090000000  0.5222400000000 1.0
C      1  0.4808020000000  0.5372040000000  0.5317250000000 1.0
C      1  0.5442030000000  0.4317520000000  0.5409780000000 1.0
C      1  0.5093150000000  0.5444350000000  0.4240430000000 1.0
C      1  0.5696120000000  0.5259760000000  0.5244060000000 1.0
C      1  0.5097400000000  0.5748080000000  0.4663610000000 1.0
C      1  0.5248600000000  0.4866170000000  0.5081740000000 1.0
C      1  0.5639230000000  0.5265620000000  0.4446120000000 1.0
C      1  0.5029900000000  0.4243030000000  0.5010580000000 1.0
C      1  0.5376470000000  0.4773180000000  0.5714870000000 1.0
C      1  0.4630920000000  0.5236200000000  0.4267080000000 1.0
C      1  0.4754960000000  0.5472840000000  0.5636750000000 1.0
C      1  0.5260540000000  0.5451880000000  0.5404330000000 1.0
C      1  0.4773680000000  0.4557000000000  0.5494110000000 1.0
C      1  0.4931480000000  0.5604540000000  0.4434520000000 1.0
C      1  0.5611170000000  0.4219970000000  0.5172980000000 1.0
C      1  0.5196580000000  0.4200380000000  0.4750040000000 1.0
C      1  0.5480830000000  0.5203070000000  0.5399290000000 1.0
C      1  0.5340380000000  0.5369320000000  0.4440420000000 1.0
C      1  0.4379720000000  0.4963840000000  0.4595790000000 1.0
C      1  0.4864870000000  0.4893800000000  0.5688830000000 1.0
C      1  0.4705830000000  0.5410220000000  0.4527520000000 1.0
C      1  0.5380290000000  0.5009920000000  0.4611180000000 1.0
C      1  0.4158550000000  0.5444530000000  0.4551200000000 1.0
C      1  0.4758640000000  0.4191820000000  0.5203160000000 1.0
C      1  0.5462900000000  0.4550560000000  0.4526750000000 1.0
C      1  0.4790750000000  0.5830740000000  0.4763650000000 1.0
C      1  0.5225480000000  0.4281550000000  0.5636320000000 1.0
C      1  0.4931180000000  0.4615240000000  0.5115320000000 1.0
C      1  0.4375670000000  0.4813390000000  0.5694090000000 1.0
C      1  0.4862750000000  0.4385310000000  0.4444820000000 1.0
C      1  0.5714640000000  0.5022650000000  0.4347170000000 1.0
C      1  0.4670770000000  0.5692670000000  0.4968410000000 1.0
C      1  0.5545870000000  0.4700770000000  0.5095870000000 1.0
C      1  0.5764620000000  0.4888100000000  0.4986240000000 1.0
C      1  0.5440020000000  0.4346510000000  0.4736650000000 1.0
C      1  0.5029390000000  0.4170450000000  0.4522380000000 1.0
C      1  0.5065160000000  0.4200780000000  0.5347540000000 1.0
C      1  0.5143330000000  0.4859060000000  0.4791480000000 1.0
C      1  0.5244670000000  0.5455500000000  0.4755180000000 1.0
C      1  0.5055470000000  0.5198300000000  0.5477100000000 1.0
C      1  0.4721440000000  0.4821220000000  0.5286420000000 1.0
C      1  0.5508970000000  0.5673320000000  0.5500120000000 1.0
C      1  0.4662100000000  0.4825670000000  0.4560810000000 1.0
C      1  0.5188330000000  0.4505980000000  0.5281950000000 1.0
C      1  0.4812590000000  0.5706490000000  0.5256110000000 1.0
C      1  0.5163570000000  0.4598890000000  0.4596180000000 1.0
END
