TITL C-2848495-5024-43 0.000921181927204 125000 -686.874257171683 0 0 126 (C1) n - 1
REM
REM in /home/bkarasulu/work/CARBON/AIRSS/Generating-Clusters/AIREBO/with-SteepDescent/Only-C1/SD-CG-opt/Try1-1.4A-POS3A/HFTN-CG
REM
REM
REM
REM
REM
REM ./C.cell (11c1c37f851c82e70ff6c80c92926a4b)
REM
REM compiler GCC version 9.2.1 20190827 (Red Hat 9.2.1-1)
REM options -cpp -mtune=generic -march=x86-64 -g -O0 -fpre-include=/usr/include/finclude/math-vector-fortran.h
REM seed -1225229338 1244676551 523034679 -251205152 373964245 -333638571 -476531702 509911242 2127746721 -394420134 646402341 888801668 -2017103853 -640427536 -1764611246 -1168557352 703063497 1785113548 1664786056 835986110 -1514340789 741364588 -264558317 1770770968 1533091156 -218049212 227649579 1855615686 1562250900 -757257648 1678376505 114085032 -841845455
REM
CELL 1.54180   50.00000   50.00000   50.00000   90.00000   90.00000   90.00000
LATT -1
SFAC C  
C      1  0.5502760000000  0.4651670000000  0.4299750000000 1.0
C      1  0.4816150000000  0.4773120000000  0.4708810000000 1.0
C      1  0.4762530000000  0.4961650000000  0.5726520000000 1.0
C      1  0.4959400000000  0.5245120000000  0.5113330000000 1.0
C      1  0.5658600000000  0.4809330000000  0.4486980000000 1.0
C      1  0.5265660000000  0.5764100000000  0.5167020000000 1.0
C      1  0.5228360000000  0.4256600000000  0.5342630000000 1.0
C      1  0.5777700000000  0.5187650000000  0.5266200000000 1.0
C      1  0.5282760000000  0.4634310000000  0.4632670000000 1.0
C      1  0.4401100000000  0.5715870000000  0.4364110000000 1.0
C      1  0.5184190000000  0.4761220000000  0.4253730000000 1.0
C      1  0.5320180000000  0.4764540000000  0.5365700000000 1.0
C      1  0.5400080000000  0.3968020000000  0.4964460000000 1.0
C      1  0.4339600000000  0.5484100000000  0.4514590000000 1.0
C      1  0.5347720000000  0.5073980000000  0.5057440000000 1.0
C      1  0.4528850000000  0.5014820000000  0.3976760000000 1.0
C      1  0.4717680000000  0.4280900000000  0.4709690000000 1.0
C      1  0.5203380000000  0.5441210000000  0.5090780000000 1.0
C      1  0.5162080000000  0.5678960000000  0.5479590000000 1.0
C      1  0.5506370000000  0.4829100000000  0.5849880000000 1.0
C      1  0.5593080000000  0.4386450000000  0.4677980000000 1.0
C      1  0.4171660000000  0.5220690000000  0.5059230000000 1.0
C      1  0.4973520000000  0.5856540000000  0.4737870000000 1.0
C      1  0.4857270000000  0.5084350000000  0.4839470000000 1.0
C      1  0.4666160000000  0.5052480000000  0.5439910000000 1.0
C      1  0.4979650000000  0.4725980000000  0.4983910000000 1.0
C      1  0.4846080000000  0.5797300000000  0.5449710000000 1.0
C      1  0.4224510000000  0.5166570000000  0.5611390000000 1.0
C      1  0.4818610000000  0.5103050000000  0.4369080000000 1.0
C      1  0.4415790000000  0.4232760000000  0.5065480000000 1.0
C      1  0.4923580000000  0.5390940000000  0.5877840000000 1.0
C      1  0.5181300000000  0.4371100000000  0.4682250000000 1.0
C      1  0.5206190000000  0.4807140000000  0.5860420000000 1.0
C      1  0.5494240000000  0.5108210000000  0.4687550000000 1.0
C      1  0.4872080000000  0.4010810000000  0.5407610000000 1.0
C      1  0.5245870000000  0.5510890000000  0.4248200000000 1.0
C      1  0.5317100000000  0.4765350000000  0.5025520000000 1.0
C      1  0.5094260000000  0.5178000000000  0.4523140000000 1.0
C      1  0.4372460000000  0.4730390000000  0.4947070000000 1.0
C      1  0.4438880000000  0.5834570000000  0.5176860000000 1.0
C      1  0.5126910000000  0.4436000000000  0.5613160000000 1.0
C      1  0.5069080000000  0.6036370000000  0.5220890000000 1.0
C      1  0.4767090000000  0.4807700000000  0.4219950000000 1.0
C      1  0.5753900000000  0.4565350000000  0.5170470000000 1.0
C      1  0.4512940000000  0.5013430000000  0.5072700000000 1.0
C      1  0.4762100000000  0.5941590000000  0.5183890000000 1.0
C      1  0.4773890000000  0.4845250000000  0.5211830000000 1.0
C      1  0.5618750000000  0.5097980000000  0.5713940000000 1.0
C      1  0.4328470000000  0.4867770000000  0.4574390000000 1.0
C      1  0.4893480000000  0.4780770000000  0.3948130000000 1.0
C      1  0.4963180000000  0.5472220000000  0.4419310000000 1.0
C      1  0.5358620000000  0.5549060000000  0.5714500000000 1.0
C      1  0.4548760000000  0.5067890000000  0.4738790000000 1.0
C      1  0.4763090000000  0.5800640000000  0.4916400000000 1.0
C      1  0.4954860000000  0.4400020000000  0.5008000000000 1.0
C      1  0.4943370000000  0.4642980000000  0.5415350000000 1.0
C      1  0.5533020000000  0.4342200000000  0.5155930000000 1.0
C      1  0.5560310000000  0.4704150000000  0.4795130000000 1.0
C      1  0.5570420000000  0.4192260000000  0.4877320000000 1.0
C      1  0.4462010000000  0.4946220000000  0.4280610000000 1.0
C      1  0.5238730000000  0.5819060000000  0.4832470000000 1.0
C      1  0.4556140000000  0.4298230000000  0.5297590000000 1.0
C      1  0.4895440000000  0.4317930000000  0.5309860000000 1.0
C      1  0.5506090000000  0.5316370000000  0.4351210000000 1.0
C      1  0.4322340000000  0.5509970000000  0.4790710000000 1.0
C      1  0.4808210000000  0.4339070000000  0.4408650000000 1.0
C      1  0.4645110000000  0.5322200000000  0.5125760000000 1.0
C      1  0.4919380000000  0.4643460000000  0.4432420000000 1.0
C      1  0.4527170000000  0.5362880000000  0.5442120000000 1.0
C      1  0.5274280000000  0.4435800000000  0.4988760000000 1.0
C      1  0.5435330000000  0.4578670000000  0.5628140000000 1.0
C      1  0.5212620000000  0.5350200000000  0.5878460000000 1.0
C      1  0.5815960000000  0.4791350000000  0.4973170000000 1.0
C      1  0.5763450000000  0.4990030000000  0.5467160000000 1.0
C      1  0.4517960000000  0.5241080000000  0.4447760000000 1.0
C      1  0.4632480000000  0.4727280000000  0.5844080000000 1.0
C      1  0.4595820000000  0.4566040000000  0.4762960000000 1.0
C      1  0.4730950000000  0.5427200000000  0.4188840000000 1.0
C      1  0.5815810000000  0.5392270000000  0.4823010000000 1.0
C      1  0.5154060000000  0.6273730000000  0.5283710000000 1.0
C      1  0.5600020000000  0.5694350000000  0.5149150000000 1.0
C      1  0.5606210000000  0.5431920000000  0.5648600000000 1.0
C      1  0.4478950000000  0.4359470000000  0.4399090000000 1.0
C      1  0.5650280000000  0.4719760000000  0.5410110000000 1.0
C      1  0.4477400000000  0.5240630000000  0.5755570000000 1.0
C      1  0.4805060000000  0.4580540000000  0.6012350000000 1.0
C      1  0.4190530000000  0.5405090000000  0.5403700000000 1.0
C      1  0.4624200000000  0.5536120000000  0.4891600000000 1.0
C      1  0.5476470000000  0.5738740000000  0.4696020000000 1.0
C      1  0.4177990000000  0.4993630000000  0.4855430000000 1.0
C      1  0.5745930000000  0.5128830000000  0.4459880000000 1.0
C      1  0.5680640000000  0.5644240000000  0.4875660000000 1.0
C      1  0.4569080000000  0.4058660000000  0.4895770000000 1.0
C      1  0.5219200000000  0.5250810000000  0.4811190000000 1.0
C      1  0.4675060000000  0.5715940000000  0.4288740000000 1.0
C      1  0.5484000000000  0.5642940000000  0.4438160000000 1.0
C      1  0.4901520000000  0.4090880000000  0.4926480000000 1.0
C      1  0.4629350000000  0.5652750000000  0.5537660000000 1.0
C      1  0.4298930000000  0.4542930000000  0.4604030000000 1.0
C      1  0.4271660000000  0.5015260000000  0.5312510000000 1.0
C      1  0.4908210000000  0.5795380000000  0.4474450000000 1.0
C      1  0.4298070000000  0.5531210000000  0.5119040000000 1.0
C      1  0.5672040000000  0.5473050000000  0.5347440000000 1.0
C      1  0.5278250000000  0.4926390000000  0.4521930000000 1.0
C      1  0.4260380000000  0.4424070000000  0.4924420000000 1.0
C      1  0.4799180000000  0.5159100000000  0.4034230000000 1.0
C      1  0.4840130000000  0.4276270000000  0.5702320000000 1.0
C      1  0.5393040000000  0.5280240000000  0.5323120000000 1.0
C      1  0.5881620000000  0.5050810000000  0.4761910000000 1.0
C      1  0.5170490000000  0.4042330000000  0.5100220000000 1.0
C      1  0.5529840000000  0.4379470000000  0.4391440000000 1.0
C      1  0.5309950000000  0.5166740000000  0.5609200000000 1.0
C      1  0.4457580000000  0.4591920000000  0.5671100000000 1.0
C      1  0.4949580000000  0.5190870000000  0.5416180000000 1.0
C      1  0.4719980000000  0.5205740000000  0.5911600000000 1.0
C      1  0.5110400000000  0.5020530000000  0.4053420000000 1.0
C      1  0.5319930000000  0.5229650000000  0.4079860000000 1.0
C      1  0.5071960000000  0.4560700000000  0.5924730000000 1.0
C      1  0.4265330000000  0.4742190000000  0.5515620000000 1.0
C      1  0.4964260000000  0.5440890000000  0.5581420000000 1.0
C      1  0.5653000000000  0.5151350000000  0.4992720000000 1.0
C      1  0.5086030000000  0.4915220000000  0.5561260000000 1.0
C      1  0.5094650000000  0.4233360000000  0.4456130000000 1.0
C      1  0.4585470000000  0.4355930000000  0.5580830000000 1.0
C      1  0.5328550000000  0.4194380000000  0.4302830000000 1.0
C      1  0.4800640000000  0.5376210000000  0.4702200000000 1.0
END
