TITL C-2848496-4490-626 0.000745906535231769 125000 -590.646034741734 0 0 106 (C1) n - 1
REM
REM in /home/bkarasulu/work/CARBON/AIRSS/Generating-Clusters/AIREBO/with-SteepDescent/Only-C1/SD-CG-opt/Try1-1.4A-POS3A/HFTN-CG
REM
REM
REM
REM
REM
REM ./C.cell (11c1c37f851c82e70ff6c80c92926a4b)
REM
REM compiler GCC version 9.2.1 20190827 (Red Hat 9.2.1-1)
REM options -cpp -mtune=generic -march=x86-64 -g -O0 -fpre-include=/usr/include/finclude/math-vector-fortran.h
REM seed 146080305 1918273164 -442352755 -1824027194 261488576 -850177697 1754629825 211105498 -1000575165 -132014188 1451552425 -2107722352 -902052433 -833117512 -392008228 -81827445 -375761862 119467038 -1083455958 1066787541 1278865827 -137392789 -175363871 -277353169 -1074125913 -1253552986 1270359578 -1777644850 814702709 100747623 1800959836 669954610 98830561
REM
CELL 1.54180   50.00000   50.00000   50.00000   90.00000   90.00000   90.00000
LATT -1
SFAC C  
C      1  0.4047530000000  0.5386390000000  0.4984710000000 1.0
C      1  0.5166190000000  0.4877150000000  0.5299690000000 1.0
C      1  0.5358030000000  0.4227420000000  0.5123350000000 1.0
C      1  0.5156920000000  0.4599440000000  0.5384320000000 1.0
C      1  0.4257760000000  0.5286660000000  0.5409780000000 1.0
C      1  0.5601890000000  0.4944330000000  0.5575880000000 1.0
C      1  0.4610730000000  0.4693320000000  0.4921690000000 1.0
C      1  0.5086590000000  0.5796820000000  0.4617700000000 1.0
C      1  0.4627930000000  0.5072050000000  0.4798360000000 1.0
C      1  0.4261110000000  0.4865380000000  0.5141690000000 1.0
C      1  0.4440460000000  0.4792980000000  0.5505160000000 1.0
C      1  0.5522010000000  0.4910120000000  0.4331210000000 1.0
C      1  0.5111530000000  0.4823460000000  0.4113030000000 1.0
C      1  0.5000440000000  0.5795900000000  0.5626460000000 1.0
C      1  0.4220400000000  0.4611720000000  0.4942590000000 1.0
C      1  0.4727340000000  0.4157600000000  0.4653170000000 1.0
C      1  0.5477040000000  0.5293860000000  0.4271120000000 1.0
C      1  0.4402610000000  0.5253570000000  0.4670530000000 1.0
C      1  0.5138860000000  0.5303900000000  0.4236170000000 1.0
C      1  0.5575040000000  0.5745290000000  0.5013360000000 1.0
C      1  0.5194790000000  0.4645210000000  0.4878990000000 1.0
C      1  0.4129120000000  0.5191000000000  0.4796840000000 1.0
C      1  0.5721120000000  0.5143410000000  0.4460730000000 1.0
C      1  0.5539170000000  0.4672710000000  0.5563080000000 1.0
C      1  0.5341210000000  0.5142270000000  0.5346330000000 1.0
C      1  0.5567890000000  0.4656990000000  0.4505810000000 1.0
C      1  0.4688840000000  0.5262320000000  0.4287190000000 1.0
C      1  0.5370080000000  0.5148690000000  0.4651400000000 1.0
C      1  0.4881100000000  0.4629810000000  0.4634690000000 1.0
C      1  0.4355950000000  0.4392210000000  0.5128350000000 1.0
C      1  0.5175700000000  0.4457590000000  0.4380100000000 1.0
C      1  0.4512310000000  0.5563770000000  0.4668920000000 1.0
C      1  0.5821430000000  0.4673490000000  0.5156530000000 1.0
C      1  0.5662360000000  0.5079590000000  0.5292490000000 1.0
C      1  0.5030340000000  0.4172320000000  0.5126350000000 1.0
C      1  0.5555940000000  0.4897690000000  0.4726810000000 1.0
C      1  0.5028550000000  0.5540240000000  0.5425730000000 1.0
C      1  0.4764860000000  0.4703230000000  0.5451750000000 1.0
C      1  0.4792040000000  0.4401640000000  0.4468580000000 1.0
C      1  0.4475680000000  0.4346400000000  0.4505720000000 1.0
C      1  0.5178370000000  0.4718900000000  0.4568960000000 1.0
C      1  0.5136020000000  0.4555030000000  0.4127560000000 1.0
C      1  0.5861810000000  0.4985760000000  0.4731630000000 1.0
C      1  0.5315540000000  0.5348100000000  0.5888940000000 1.0
C      1  0.5612650000000  0.4889230000000  0.5050760000000 1.0
C      1  0.4873990000000  0.5316250000000  0.5252510000000 1.0
C      1  0.5059350000000  0.5664980000000  0.5111940000000 1.0
C      1  0.4916610000000  0.5851840000000  0.4885910000000 1.0
C      1  0.5384160000000  0.5866760000000  0.4578510000000 1.0
C      1  0.5201910000000  0.5007980000000  0.4391410000000 1.0
C      1  0.4505820000000  0.5313670000000  0.5591420000000 1.0
C      1  0.5028110000000  0.5516420000000  0.4474150000000 1.0
C      1  0.5139280000000  0.5114540000000  0.5619360000000 1.0
C      1  0.5990990000000  0.4845400000000  0.4932220000000 1.0
C      1  0.4304280000000  0.4956210000000  0.4284870000000 1.0
C      1  0.5512450000000  0.4398810000000  0.4581910000000 1.0
C      1  0.4610120000000  0.5783820000000  0.4861730000000 1.0
C      1  0.4512430000000  0.3904130000000  0.5622890000000 1.0
C      1  0.4445490000000  0.4660930000000  0.4368330000000 1.0
C      1  0.5680930000000  0.4521250000000  0.5361360000000 1.0
C      1  0.4742060000000  0.4865090000000  0.5854970000000 1.0
C      1  0.5212440000000  0.5140730000000  0.4912750000000 1.0
C      1  0.4941250000000  0.6128200000000  0.4958530000000 1.0
C      1  0.4997040000000  0.4832660000000  0.5664230000000 1.0
C      1  0.5249530000000  0.5383920000000  0.5135620000000 1.0
C      1  0.4568270000000  0.4310150000000  0.5274130000000 1.0
C      1  0.5001200000000  0.4113540000000  0.5446040000000 1.0
C      1  0.5352760000000  0.4381720000000  0.4866980000000 1.0
C      1  0.4915800000000  0.5079030000000  0.4112470000000 1.0
C      1  0.4801730000000  0.5399940000000  0.4652760000000 1.0
C      1  0.4902590000000  0.5118620000000  0.4509160000000 1.0
C      1  0.4411030000000  0.4611420000000  0.4692670000000 1.0
C      1  0.5582020000000  0.5400630000000  0.4634380000000 1.0
C      1  0.4970760000000  0.4131850000000  0.4810460000000 1.0
C      1  0.4556890000000  0.4956190000000  0.5091160000000 1.0
C      1  0.5241830000000  0.4599160000000  0.5710920000000 1.0
C      1  0.5052660000000  0.5726450000000  0.5887140000000 1.0
C      1  0.5461950000000  0.5129140000000  0.5725630000000 1.0
C      1  0.5298980000000  0.4876470000000  0.5030590000000 1.0
C      1  0.5326450000000  0.5860920000000  0.5097070000000 1.0
C      1  0.5580700000000  0.5700020000000  0.4740220000000 1.0
C      1  0.5016370000000  0.5413870000000  0.5741220000000 1.0
C      1  0.5384680000000  0.5541340000000  0.5652770000000 1.0
C      1  0.4591640000000  0.5067960000000  0.5401770000000 1.0
C      1  0.5832480000000  0.5334560000000  0.5237830000000 1.0
C      1  0.4087570000000  0.4921130000000  0.4875720000000 1.0
C      1  0.4889040000000  0.4986580000000  0.5310690000000 1.0
C      1  0.4421870000000  0.5191080000000  0.4368910000000 1.0
C      1  0.4879660000000  0.4446300000000  0.5260450000000 1.0
C      1  0.4239620000000  0.5459530000000  0.5182130000000 1.0
C      1  0.4717470000000  0.4865990000000  0.4577370000000 1.0
C      1  0.4710560000000  0.5417630000000  0.4980640000000 1.0
C      1  0.4915880000000  0.5164600000000  0.4953710000000 1.0
C      1  0.5673670000000  0.5569350000000  0.5216260000000 1.0
C      1  0.4542980000000  0.4092970000000  0.5443750000000 1.0
C      1  0.4464040000000  0.5589190000000  0.5071000000000 1.0
C      1  0.4725560000000  0.5369140000000  0.5825050000000 1.0
C      1  0.4592880000000  0.5084720000000  0.5828420000000 1.0
C      1  0.5358900000000  0.5565790000000  0.4438030000000 1.0
C      1  0.4689240000000  0.4869230000000  0.4254830000000 1.0
C      1  0.5107750000000  0.4329600000000  0.5570370000000 1.0
C      1  0.5574570000000  0.4269220000000  0.5278950000000 1.0
C      1  0.4196610000000  0.5007720000000  0.5404260000000 1.0
C      1  0.5225300000000  0.4215320000000  0.4610780000000 1.0
C      1  0.5434660000000  0.5527960000000  0.5381840000000 1.0
C      1  0.4889830000000  0.4575440000000  0.4962650000000 1.0
END
