TITL C-2848500-1637-224 -0.00378754345122012 125000 -422.565681579651 0 0 80 (C1) n - 1
REM
REM in /home/bkarasulu/work/CARBON/AIRSS/Generating-Clusters/AIREBO/with-SteepDescent/Only-C1/SD-CG-opt/Try1-1.4A-POS3A/HFTN-CG
REM
REM
REM
REM
REM
REM ./C.cell (11c1c37f851c82e70ff6c80c92926a4b)
REM
REM compiler GCC version 9.2.1 20190827 (Red Hat 9.2.1-1)
REM options -cpp -mtune=generic -march=x86-64 -g -O0 -fpre-include=/usr/include/finclude/math-vector-fortran.h
REM seed -1542379238 1774199989 2131361756 -451781876 -1896823669 1897859153 -1436004067 -1431887071 -839253543 -918970149 114964897 -91690674 -553534538 -226580841 -457198566 1755804323 -143616592 -543499960 145525477 -160776424 -1236984263 -1089798153 -1975501373 -420627234 1881277477 1555325495 -1637535411 -2099013250 -2147410296 -406910877 467162868 1140295144 -428878039
REM
CELL 1.54180   50.00000   50.00000   50.00000   90.00000   90.00000   90.00000
LATT -1
SFAC C  
C      1  0.4789200000000  0.5186190000000  0.4840540000000 1.0
C      1  0.4828470000000  0.4284990000000  0.4662410000000 1.0
C      1  0.5509910000000  0.5280630000000  0.4541010000000 1.0
C      1  0.5298680000000  0.5284610000000  0.5705830000000 1.0
C      1  0.5321980000000  0.4354280000000  0.4467870000000 1.0
C      1  0.5352480000000  0.4241020000000  0.5023080000000 1.0
C      1  0.4924710000000  0.5558910000000  0.5656620000000 1.0
C      1  0.4972040000000  0.4740510000000  0.4427670000000 1.0
C      1  0.5646150000000  0.4930200000000  0.5509730000000 1.0
C      1  0.4937280000000  0.4525540000000  0.5057020000000 1.0
C      1  0.4853110000000  0.4874280000000  0.4716790000000 1.0
C      1  0.5062780000000  0.4268950000000  0.4891210000000 1.0
C      1  0.4969940000000  0.5037110000000  0.6072430000000 1.0
C      1  0.4617950000000  0.5787770000000  0.4413980000000 1.0
C      1  0.5477610000000  0.4615600000000  0.4458930000000 1.0
C      1  0.4690020000000  0.4580950000000  0.4661360000000 1.0
C      1  0.5067050000000  0.5315630000000  0.4987920000000 1.0
C      1  0.4685400000000  0.5110700000000  0.5471440000000 1.0
C      1  0.5269980000000  0.5774120000000  0.5282940000000 1.0
C      1  0.4994860000000  0.4804830000000  0.5478090000000 1.0
C      1  0.4902500000000  0.4543430000000  0.5674940000000 1.0
C      1  0.4679520000000  0.5138950000000  0.4417990000000 1.0
C      1  0.4461520000000  0.4876220000000  0.5490570000000 1.0
C      1  0.5717220000000  0.5116660000000  0.4554030000000 1.0
C      1  0.4876750000000  0.5753500000000  0.5437490000000 1.0
C      1  0.4274950000000  0.4951650000000  0.5247200000000 1.0
C      1  0.4426980000000  0.4376140000000  0.5082950000000 1.0
C      1  0.5345520000000  0.4861930000000  0.5114510000000 1.0
C      1  0.4456620000000  0.5429100000000  0.5202900000000 1.0
C      1  0.5613210000000  0.4974940000000  0.5235530000000 1.0
C      1  0.6139300000000  0.4943850000000  0.5007430000000 1.0
C      1  0.4849630000000  0.5068120000000  0.5214620000000 1.0
C      1  0.4730330000000  0.4540410000000  0.4026080000000 1.0
C      1  0.4222420000000  0.5211810000000  0.4827340000000 1.0
C      1  0.4631270000000  0.5529360000000  0.4488840000000 1.0
C      1  0.4930400000000  0.6153940000000  0.5064930000000 1.0
C      1  0.5690330000000  0.5270140000000  0.5092710000000 1.0
C      1  0.5169540000000  0.4653710000000  0.4911260000000 1.0
C      1  0.5345490000000  0.5760850000000  0.5585040000000 1.0
C      1  0.5171770000000  0.5309790000000  0.4480370000000 1.0
C      1  0.4549260000000  0.4882250000000  0.4348780000000 1.0
C      1  0.5159020000000  0.5082500000000  0.5217950000000 1.0
C      1  0.5101790000000  0.5091580000000  0.5553230000000 1.0
C      1  0.4509220000000  0.4307810000000  0.4567230000000 1.0
C      1  0.5748250000000  0.5554850000000  0.4708280000000 1.0
C      1  0.5567800000000  0.5477450000000  0.4916430000000 1.0
C      1  0.5538250000000  0.4510720000000  0.4965530000000 1.0
C      1  0.5279380000000  0.4814300000000  0.4360710000000 1.0
C      1  0.5204740000000  0.5551540000000  0.5718260000000 1.0
C      1  0.5898570000000  0.5033270000000  0.5076250000000 1.0
C      1  0.4431600000000  0.4874570000000  0.4970460000000 1.0
C      1  0.4692510000000  0.5334410000000  0.5124570000000 1.0
C      1  0.5798540000000  0.4882580000000  0.4679040000000 1.0
C      1  0.5358140000000  0.4558320000000  0.5250350000000 1.0
C      1  0.5297340000000  0.5358940000000  0.4786230000000 1.0
C      1  0.4894610000000  0.4355460000000  0.5410440000000 1.0
C      1  0.4691300000000  0.4803500000000  0.5733210000000 1.0
C      1  0.4707290000000  0.4703600000000  0.5350900000000 1.0
C      1  0.5128710000000  0.4573820000000  0.4641390000000 1.0
C      1  0.4360400000000  0.4776740000000  0.4562240000000 1.0
C      1  0.4244960000000  0.5271650000000  0.5146970000000 1.0
C      1  0.5218030000000  0.4577090000000  0.5550500000000 1.0
C      1  0.4883340000000  0.5034910000000  0.5808180000000 1.0
C      1  0.4428410000000  0.5390250000000  0.4620500000000 1.0
C      1  0.5150690000000  0.4285090000000  0.5293170000000 1.0
C      1  0.4875480000000  0.5362320000000  0.4417040000000 1.0
C      1  0.4932890000000  0.5625600000000  0.4947600000000 1.0
C      1  0.4744870000000  0.4707150000000  0.4239810000000 1.0
C      1  0.4789540000000  0.5316790000000  0.5664290000000 1.0
C      1  0.4405040000000  0.4581060000000  0.4837130000000 1.0
C      1  0.4044870000000  0.4974170000000  0.4993490000000 1.0
C      1  0.4983910000000  0.5898270000000  0.5147220000000 1.0
C      1  0.4747960000000  0.4806640000000  0.5029430000000 1.0
C      1  0.5295410000000  0.5072720000000  0.4282690000000 1.0
C      1  0.5495140000000  0.5730770000000  0.5082510000000 1.0
C      1  0.5121490000000  0.4179100000000  0.4580610000000 1.0
C      1  0.5638540000000  0.4646810000000  0.4706840000000 1.0
C      1  0.4503060000000  0.5067920000000  0.4699890000000 1.0
C      1  0.4624720000000  0.4398340000000  0.5270740000000 1.0
C      1  0.5050060000000  0.5523820000000  0.5256290000000 1.0
END
