TITL C-2847957-7266-262 0.000454063648905876 125000 -382.965724477476 0 0 69 (C1) n - 1
REM
REM in /home/bkarasulu/work/CARBON/AIRSS/Generating-Clusters/AIREBO/with-SteepDescent/Only-C1/SD-CG-opt/Try1-1.4A-POS3A/HFTN-CG
REM
REM
REM
REM
REM
REM ./C.cell (11c1c37f851c82e70ff6c80c92926a4b)
REM
REM compiler GCC version 9.2.1 20190827 (Red Hat 9.2.1-1)
REM options -cpp -mtune=generic -march=x86-64 -g -O0 -fpre-include=/usr/include/finclude/math-vector-fortran.h
REM seed 477102935 1885957174 516638899 2088001014 1063464068 49926262 -1086524781 -1277361131 2054887454 -1047430907 1542113471 -1674221389 435694557 1608527877 -626236081 530793262 -850873665 146464260 1347798377 -1151042075 180707454 -584913510 829332025 631923996 77690325 60997573 387175457 -1892467744 124305515 -1155210718 -1044621604 1786377509 -1824218194
REM
CELL 1.54180   50.00000   50.00000   50.00000   90.00000   90.00000   90.00000
LATT -1
SFAC C  
C      1  0.5272950000000  0.4833070000000  0.4982330000000 1.0
C      1  0.6055140000000  0.4597180000000  0.5005600000000 1.0
C      1  0.4295620000000  0.5130220000000  0.4567530000000 1.0
C      1  0.5037490000000  0.5501440000000  0.5369450000000 1.0
C      1  0.5426420000000  0.5077740000000  0.5517870000000 1.0
C      1  0.5381570000000  0.5879540000000  0.4453680000000 1.0
C      1  0.5159460000000  0.5040210000000  0.5462390000000 1.0
C      1  0.5589620000000  0.4518460000000  0.5159740000000 1.0
C      1  0.4496050000000  0.5286040000000  0.4750580000000 1.0
C      1  0.4747430000000  0.5004410000000  0.5773120000000 1.0
C      1  0.5109810000000  0.4613980000000  0.5764400000000 1.0
C      1  0.5254800000000  0.5312650000000  0.4563340000000 1.0
C      1  0.4918150000000  0.4715130000000  0.4317140000000 1.0
C      1  0.4782800000000  0.4774710000000  0.5076390000000 1.0
C      1  0.5376710000000  0.4826390000000  0.4287260000000 1.0
C      1  0.4864200000000  0.5645630000000  0.4454140000000 1.0
C      1  0.4410930000000  0.4563680000000  0.5499120000000 1.0
C      1  0.5187440000000  0.5600550000000  0.4480850000000 1.0
C      1  0.5334510000000  0.4706170000000  0.5256440000000 1.0
C      1  0.4722690000000  0.5224170000000  0.5595870000000 1.0
C      1  0.4604750000000  0.5631650000000  0.5255380000000 1.0
C      1  0.4233290000000  0.4783300000000  0.4975800000000 1.0
C      1  0.5306170000000  0.4320170000000  0.4813650000000 1.0
C      1  0.5441780000000  0.5292060000000  0.4789930000000 1.0
C      1  0.5198620000000  0.4519560000000  0.4643280000000 1.0
C      1  0.5722540000000  0.4976880000000  0.5112500000000 1.0
C      1  0.4974480000000  0.5888400000000  0.4850650000000 1.0
C      1  0.4945080000000  0.5196320000000  0.4646020000000 1.0
C      1  0.4310300000000  0.4695020000000  0.5294990000000 1.0
C      1  0.5808620000000  0.4671560000000  0.5096400000000 1.0
C      1  0.4279890000000  0.4647990000000  0.4702330000000 1.0
C      1  0.5137020000000  0.5571570000000  0.5112910000000 1.0
C      1  0.4996260000000  0.5149320000000  0.4313160000000 1.0
C      1  0.5134880000000  0.4367720000000  0.5331020000000 1.0
C      1  0.4333530000000  0.5473480000000  0.5198770000000 1.0
C      1  0.5460320000000  0.5024710000000  0.4937510000000 1.0
C      1  0.5369110000000  0.5539350000000  0.4990200000000 1.0
C      1  0.4681770000000  0.4585150000000  0.5550840000000 1.0
C      1  0.5611260000000  0.4844470000000  0.5397550000000 1.0
C      1  0.4853240000000  0.5689210000000  0.5461300000000 1.0
C      1  0.5672350000000  0.5443680000000  0.4984060000000 1.0
C      1  0.5359320000000  0.4344560000000  0.5090210000000 1.0
C      1  0.4389680000000  0.4830110000000  0.4525130000000 1.0
C      1  0.5549010000000  0.4551690000000  0.5555760000000 1.0
C      1  0.4481610000000  0.4951640000000  0.5136000000000 1.0
C      1  0.5092320000000  0.4746130000000  0.5451980000000 1.0
C      1  0.4202890000000  0.4390880000000  0.4654130000000 1.0
C      1  0.5837330000000  0.5267080000000  0.5108370000000 1.0
C      1  0.4555680000000  0.5432570000000  0.5527650000000 1.0
C      1  0.4938060000000  0.5213850000000  0.5382200000000 1.0
C      1  0.4317800000000  0.5234900000000  0.5134800000000 1.0
C      1  0.5295810000000  0.5094480000000  0.4309120000000 1.0
C      1  0.4749740000000  0.5738420000000  0.4689490000000 1.0
C      1  0.4824830000000  0.4729940000000  0.5748920000000 1.0
C      1  0.4634920000000  0.4781960000000  0.4429730000000 1.0
C      1  0.4086410000000  0.4989790000000  0.4773210000000 1.0
C      1  0.5191790000000  0.4629960000000  0.4380190000000 1.0
C      1  0.5298910000000  0.4437980000000  0.5593630000000 1.0
C      1  0.4194880000000  0.5267960000000  0.4347500000000 1.0
C      1  0.6299470000000  0.4525850000000  0.4943140000000 1.0
C      1  0.5216620000000  0.5839680000000  0.4720800000000 1.0
C      1  0.5003220000000  0.4714200000000  0.4842150000000 1.0
C      1  0.4867100000000  0.4577090000000  0.5304300000000 1.0
C      1  0.4900830000000  0.4392240000000  0.4880820000000 1.0
C      1  0.4820290000000  0.5601090000000  0.4992580000000 1.0
C      1  0.4897610000000  0.4891700000000  0.4602610000000 1.0
C      1  0.4762770000000  0.5296370000000  0.4869850000000 1.0
C      1  0.4781830000000  0.5111200000000  0.5125820000000 1.0
C      1  0.4950170000000  0.4253720000000  0.5084400000000 1.0
END
