TITL C-2847946-5639-137 0.000181546683275533 125000 -675.6583609028 0 0 128 (C1) n - 1
REM
REM in /home/bkarasulu/work/CARBON/AIRSS/Generating-Clusters/AIREBO/with-SteepDescent/Only-C1/SD-CG-opt/Try1-1.4A-POS3A/HFTN-CG
REM
REM
REM
REM
REM
REM ./C.cell (11c1c37f851c82e70ff6c80c92926a4b)
REM
REM compiler GCC version 9.2.1 20190827 (Red Hat 9.2.1-1)
REM options -cpp -mtune=generic -march=x86-64 -g -O0 -fpre-include=/usr/include/finclude/math-vector-fortran.h
REM seed 178175765 1047507893 -687721148 -1156805510 1151043995 1557408558 -1893730372 -526405508 -456341425 -822976438 271649080 1930352495 1101409622 -993366489 -1174576560 1160066804 -39609320 -1591047862 -597444482 -1471769102 -1527688522 -901540764 -1144006629 -1676119890 -220961743 1881760051 95878968 1682825420 -552835720 -601082907 -768025319 -942628552 -1497288340
REM
CELL 1.54180   50.00000   50.00000   50.00000   90.00000   90.00000   90.00000
LATT -1
SFAC C  
C      1  0.6212830000000  0.4520070000000  0.4913720000000 1.0
C      1  0.4742690000000  0.4893400000000  0.5560600000000 1.0
C      1  0.5312640000000  0.5483810000000  0.5011020000000 1.0
C      1  0.4593710000000  0.4297120000000  0.5413030000000 1.0
C      1  0.4611360000000  0.5375940000000  0.4257310000000 1.0
C      1  0.5425350000000  0.4220870000000  0.5303820000000 1.0
C      1  0.4407400000000  0.4569960000000  0.5029190000000 1.0
C      1  0.5043650000000  0.4535460000000  0.5678660000000 1.0
C      1  0.4450730000000  0.4965480000000  0.4018010000000 1.0
C      1  0.4131810000000  0.4612960000000  0.4743280000000 1.0
C      1  0.5062780000000  0.4640200000000  0.5165140000000 1.0
C      1  0.4477100000000  0.5070060000000  0.4321080000000 1.0
C      1  0.5748010000000  0.4698100000000  0.4169270000000 1.0
C      1  0.4577760000000  0.5836660000000  0.4578730000000 1.0
C      1  0.4572470000000  0.5340390000000  0.6062990000000 1.0
C      1  0.4760170000000  0.4767570000000  0.4806490000000 1.0
C      1  0.5535250000000  0.4741440000000  0.5273380000000 1.0
C      1  0.5315360000000  0.4417300000000  0.4279740000000 1.0
C      1  0.4039260000000  0.5201820000000  0.4811890000000 1.0
C      1  0.5195290000000  0.5171930000000  0.5383830000000 1.0
C      1  0.4475820000000  0.4752820000000  0.4444040000000 1.0
C      1  0.5233330000000  0.4778470000000  0.5424810000000 1.0
C      1  0.5956290000000  0.5157040000000  0.5035710000000 1.0
C      1  0.5781970000000  0.5088820000000  0.5558760000000 1.0
C      1  0.4926670000000  0.3742320000000  0.4567100000000 1.0
C      1  0.4307910000000  0.5551470000000  0.5497250000000 1.0
C      1  0.4972580000000  0.3954980000000  0.4726870000000 1.0
C      1  0.4484640000000  0.5030540000000  0.5828850000000 1.0
C      1  0.5329380000000  0.4539330000000  0.5846110000000 1.0
C      1  0.5351360000000  0.5241750000000  0.4774900000000 1.0
C      1  0.4924760000000  0.5517090000000  0.4922270000000 1.0
C      1  0.4773580000000  0.4071510000000  0.4886330000000 1.0
C      1  0.5956140000000  0.4494950000000  0.5014330000000 1.0
C      1  0.5450570000000  0.4612650000000  0.4730800000000 1.0
C      1  0.5369480000000  0.5980790000000  0.5070030000000 1.0
C      1  0.4812850000000  0.5026180000000  0.4288700000000 1.0
C      1  0.4995170000000  0.4866150000000  0.4603650000000 1.0
C      1  0.4442870000000  0.5038270000000  0.5491350000000 1.0
C      1  0.5501150000000  0.4627910000000  0.4394310000000 1.0
C      1  0.5578760000000  0.5214840000000  0.5717340000000 1.0
C      1  0.5201330000000  0.4487200000000  0.4915340000000 1.0
C      1  0.5538510000000  0.4437560000000  0.5426480000000 1.0
C      1  0.4580460000000  0.5559220000000  0.4450790000000 1.0
C      1  0.4888250000000  0.5892870000000  0.5233410000000 1.0
C      1  0.5373000000000  0.4183140000000  0.4419310000000 1.0
C      1  0.5651340000000  0.5294050000000  0.5097960000000 1.0
C      1  0.5666630000000  0.4669680000000  0.4978850000000 1.0
C      1  0.5577290000000  0.5021380000000  0.4529770000000 1.0
C      1  0.5780880000000  0.5494320000000  0.4309460000000 1.0
C      1  0.4634520000000  0.5447380000000  0.5087600000000 1.0
C      1  0.4792340000000  0.4923690000000  0.5090640000000 1.0
C      1  0.4703060000000  0.5175630000000  0.4909390000000 1.0
C      1  0.4853070000000  0.5585880000000  0.5308220000000 1.0
C      1  0.5588230000000  0.5868700000000  0.5136980000000 1.0
C      1  0.4646100000000  0.4386360000000  0.4870880000000 1.0
C      1  0.5773200000000  0.4265670000000  0.4870750000000 1.0
C      1  0.5283060000000  0.5129000000000  0.5695590000000 1.0
C      1  0.4773130000000  0.5209340000000  0.5877660000000 1.0
C      1  0.4512020000000  0.4507780000000  0.5669590000000 1.0
C      1  0.4328240000000  0.4591580000000  0.5419840000000 1.0
C      1  0.4526260000000  0.5203460000000  0.4630090000000 1.0
C      1  0.4880170000000  0.5961770000000  0.4942110000000 1.0
C      1  0.4937060000000  0.4724550000000  0.4307960000000 1.0
C      1  0.5340140000000  0.5136260000000  0.4119490000000 1.0
C      1  0.5204650000000  0.5328640000000  0.4364930000000 1.0
C      1  0.4953630000000  0.4968050000000  0.5386720000000 1.0
C      1  0.4056000000000  0.4718980000000  0.5450270000000 1.0
C      1  0.4811480000000  0.5353390000000  0.4058680000000 1.0
C      1  0.4485330000000  0.4432420000000  0.4574540000000 1.0
C      1  0.4510580000000  0.4812930000000  0.5245590000000 1.0
C      1  0.5457390000000  0.5637930000000  0.5533350000000 1.0
C      1  0.4939320000000  0.4505010000000  0.4763400000000 1.0
C      1  0.4385340000000  0.4640070000000  0.6151440000000 1.0
C      1  0.5082330000000  0.6031020000000  0.4247680000000 1.0
C      1  0.5540490000000  0.5580110000000  0.5244640000000 1.0
C      1  0.5085000000000  0.5969910000000  0.5434810000000 1.0
C      1  0.5104140000000  0.4109940000000  0.5289210000000 1.0
C      1  0.5533820000000  0.5372620000000  0.4519490000000 1.0
C      1  0.4294530000000  0.5246150000000  0.6010500000000 1.0
C      1  0.4226340000000  0.5264870000000  0.5071300000000 1.0
C      1  0.5596180000000  0.5496200000000  0.5731210000000 1.0
C      1  0.4343700000000  0.5811520000000  0.4774090000000 1.0
C      1  0.3970460000000  0.5232150000000  0.4543280000000 1.0
C      1  0.4114720000000  0.4971940000000  0.5538490000000 1.0
C      1  0.5023230000000  0.5154130000000  0.4056240000000 1.0
C      1  0.5427140000000  0.5050170000000  0.5179940000000 1.0
C      1  0.4766470000000  0.4473640000000  0.5179230000000 1.0
C      1  0.5546300000000  0.4435290000000  0.5711410000000 1.0
C      1  0.5027000000000  0.5202980000000  0.4841720000000 1.0
C      1  0.5062410000000  0.5945080000000  0.4501230000000 1.0
C      1  0.4131930000000  0.5941050000000  0.4873300000000 1.0
C      1  0.4443020000000  0.4718080000000  0.5908760000000 1.0
C      1  0.4989850000000  0.5539550000000  0.5613400000000 1.0
C      1  0.4775220000000  0.4655500000000  0.5682220000000 1.0
C      1  0.5278930000000  0.4210040000000  0.5017900000000 1.0
C      1  0.4150300000000  0.5160320000000  0.4347630000000 1.0
C      1  0.5198180000000  0.5743470000000  0.5575470000000 1.0
C      1  0.4817520000000  0.5963360000000  0.4660250000000 1.0
C      1  0.4620620000000  0.4484380000000  0.4293900000000 1.0
C      1  0.5245490000000  0.4070320000000  0.4744500000000 1.0
C      1  0.5135880000000  0.4946820000000  0.5037070000000 1.0
C      1  0.5269090000000  0.5821410000000  0.4650360000000 1.0
C      1  0.4995640000000  0.5187560000000  0.4506810000000 1.0
C      1  0.4071340000000  0.4513880000000  0.5028970000000 1.0
C      1  0.4423180000000  0.4779160000000  0.4761600000000 1.0
C      1  0.5511100000000  0.4279190000000  0.4701640000000 1.0
C      1  0.5683840000000  0.5473050000000  0.4807630000000 1.0
C      1  0.5784740000000  0.4825150000000  0.5472930000000 1.0
C      1  0.5148100000000  0.5772830000000  0.4940220000000 1.0
C      1  0.4809650000000  0.4142930000000  0.5199300000000 1.0
C      1  0.5251500000000  0.4827810000000  0.5738970000000 1.0
C      1  0.5125010000000  0.5425930000000  0.5255990000000 1.0
C      1  0.5008570000000  0.5304560000000  0.5762430000000 1.0
C      1  0.5892530000000  0.4870370000000  0.4892000000000 1.0
C      1  0.4328560000000  0.5060890000000  0.4836460000000 1.0
C      1  0.5066970000000  0.4518360000000  0.4207760000000 1.0
C      1  0.3901750000000  0.4629920000000  0.5241640000000 1.0
C      1  0.4492680000000  0.5507230000000  0.4784350000000 1.0
C      1  0.5778320000000  0.5152300000000  0.4745930000000 1.0
C      1  0.5532660000000  0.5742690000000  0.4665950000000 1.0
C      1  0.4309530000000  0.4314190000000  0.5230800000000 1.0
C      1  0.4411840000000  0.5327880000000  0.5315530000000 1.0
C      1  0.5888390000000  0.5249690000000  0.5355800000000 1.0
C      1  0.5307470000000  0.4917190000000  0.4681040000000 1.0
C      1  0.5526960000000  0.4924870000000  0.4230710000000 1.0
C      1  0.5908510000000  0.4607160000000  0.5322670000000 1.0
C      1  0.5477510000000  0.5432690000000  0.4189460000000 1.0
C      1  0.5090460000000  0.4408240000000  0.5412370000000 1.0
END
