TITL C-2848501-3133-550 -0.000953069006639542 125000 -318.738633872824 0 0 59 (C1) n - 1
REM
REM in /home/bkarasulu/work/CARBON/AIRSS/Generating-Clusters/AIREBO/with-SteepDescent/Only-C1/SD-CG-opt/Try1-1.4A-POS3A/HFTN-CG
REM
REM
REM
REM
REM
REM ./C.cell (11c1c37f851c82e70ff6c80c92926a4b)
REM
REM compiler GCC version 9.2.1 20190827 (Red Hat 9.2.1-1)
REM options -cpp -mtune=generic -march=x86-64 -g -O0 -fpre-include=/usr/include/finclude/math-vector-fortran.h
REM seed -2090304292 -196600441 -1487332686 198718705 1292501486 -451510443 -1439439548 -1935276679 1585089171 2079047432 1114640213 1692283226 878077064 2035296809 42361001 2075150411 887665723 1532458071 -1557164941 -226706902 1588752528 251782737 2008099614 -324610091 -1614396092 -1012515817 -1218088778 2127302578 -666463745 -339823967 1674380250 -2090828418 1654596990
REM
CELL 1.54180   50.00000   50.00000   50.00000   90.00000   90.00000   90.00000
LATT -1
SFAC C  
C      1  0.5311440000000  0.5533140000000  0.5570350000000 1.0
C      1  0.4234600000000  0.4867400000000  0.4691360000000 1.0
C      1  0.4565000000000  0.4884800000000  0.5735040000000 1.0
C      1  0.4984790000000  0.5601350000000  0.5227440000000 1.0
C      1  0.4822430000000  0.5237470000000  0.4386170000000 1.0
C      1  0.4715190000000  0.4787100000000  0.4261240000000 1.0
C      1  0.4851860000000  0.4734770000000  0.5782500000000 1.0
C      1  0.5082750000000  0.4744500000000  0.5578490000000 1.0
C      1  0.5175520000000  0.5292930000000  0.4775520000000 1.0
C      1  0.5615060000000  0.4981650000000  0.4712160000000 1.0
C      1  0.4466600000000  0.5370150000000  0.5346710000000 1.0
C      1  0.5447670000000  0.5472480000000  0.4863990000000 1.0
C      1  0.5572860000000  0.5284290000000  0.5337090000000 1.0
C      1  0.5332890000000  0.5255600000000  0.4410770000000 1.0
C      1  0.5050890000000  0.5413090000000  0.4482740000000 1.0
C      1  0.4838850000000  0.5540970000000  0.4957870000000 1.0
C      1  0.5486000000000  0.4895910000000  0.5377090000000 1.0
C      1  0.4618110000000  0.4593870000000  0.5617490000000 1.0
C      1  0.4701610000000  0.4587830000000  0.5345210000000 1.0
C      1  0.5213900000000  0.4559620000000  0.5047090000000 1.0
C      1  0.4388160000000  0.4539770000000  0.4954030000000 1.0
C      1  0.5269360000000  0.5725690000000  0.4766200000000 1.0
C      1  0.4969240000000  0.4310260000000  0.5085960000000 1.0
C      1  0.4480590000000  0.4724200000000  0.4505300000000 1.0
C      1  0.5527840000000  0.4638230000000  0.4942800000000 1.0
C      1  0.5474800000000  0.5478630000000  0.5161130000000 1.0
C      1  0.4839520000000  0.5485280000000  0.5429720000000 1.0
C      1  0.4562250000000  0.5048690000000  0.5015450000000 1.0
C      1  0.4383100000000  0.4496940000000  0.4708830000000 1.0
C      1  0.4923690000000  0.4482350000000  0.4656930000000 1.0
C      1  0.5538480000000  0.5264230000000  0.4614990000000 1.0
C      1  0.5248210000000  0.4942650000000  0.5158680000000 1.0
C      1  0.5021940000000  0.4543850000000  0.5327450000000 1.0
C      1  0.4578760000000  0.5363590000000  0.5087220000000 1.0
C      1  0.5765410000000  0.5062100000000  0.5277200000000 1.0
C      1  0.4298200000000  0.4944830000000  0.5285420000000 1.0
C      1  0.5464240000000  0.4693380000000  0.4613370000000 1.0
C      1  0.4805870000000  0.4777830000000  0.4588970000000 1.0
C      1  0.4732090000000  0.5106910000000  0.4632740000000 1.0
C      1  0.5203400000000  0.4963640000000  0.4340200000000 1.0
C      1  0.5106320000000  0.5042930000000  0.5438260000000 1.0
C      1  0.5377360000000  0.4882700000000  0.5670960000000 1.0
C      1  0.5257830000000  0.5618720000000  0.5293650000000 1.0
C      1  0.5431640000000  0.4734940000000  0.4292530000000 1.0
C      1  0.4823250000000  0.4299120000000  0.4852730000000 1.0
C      1  0.4527190000000  0.4733190000000  0.5149780000000 1.0
C      1  0.5356570000000  0.5212140000000  0.5582730000000 1.0
C      1  0.4810800000000  0.5178070000000  0.5413320000000 1.0
C      1  0.5115670000000  0.4905820000000  0.4646200000000 1.0
C      1  0.5640980000000  0.4830510000000  0.5096390000000 1.0
C      1  0.4881040000000  0.5234270000000  0.4863040000000 1.0
C      1  0.5002790000000  0.5645770000000  0.4705230000000 1.0
C      1  0.5010510000000  0.4816820000000  0.4957140000000 1.0
C      1  0.4865620000000  0.5051340000000  0.5120170000000 1.0
C      1  0.5333160000000  0.5029190000000  0.4864080000000 1.0
C      1  0.5209600000000  0.4509180000000  0.4709690000000 1.0
C      1  0.4911070000000  0.5013320000000  0.4224430000000 1.0
C      1  0.4511610000000  0.5079340000000  0.5513670000000 1.0
C      1  0.4263800000000  0.4950690000000  0.4947090000000 1.0
END
