TITL C-2848502-4955-134 -0.00180388521303704 125000 -447.599500082592 0 0 85 (C1) n - 1
REM
REM in /home/bkarasulu/work/CARBON/AIRSS/Generating-Clusters/AIREBO/with-SteepDescent/Only-C1/SD-CG-opt/Try1-1.4A-POS3A/HFTN-CG
REM
REM
REM
REM
REM
REM ./C.cell (11c1c37f851c82e70ff6c80c92926a4b)
REM
REM compiler GCC version 9.2.1 20190827 (Red Hat 9.2.1-1)
REM options -cpp -mtune=generic -march=x86-64 -g -O0 -fpre-include=/usr/include/finclude/math-vector-fortran.h
REM seed -1409230782 -1028051632 -873680347 -997461801 1810884206 -1433905918 -2096669176 -1729783142 1879283092 -434553636 1657878338 1535077597 -1374779719 -161949878 -1886828302 785618512 1753896998 770793248 -789245196 5944557 1969993471 -1900829548 -1842780466 -346298523 -1526109738 -461205444 2140428523 718020149 -187929243 -1813251748 304326012 -1437790393 1695900333
REM
CELL 1.54180   50.00000   50.00000   50.00000   90.00000   90.00000   90.00000
LATT -1
SFAC C  
C      1  0.5329490000000  0.5073940000000  0.4763540000000 1.0
C      1  0.5014590000000  0.4196820000000  0.4608250000000 1.0
C      1  0.4991960000000  0.4718650000000  0.4964660000000 1.0
C      1  0.5181650000000  0.4513930000000  0.3950040000000 1.0
C      1  0.5048520000000  0.4118090000000  0.5124630000000 1.0
C      1  0.4952790000000  0.5405720000000  0.4600440000000 1.0
C      1  0.5054240000000  0.5032760000000  0.4958950000000 1.0
C      1  0.5741420000000  0.5319650000000  0.4883720000000 1.0
C      1  0.5239770000000  0.5192020000000  0.4230700000000 1.0
C      1  0.5234360000000  0.5344560000000  0.6048360000000 1.0
C      1  0.5183130000000  0.5539440000000  0.4616800000000 1.0
C      1  0.4599390000000  0.5583430000000  0.4741220000000 1.0
C      1  0.4530420000000  0.5087470000000  0.4684660000000 1.0
C      1  0.5145670000000  0.4638300000000  0.5692510000000 1.0
C      1  0.5696540000000  0.4445260000000  0.5224880000000 1.0
C      1  0.5632430000000  0.4661820000000  0.5106250000000 1.0
C      1  0.4832510000000  0.4512080000000  0.4412290000000 1.0
C      1  0.4697460000000  0.5779360000000  0.4934480000000 1.0
C      1  0.4818600000000  0.5716760000000  0.5172670000000 1.0
C      1  0.5485420000000  0.4989310000000  0.5581950000000 1.0
C      1  0.5714160000000  0.4833750000000  0.4848080000000 1.0
C      1  0.4379160000000  0.4854340000000  0.4203940000000 1.0
C      1  0.4601470000000  0.4568370000000  0.5314290000000 1.0
C      1  0.5372190000000  0.4136960000000  0.5619500000000 1.0
C      1  0.4218720000000  0.5269580000000  0.5071980000000 1.0
C      1  0.4499720000000  0.4924300000000  0.5464970000000 1.0
C      1  0.5111440000000  0.5270700000000  0.5738450000000 1.0
C      1  0.4883770000000  0.4652320000000  0.5249330000000 1.0
C      1  0.5171670000000  0.4386810000000  0.5535440000000 1.0
C      1  0.4870880000000  0.5122790000000  0.4697600000000 1.0
C      1  0.4460870000000  0.5336640000000  0.4905420000000 1.0
C      1  0.5036390000000  0.4755490000000  0.4371950000000 1.0
C      1  0.5197410000000  0.4987750000000  0.5264200000000 1.0
C      1  0.4658590000000  0.4447090000000  0.4596630000000 1.0
C      1  0.5274240000000  0.5438510000000  0.5209150000000 1.0
C      1  0.4700570000000  0.4554670000000  0.4909760000000 1.0
C      1  0.4980500000000  0.5314180000000  0.5099020000000 1.0
C      1  0.5290700000000  0.5227550000000  0.5467510000000 1.0
C      1  0.4747060000000  0.4948850000000  0.5627840000000 1.0
C      1  0.4856210000000  0.5565430000000  0.5654800000000 1.0
C      1  0.5406410000000  0.5374960000000  0.4902250000000 1.0
C      1  0.5343940000000  0.4849210000000  0.5788760000000 1.0
C      1  0.4304270000000  0.4660280000000  0.4919280000000 1.0
C      1  0.4424140000000  0.4362050000000  0.4863550000000 1.0
C      1  0.5870190000000  0.5088820000000  0.4890760000000 1.0
C      1  0.5482730000000  0.5512480000000  0.4515060000000 1.0
C      1  0.4811860000000  0.4648220000000  0.5755560000000 1.0
C      1  0.4545550000000  0.4943910000000  0.4376750000000 1.0
C      1  0.5226060000000  0.4338850000000  0.4495790000000 1.0
C      1  0.5568480000000  0.4771460000000  0.4586420000000 1.0
C      1  0.4795560000000  0.5235140000000  0.5708190000000 1.0
C      1  0.5186420000000  0.4126810000000  0.5361170000000 1.0
C      1  0.5565700000000  0.5608320000000  0.5251820000000 1.0
C      1  0.5070850000000  0.5737790000000  0.5563640000000 1.0
C      1  0.4331740000000  0.4735730000000  0.5237180000000 1.0
C      1  0.4247490000000  0.4893420000000  0.4712220000000 1.0
C      1  0.5266010000000  0.4783860000000  0.4597570000000 1.0
C      1  0.4570450000000  0.4868560000000  0.4941810000000 1.0
C      1  0.5311970000000  0.4980510000000  0.4058470000000 1.0
C      1  0.4738760000000  0.5485460000000  0.4410850000000 1.0
C      1  0.5232770000000  0.5046040000000  0.5951420000000 1.0
C      1  0.5159970000000  0.4530130000000  0.4770290000000 1.0
C      1  0.4477530000000  0.4292090000000  0.5172150000000 1.0
C      1  0.5694350000000  0.5564110000000  0.4699790000000 1.0
C      1  0.5635240000000  0.5688300000000  0.4994850000000 1.0
C      1  0.4692540000000  0.5337600000000  0.5154520000000 1.0
C      1  0.4233750000000  0.5058510000000  0.5290870000000 1.0
C      1  0.5758110000000  0.5008520000000  0.5566390000000 1.0
C      1  0.5177140000000  0.4738750000000  0.4103810000000 1.0
C      1  0.4846740000000  0.5272650000000  0.3945120000000 1.0
C      1  0.5347560000000  0.5704500000000  0.4838010000000 1.0
C      1  0.5009000000000  0.4825390000000  0.5459540000000 1.0
C      1  0.5424710000000  0.4914290000000  0.5050910000000 1.0
C      1  0.4644300000000  0.5534990000000  0.5390650000000 1.0
C      1  0.4461430000000  0.5376350000000  0.4509500000000 1.0
C      1  0.5271980000000  0.5972750000000  0.4796070000000 1.0
C      1  0.4499300000000  0.4218100000000  0.5466600000000 1.0
C      1  0.4940350000000  0.4310590000000  0.4908850000000 1.0
C      1  0.4553390000000  0.5059840000000  0.5174960000000 1.0
C      1  0.4934590000000  0.5255820000000  0.4212010000000 1.0
C      1  0.5087340000000  0.5707930000000  0.5286230000000 1.0
C      1  0.5385270000000  0.5230670000000  0.4466240000000 1.0
C      1  0.4515360000000  0.5426680000000  0.5687610000000 1.0
C      1  0.4658610000000  0.4447880000000  0.5618170000000 1.0
C      1  0.4854000000000  0.5006220000000  0.4397510000000 1.0
END
