TITL C-2847946-5639-678 -0.00479416651537644 125000 -690.77342914541 0 0 137 (C1) n - 1
REM
REM in /home/bkarasulu/work/CARBON/AIRSS/Generating-Clusters/AIREBO/with-SteepDescent/Only-C1/SD-CG-opt/Try1-1.4A-POS3A/HFTN-CG
REM
REM
REM
REM
REM
REM ./C.cell (11c1c37f851c82e70ff6c80c92926a4b)
REM
REM compiler GCC version 9.2.1 20190827 (Red Hat 9.2.1-1)
REM options -cpp -mtune=generic -march=x86-64 -g -O0 -fpre-include=/usr/include/finclude/math-vector-fortran.h
REM seed 1830394457 195606241 -1725719298 292131204 -1648877026 107236473 -972798599 -695091801 -637917381 -2078145105 515210864 1018095048 -1562537634 -2034942437 -1761860616 31177993 -1328743913 -1332466571 -2033962564 393028427 1900807997 -1148725129 -363824283 1151948905 1326810876 -51156237 1778525127 -247074161 1130304915 983095540 -383343353 780423910 -401399599
REM
CELL 1.54180   50.00000   50.00000   50.00000   90.00000   90.00000   90.00000
LATT -1
SFAC C  
C      1  0.4230590000000  0.4429760000000  0.4903820000000 1.0
C      1  0.5743590000000  0.4948180000000  0.4607820000000 1.0
C      1  0.5604700000000  0.4986790000000  0.5785900000000 1.0
C      1  0.4740490000000  0.5029500000000  0.5393530000000 1.0
C      1  0.4437680000000  0.5428000000000  0.5563780000000 1.0
C      1  0.5840820000000  0.5437410000000  0.4738880000000 1.0
C      1  0.5834490000000  0.4899450000000  0.5150230000000 1.0
C      1  0.4590320000000  0.4376900000000  0.5626860000000 1.0
C      1  0.5357670000000  0.5828300000000  0.4577260000000 1.0
C      1  0.4645280000000  0.5269650000000  0.4184210000000 1.0
C      1  0.4470480000000  0.4882530000000  0.5886980000000 1.0
C      1  0.4826800000000  0.5097370000000  0.4493170000000 1.0
C      1  0.5600140000000  0.4649670000000  0.5720190000000 1.0
C      1  0.5216010000000  0.4616700000000  0.5617980000000 1.0
C      1  0.4762400000000  0.5128000000000  0.5009280000000 1.0
C      1  0.5977800000000  0.4795080000000  0.4890970000000 1.0
C      1  0.4483700000000  0.4769050000000  0.4151920000000 1.0
C      1  0.5229670000000  0.4653560000000  0.5290140000000 1.0
C      1  0.5593790000000  0.5212750000000  0.4223290000000 1.0
C      1  0.5550460000000  0.4455580000000  0.4778290000000 1.0
C      1  0.4963900000000  0.5027220000000  0.4190010000000 1.0
C      1  0.6022110000000  0.4923240000000  0.5376260000000 1.0
C      1  0.5895210000000  0.4525030000000  0.5167930000000 1.0
C      1  0.4966170000000  0.4983730000000  0.6048810000000 1.0
C      1  0.4766510000000  0.5532760000000  0.5931240000000 1.0
C      1  0.5222710000000  0.4249610000000  0.5775520000000 1.0
C      1  0.5057860000000  0.5823300000000  0.5284020000000 1.0
C      1  0.5042540000000  0.4179910000000  0.4373570000000 1.0
C      1  0.4501270000000  0.5328210000000  0.4477930000000 1.0
C      1  0.4529990000000  0.4990220000000  0.4503000000000 1.0
C      1  0.4638330000000  0.4387290000000  0.4544200000000 1.0
C      1  0.4606420000000  0.5922100000000  0.4950120000000 1.0
C      1  0.4673290000000  0.5526760000000  0.4656860000000 1.0
C      1  0.5317930000000  0.5654940000000  0.5389570000000 1.0
C      1  0.4275700000000  0.5614350000000  0.5167480000000 1.0
C      1  0.5368270000000  0.5220010000000  0.4904700000000 1.0
C      1  0.4040320000000  0.4456270000000  0.5378310000000 1.0
C      1  0.4283420000000  0.5051680000000  0.5162060000000 1.0
C      1  0.4681470000000  0.4938690000000  0.6065690000000 1.0
C      1  0.3942620000000  0.4963740000000  0.5362830000000 1.0
C      1  0.4519410000000  0.4541990000000  0.4822690000000 1.0
C      1  0.5515900000000  0.4111440000000  0.4577520000000 1.0
C      1  0.5569960000000  0.5774370000000  0.5202300000000 1.0
C      1  0.4362980000000  0.5022540000000  0.4771990000000 1.0
C      1  0.5511630000000  0.5197030000000  0.4612370000000 1.0
C      1  0.4607120000000  0.4840890000000  0.4914110000000 1.0
C      1  0.5023000000000  0.5672500000000  0.4425230000000 1.0
C      1  0.4185030000000  0.4603070000000  0.4612870000000 1.0
C      1  0.4760180000000  0.4234210000000  0.5013490000000 1.0
C      1  0.5694750000000  0.5431000000000  0.4463760000000 1.0
C      1  0.4740320000000  0.4246510000000  0.4248310000000 1.0
C      1  0.4878910000000  0.5279840000000  0.5761550000000 1.0
C      1  0.5133240000000  0.5013430000000  0.4948080000000 1.0
C      1  0.4672470000000  0.6029430000000  0.4637690000000 1.0
C      1  0.5481340000000  0.4241400000000  0.5033600000000 1.0
C      1  0.6079650000000  0.4934330000000  0.4657730000000 1.0
C      1  0.4475010000000  0.4775370000000  0.5220920000000 1.0
C      1  0.4804080000000  0.4972640000000  0.5687170000000 1.0
C      1  0.5459220000000  0.5617580000000  0.4741600000000 1.0
C      1  0.5586350000000  0.4022700000000  0.4812070000000 1.0
C      1  0.4714550000000  0.4089100000000  0.5278300000000 1.0
C      1  0.4905560000000  0.5574250000000  0.4901180000000 1.0
C      1  0.5544760000000  0.5543800000000  0.4182720000000 1.0
C      1  0.5435640000000  0.5277460000000  0.5703840000000 1.0
C      1  0.4451220000000  0.5106250000000  0.5559240000000 1.0
C      1  0.4567760000000  0.5650230000000  0.5743190000000 1.0
C      1  0.5019820000000  0.4076550000000  0.4677050000000 1.0
C      1  0.4554480000000  0.4386240000000  0.5319910000000 1.0
C      1  0.5706800000000  0.5422810000000  0.5558900000000 1.0
C      1  0.4203610000000  0.5368360000000  0.4580860000000 1.0
C      1  0.5826290000000  0.5168970000000  0.4853670000000 1.0
C      1  0.5295650000000  0.4355250000000  0.4576440000000 1.0
C      1  0.5096840000000  0.4832930000000  0.5777080000000 1.0
C      1  0.4982530000000  0.4866900000000  0.5218520000000 1.0
C      1  0.5406170000000  0.5153460000000  0.5388490000000 1.0
C      1  0.4755720000000  0.5419960000000  0.5476830000000 1.0
C      1  0.5535650000000  0.4616340000000  0.4282930000000 1.0
C      1  0.5300150000000  0.5731970000000  0.4281650000000 1.0
C      1  0.4965990000000  0.5666490000000  0.5709640000000 1.0
C      1  0.4541960000000  0.5807760000000  0.5259320000000 1.0
C      1  0.4995330000000  0.4451160000000  0.5041430000000 1.0
C      1  0.4279870000000  0.4497860000000  0.5196870000000 1.0
C      1  0.5082980000000  0.4379680000000  0.5424720000000 1.0
C      1  0.5203580000000  0.5372680000000  0.5267700000000 1.0
C      1  0.4917900000000  0.4367430000000  0.5707950000000 1.0
C      1  0.4053210000000  0.4927850000000  0.4781140000000 1.0
C      1  0.4307610000000  0.4286010000000  0.4605440000000 1.0
C      1  0.5696350000000  0.5597360000000  0.4956670000000 1.0
C      1  0.4477470000000  0.4780680000000  0.5562260000000 1.0
C      1  0.4632560000000  0.4982440000000  0.4116540000000 1.0
C      1  0.4765910000000  0.5785040000000  0.4482890000000 1.0
C      1  0.3996260000000  0.4943590000000  0.5064240000000 1.0
C      1  0.5049600000000  0.4899410000000  0.3914130000000 1.0
C      1  0.5554500000000  0.4871130000000  0.5482380000000 1.0
C      1  0.4970740000000  0.4743820000000  0.4377960000000 1.0
C      1  0.5689410000000  0.5463230000000  0.5269790000000 1.0
C      1  0.4768420000000  0.4603020000000  0.5207100000000 1.0
C      1  0.5532420000000  0.4746010000000  0.5179180000000 1.0
C      1  0.5255710000000  0.5565320000000  0.5680370000000 1.0
C      1  0.4939480000000  0.5206980000000  0.4746590000000 1.0
C      1  0.4112550000000  0.5121040000000  0.5513410000000 1.0
C      1  0.4036330000000  0.5152820000000  0.4581680000000 1.0
C      1  0.5148200000000  0.4988710000000  0.5489290000000 1.0
C      1  0.4925600000000  0.5259770000000  0.5254980000000 1.0
C      1  0.4710420000000  0.5834160000000  0.5553760000000 1.0
C      1  0.5406860000000  0.4737440000000  0.4863230000000 1.0
C      1  0.5621140000000  0.5163190000000  0.5124860000000 1.0
C      1  0.4817750000000  0.5640190000000  0.5224720000000 1.0
C      1  0.5215270000000  0.5991420000000  0.4768420000000 1.0
C      1  0.5233250000000  0.5523510000000  0.4977660000000 1.0
C      1  0.5379060000000  0.4129530000000  0.5338040000000 1.0
C      1  0.4360640000000  0.5296870000000  0.4941130000000 1.0
C      1  0.4929860000000  0.5356560000000  0.4112460000000 1.0
C      1  0.4462880000000  0.4661650000000  0.4445720000000 1.0
C      1  0.5652060000000  0.4661870000000  0.4527750000000 1.0
C      1  0.5873500000000  0.4513750000000  0.4867530000000 1.0
C      1  0.4251090000000  0.5356600000000  0.5321150000000 1.0
C      1  0.5456660000000  0.4381850000000  0.5567000000000 1.0
C      1  0.5166350000000  0.5203370000000  0.5898110000000 1.0
C      1  0.5226260000000  0.5408850000000  0.4205600000000 1.0
C      1  0.4924330000000  0.5906400000000  0.4830570000000 1.0
C      1  0.5216110000000  0.4603720000000  0.4235200000000 1.0
C      1  0.5096270000000  0.4683670000000  0.4882580000000 1.0
C      1  0.5278930000000  0.5853230000000  0.5047670000000 1.0
C      1  0.4507200000000  0.5602970000000  0.4918630000000 1.0
C      1  0.5396960000000  0.4829350000000  0.4094140000000 1.0
C      1  0.4178820000000  0.5572820000000  0.4835530000000 1.0
C      1  0.4859180000000  0.4761220000000  0.4698950000000 1.0
C      1  0.4745940000000  0.4649680000000  0.5724800000000 1.0
C      1  0.5066190000000  0.5473170000000  0.4619080000000 1.0
C      1  0.4744760000000  0.4142320000000  0.4754580000000 1.0
C      1  0.5046920000000  0.4119770000000  0.5265910000000 1.0
C      1  0.5347490000000  0.4915670000000  0.4579790000000 1.0
C      1  0.4971180000000  0.4455920000000  0.4558960000000 1.0
C      1  0.5617670000000  0.4440400000000  0.5273290000000 1.0
C      1  0.5156530000000  0.4180590000000  0.4949850000000 1.0
C      1  0.5285820000000  0.5084620000000  0.4289290000000 1.0
END
