TITL C-2847956-8218-159 9.22795792003032e-07 125000 -218.07156319955 0 0 37 (C1) n - 1
REM
REM in /home/bkarasulu/work/CARBON/AIRSS/Generating-Clusters/AIREBO/with-SteepDescent/Only-C1/SD-CG-opt/Try1-1.4A-POS3A/HFTN-CG
REM
REM
REM
REM
REM
REM ./C.cell (11c1c37f851c82e70ff6c80c92926a4b)
REM
REM compiler GCC version 9.2.1 20190827 (Red Hat 9.2.1-1)
REM options -cpp -mtune=generic -march=x86-64 -g -O0 -fpre-include=/usr/include/finclude/math-vector-fortran.h
REM seed -1182380426 -485675410 -1525762854 879838330 579247545 47958695 1823617974 1309716404 1567952579 54382412 422115296 649291535 -1183469305 1367376484 -2113431194 -620378815 -1831094803 -399139851 -1343643417 -1983792513 -2018382290 1886673341 1439321110 1035281169 -756564336 -2092249511 -450720629 -1213658605 613759418 -1910469904 -1135205421 1439435704 -1398741859
REM
CELL 1.54180   50.00000   50.00000   50.00000   90.00000   90.00000   90.00000
LATT -1
SFAC C  
C      1  0.5414580000000  0.5214990000000  0.4247540000000 1.0
C      1  0.5085000000000  0.5487380000000  0.4551000000000 1.0
C      1  0.4842470000000  0.5372960000000  0.4452370000000 1.0
C      1  0.5222290000000  0.5248010000000  0.4974120000000 1.0
C      1  0.4859200000000  0.5114860000000  0.4361860000000 1.0
C      1  0.4664710000000  0.4809650000000  0.5621700000000 1.0
C      1  0.5109250000000  0.5522930000000  0.4837800000000 1.0
C      1  0.4701280000000  0.4340830000000  0.5656060000000 1.0
C      1  0.5304890000000  0.5000820000000  0.5928310000000 1.0
C      1  0.4894370000000  0.4958450000000  0.5687170000000 1.0
C      1  0.4602130000000  0.5491140000000  0.4534920000000 1.0
C      1  0.4617570000000  0.4559580000000  0.5498090000000 1.0
C      1  0.5496840000000  0.4933940000000  0.4609330000000 1.0
C      1  0.4838840000000  0.5195900000000  0.5268280000000 1.0
C      1  0.5261320000000  0.5226710000000  0.5502020000000 1.0
C      1  0.4692770000000  0.4742780000000  0.4680820000000 1.0
C      1  0.5255590000000  0.4417720000000  0.4054670000000 1.0
C      1  0.4476990000000  0.5473530000000  0.5030430000000 1.0
C      1  0.4451190000000  0.5488170000000  0.4760870000000 1.0
C      1  0.4752720000000  0.4820350000000  0.4428550000000 1.0
C      1  0.4628200000000  0.4652760000000  0.4981100000000 1.0
C      1  0.5068810000000  0.4855050000000  0.4360920000000 1.0
C      1  0.5390120000000  0.4900400000000  0.4307670000000 1.0
C      1  0.4592490000000  0.5317450000000  0.5220100000000 1.0
C      1  0.4552520000000  0.4561890000000  0.5226840000000 1.0
C      1  0.5324810000000  0.5344430000000  0.4487870000000 1.0
C      1  0.5389070000000  0.5172260000000  0.4711520000000 1.0
C      1  0.5075330000000  0.4846010000000  0.5875610000000 1.0
C      1  0.5241590000000  0.4637220000000  0.4179650000000 1.0
C      1  0.4970240000000  0.5087350000000  0.5039720000000 1.0
C      1  0.4854880000000  0.4873540000000  0.4923670000000 1.0
C      1  0.4916750000000  0.4361010000000  0.5827100000000 1.0
C      1  0.5369710000000  0.5282770000000  0.5246770000000 1.0
C      1  0.5398530000000  0.5185570000000  0.5744950000000 1.0
C      1  0.5020780000000  0.4581600000000  0.5951930000000 1.0
C      1  0.5677690000000  0.4763270000000  0.4720330000000 1.0
C      1  0.4984480000000  0.5156740000000  0.5508320000000 1.0
END
