TITL C-2847953-8112-482 0.000320066531848805 125000 -201.284520670988 0 0 35 (C1) n - 1
REM
REM in /home/bkarasulu/work/CARBON/AIRSS/Generating-Clusters/AIREBO/with-SteepDescent/Only-C1/SD-CG-opt/Try1-1.4A-POS3A/HFTN-CG
REM
REM
REM
REM
REM
REM ./C.cell (11c1c37f851c82e70ff6c80c92926a4b)
REM
REM compiler GCC version 9.2.1 20190827 (Red Hat 9.2.1-1)
REM options -cpp -mtune=generic -march=x86-64 -g -O0 -fpre-include=/usr/include/finclude/math-vector-fortran.h
REM seed 1896458549 -1542792833 165701012 1363497878 -2111166635 -1401841120 2006212124 -1394700546 2100460249 1650395205 -1853260565 -1038907368 1990504978 1821795500 159516282 1055838125 1065138064 1058944277 792622879 -801823370 1854891235 812287411 -1129197302 1316005987 1278976186 1199477342 2008809146 76263418 -473708287 -71183639 1004873565 -1681163778 -854580127
REM
CELL 1.54180   50.00000   50.00000   50.00000   90.00000   90.00000   90.00000
LATT -1
SFAC C  
C      1  0.4887180000000  0.5421560000000  0.5152860000000 1.0
C      1  0.4872330000000  0.5484050000000  0.4643170000000 1.0
C      1  0.5351030000000  0.5688280000000  0.4455780000000 1.0
C      1  0.5104810000000  0.4957090000000  0.5074640000000 1.0
C      1  0.5129830000000  0.5527980000000  0.4460020000000 1.0
C      1  0.5411110000000  0.4590230000000  0.4914890000000 1.0
C      1  0.4441380000000  0.5240890000000  0.5332030000000 1.0
C      1  0.5161860000000  0.5275030000000  0.5079620000000 1.0
C      1  0.5042220000000  0.4964050000000  0.5379530000000 1.0
C      1  0.4456060000000  0.5111260000000  0.5077820000000 1.0
C      1  0.4741000000000  0.5443320000000  0.4877340000000 1.0
C      1  0.4858940000000  0.4249400000000  0.5061690000000 1.0
C      1  0.5253170000000  0.4422230000000  0.4767660000000 1.0
C      1  0.4797460000000  0.4433620000000  0.5234610000000 1.0
C      1  0.5566080000000  0.5074920000000  0.4995380000000 1.0
C      1  0.4982730000000  0.5255720000000  0.5434160000000 1.0
C      1  0.4859250000000  0.4878510000000  0.4912730000000 1.0
C      1  0.4958990000000  0.5257130000000  0.4431390000000 1.0
C      1  0.5211780000000  0.4812310000000  0.5615810000000 1.0
C      1  0.5428790000000  0.5325650000000  0.5014430000000 1.0
C      1  0.5526470000000  0.5557760000000  0.4896010000000 1.0
C      1  0.5386830000000  0.4854170000000  0.4992810000000 1.0
C      1  0.4995130000000  0.4531900000000  0.4626870000000 1.0
C      1  0.4494650000000  0.5303180000000  0.4871810000000 1.0
C      1  0.4634480000000  0.5437200000000  0.5371020000000 1.0
C      1  0.4981560000000  0.4231730000000  0.4778690000000 1.0
C      1  0.4902870000000  0.4789460000000  0.4646960000000 1.0
C      1  0.4611540000000  0.4874280000000  0.5057850000000 1.0
C      1  0.5541550000000  0.5682300000000  0.4653730000000 1.0
C      1  0.4874520000000  0.4675910000000  0.5454150000000 1.0
C      1  0.5015900000000  0.5377880000000  0.5662360000000 1.0
C      1  0.4607290000000  0.4682460000000  0.5259530000000 1.0
C      1  0.4899640000000  0.4989700000000  0.4450600000000 1.0
C      1  0.4947880000000  0.3996020000000  0.4638730000000 1.0
C      1  0.5063680000000  0.4602850000000  0.5723340000000 1.0
END
