TITL C-2847956-8218-686 -700.537662940756 125000 -856.643225083155 0 0 149 (C1) n - 1
REM
REM in /home/bkarasulu/work/CARBON/AIRSS/Generating-Clusters/AIREBO/with-SteepDescent/Only-C1/SD-CG-opt/Try1-1.4A-POS3A/HFTN-CG
REM
REM
REM
REM
REM
REM ./C.cell (11c1c37f851c82e70ff6c80c92926a4b)
REM
REM compiler GCC version 9.2.1 20190827 (Red Hat 9.2.1-1)
REM options -cpp -mtune=generic -march=x86-64 -g -O0 -fpre-include=/usr/include/finclude/math-vector-fortran.h
REM seed -1668853288 -394256652 637771476 -786965406 -1733480667 -279471879 1764229723 -530948502 1006721081 -1106480037 -547875407 1586807068 567574516 2129049910 635885047 1773139373 2010829073 836268162 1360350143 108308578 -1446535443 -64195638 -380584159 555792583 186223961 -344442273 93903792 261809814 -289861683 -1845289864 -2145978053 1500814750 1293489673
REM
CELL 1.54180   50.00000   50.00000   50.00000   90.00000   90.00000   90.00000
LATT -1
SFAC C  
C      1  0.4973680000000  0.4732660000000  0.4531570000000 1.0
C      1  0.4478720000000  0.4940830000000  0.4870090000000 1.0
C      1  0.4591810000000  0.5488730000000  0.5157210000000 1.0
C      1  0.5418690000000  0.4227530000000  0.5282080000000 1.0
C      1  0.4449170000000  0.5269170000000  0.4803690000000 1.0
C      1  0.4186450000000  0.5346930000000  0.4639280000000 1.0
C      1  0.5129180000000  0.5843280000000  0.4612920000000 1.0
C      1  0.5121830000000  0.5125370000000  0.5437020000000 1.0
C      1  0.5946770000000  0.5238930000000  0.5256130000000 1.0
C      1  0.5010480000000  0.4433920000000  0.5552730000000 1.0
C      1  0.4382560000000  0.5190930000000  0.4224510000000 1.0
C      1  0.5554650000000  0.5308910000000  0.5221590000000 1.0
C      1  0.4964120000000  0.5475580000000  0.5329460000000 1.0
C      1  0.4548170000000  0.5283110000000  0.5813490000000 1.0
C      1  0.5248190000000  0.4124500000000  0.4701490000000 1.0
C      1  0.4273730000000  0.4868940000000  0.4608430000000 1.0
C      1  0.4332740000000  0.4361440000000  0.5482300000000 1.0
C      1  0.5436740000000  0.4522530000000  0.4370920000000 1.0
C      1  0.4810410000000  0.4777790000000  0.4063240000000 1.0
C      1  0.5508160000000  0.5254000000000  0.4413440000000 1.0
C      1  0.5404780000000  0.5495330000000  0.4977510000000 1.0
C      1  0.5110660000000  0.5641480000000  0.5071280000000 1.0
C      1  0.5314060000000  0.5072010000000  0.5181140000000 1.0
C      1  0.4810410000000  0.4449260000000  0.4485990000000 1.0
C      1  0.4821920000000  0.5925640000000  0.4647730000000 1.0
C      1  0.4984810000000  0.4303650000000  0.4232880000000 1.0
C      1  0.6120080000000  0.5213060000000  0.4959270000000 1.0
C      1  0.3953100000000  0.5212830000000  0.4710390000000 1.0
C      1  0.4827350000000  0.4989380000000  0.5460680000000 1.0
C      1  0.4398170000000  0.4862610000000  0.5627950000000 1.0
C      1  0.5126590000000  0.5104580000000  0.5934030000000 1.0
C      1  0.4796450000000  0.4335640000000  0.4783770000000 1.0
C      1  0.4246360000000  0.5749490000000  0.5270490000000 1.0
C      1  0.4030700000000  0.4829200000000  0.5012450000000 1.0
C      1  0.5772330000000  0.5729560000000  0.5077800000000 1.0
C      1  0.5268580000000  0.4021010000000  0.5440200000000 1.0
C      1  0.5120950000000  0.4558030000000  0.5256020000000 1.0
C      1  0.4486900000000  0.5584930000000  0.4848430000000 1.0
C      1  0.4768080000000  0.4849840000000  0.4724610000000 1.0
C      1  0.5148580000000  0.3826370000000  0.5273320000000 1.0
C      1  0.4967930000000  0.4274670000000  0.5163730000000 1.0
C      1  0.4677470000000  0.4175310000000  0.4334640000000 1.0
C      1  0.5403530000000  0.5176090000000  0.4879280000000 1.0
C      1  0.5030290000000  0.5096150000000  0.4995260000000 1.0
C      1  0.4968270000000  0.4573920000000  0.5925020000000 1.0
C      1  0.5075220000000  0.4565580000000  0.4035460000000 1.0
C      1  0.3999390000000  0.5606670000000  0.5221310000000 1.0
C      1  0.5412310000000  0.5642800000000  0.4304170000000 1.0
C      1  0.5641970000000  0.5476190000000  0.5605490000000 1.0
C      1  0.4817510000000  0.5256170000000  0.5163150000000 1.0
C      1  0.4886000000000  0.4889160000000  0.5867630000000 1.0
C      1  0.4348370000000  0.4406450000000  0.4774560000000 1.0
C      1  0.4808360000000  0.5225080000000  0.5663870000000 1.0
C      1  0.4282070000000  0.5421400000000  0.4369740000000 1.0
C      1  0.5379320000000  0.4635270000000  0.4076360000000 1.0
C      1  0.5795990000000  0.5428730000000  0.5020860000000 1.0
C      1  0.4649290000000  0.5178230000000  0.4342570000000 1.0
C      1  0.4443840000000  0.5076200000000  0.5391630000000 1.0
C      1  0.5020220000000  0.4766900000000  0.5580040000000 1.0
C      1  0.4989870000000  0.5263940000000  0.4728430000000 1.0
C      1  0.4846200000000  0.5943350000000  0.5367760000000 1.0
C      1  0.5528930000000  0.5170490000000  0.4099630000000 1.0
C      1  0.4844180000000  0.5673270000000  0.5817210000000 1.0
C      1  0.4527600000000  0.5571160000000  0.5762280000000 1.0
C      1  0.4808640000000  0.4605910000000  0.4949580000000 1.0
C      1  0.5155480000000  0.6072150000000  0.5694140000000 1.0
C      1  0.4677200000000  0.4304950000000  0.5222800000000 1.0
C      1  0.5114980000000  0.6023140000000  0.5414960000000 1.0
C      1  0.5585780000000  0.4845000000000  0.4040700000000 1.0
C      1  0.4797060000000  0.5643360000000  0.4481450000000 1.0
C      1  0.4346830000000  0.4797440000000  0.4335760000000 1.0
C      1  0.4578060000000  0.4108260000000  0.4893000000000 1.0
C      1  0.4333160000000  0.5366550000000  0.5342830000000 1.0
C      1  0.4980070000000  0.4076970000000  0.4817140000000 1.0
C      1  0.4586890000000  0.4632320000000  0.5206030000000 1.0
C      1  0.4391940000000  0.5634470000000  0.5526900000000 1.0
C      1  0.4793540000000  0.5759580000000  0.5107090000000 1.0
C      1  0.5670990000000  0.4963030000000  0.5688190000000 1.0
C      1  0.5288700000000  0.5859340000000  0.5262620000000 1.0
C      1  0.5893540000000  0.4683470000000  0.4430650000000 1.0
C      1  0.4001970000000  0.4913830000000  0.4698200000000 1.0
C      1  0.4305790000000  0.4475280000000  0.4282110000000 1.0
C      1  0.5234100000000  0.4482450000000  0.5920690000000 1.0
C      1  0.5822430000000  0.4523790000000  0.5441600000000 1.0
C      1  0.5264460000000  0.4292390000000  0.4996700000000 1.0
C      1  0.5627500000000  0.4756920000000  0.4796330000000 1.0
C      1  0.5997880000000  0.4684170000000  0.5282810000000 1.0
C      1  0.5894460000000  0.5258990000000  0.4737510000000 1.0
C      1  0.4065120000000  0.5179940000000  0.5441130000000 1.0
C      1  0.4986820000000  0.5038790000000  0.4067470000000 1.0
C      1  0.5736960000000  0.4802830000000  0.5097130000000 1.0
C      1  0.4364360000000  0.4283320000000  0.5091290000000 1.0
C      1  0.5731280000000  0.4433520000000  0.4778920000000 1.0
C      1  0.4503920000000  0.4930660000000  0.4065230000000 1.0
C      1  0.4934380000000  0.5511630000000  0.4242330000000 1.0
C      1  0.5802630000000  0.5887130000000  0.4837390000000 1.0
C      1  0.3910910000000  0.5149030000000  0.5003540000000 1.0
C      1  0.4103190000000  0.4900570000000  0.5494740000000 1.0
C      1  0.4740670000000  0.4517380000000  0.5712420000000 1.0
C      1  0.5394630000000  0.4958980000000  0.4652800000000 1.0
C      1  0.4039810000000  0.4704320000000  0.5294240000000 1.0
C      1  0.5338530000000  0.4609970000000  0.4899260000000 1.0
C      1  0.5693410000000  0.4674130000000  0.5652650000000 1.0
C      1  0.4980340000000  0.5577700000000  0.4763690000000 1.0
C      1  0.5575330000000  0.5665060000000  0.4737140000000 1.0
C      1  0.4501310000000  0.5565360000000  0.4526990000000 1.0
C      1  0.4516320000000  0.4600730000000  0.5537410000000 1.0
C      1  0.5812490000000  0.4308930000000  0.5011110000000 1.0
C      1  0.4404420000000  0.5824490000000  0.5047630000000 1.0
C      1  0.5311620000000  0.4888660000000  0.5535960000000 1.0
C      1  0.5412570000000  0.5564800000000  0.5560460000000 1.0
C      1  0.5018630000000  0.5394930000000  0.5839580000000 1.0
C      1  0.5670070000000  0.5466250000000  0.4214160000000 1.0
C      1  0.4676810000000  0.5935030000000  0.4880780000000 1.0
C      1  0.5104930000000  0.4146180000000  0.5620520000000 1.0
C      1  0.4997140000000  0.3957650000000  0.5079490000000 1.0
C      1  0.5391100000000  0.5796800000000  0.4534720000000 1.0
C      1  0.5234780000000  0.4287460000000  0.4436440000000 1.0
C      1  0.5719640000000  0.5443560000000  0.4561120000000 1.0
C      1  0.5489370000000  0.4797850000000  0.5273100000000 1.0
C      1  0.4711990000000  0.5157740000000  0.4630780000000 1.0
C      1  0.5712670000000  0.4321560000000  0.5275710000000 1.0
C      1  0.4426780000000  0.4317090000000  0.4515410000000 1.0
C      1  0.5400030000000  0.4514230000000  0.5433840000000 1.0
C      1  0.4322880000000  0.4665320000000  0.4994260000000 1.0
C      1  0.6035300000000  0.4952970000000  0.5129180000000 1.0
C      1  0.5823600000000  0.4963570000000  0.4610260000000 1.0
C      1  0.5218250000000  0.5223930000000  0.4532620000000 1.0
C      1  0.5081340000000  0.4777170000000  0.5019690000000 1.0
C      1  0.4571220000000  0.4978430000000  0.5860670000000 1.0
C      1  0.4844320000000  0.5258550000000  0.4168590000000 1.0
C      1  0.5781590000000  0.4914790000000  0.4270220000000 1.0
C      1  0.5196010000000  0.5476330000000  0.4305850000000 1.0
C      1  0.3956210000000  0.5324810000000  0.5210890000000 1.0
C      1  0.5735950000000  0.5196950000000  0.5487460000000 1.0
C      1  0.4486650000000  0.4122610000000  0.5435480000000 1.0
C      1  0.5159640000000  0.5401370000000  0.5561760000000 1.0
C      1  0.4649630000000  0.4964770000000  0.5171800000000 1.0
C      1  0.5261350000000  0.4810670000000  0.4414650000000 1.0
C      1  0.5712510000000  0.4484050000000  0.4492800000000 1.0
C      1  0.5010870000000  0.5929630000000  0.5884180000000 1.0
C      1  0.4617900000000  0.4609660000000  0.4264880000000 1.0
C      1  0.5244630000000  0.4997940000000  0.4170720000000 1.0
C      1  0.5450940000000  0.4531400000000  0.5751160000000 1.0
C      1  0.4804870000000  0.5679190000000  0.5497710000000 1.0
C      1  0.5164180000000  0.4511670000000  0.4660950000000 1.0
C      1  0.5388260000000  0.5032150000000  0.5817280000000 1.0
C      1  0.5565160000000  0.5816750000000  0.5248090000000 1.0
C      1  0.4129120000000  0.4435170000000  0.5284870000000 1.0
END
