TITL C-2847948-6138-424 -0.00093881569115761 125000 -657.223841601706 0 0 121 (C1) n - 1
REM
REM in /home/bkarasulu/work/CARBON/AIRSS/Generating-Clusters/AIREBO/with-SteepDescent/Only-C1/SD-CG-opt/Try1-1.4A-POS3A/HFTN-CG
REM
REM
REM
REM
REM
REM ./C.cell (11c1c37f851c82e70ff6c80c92926a4b)
REM
REM compiler GCC version 9.2.1 20190827 (Red Hat 9.2.1-1)
REM options -cpp -mtune=generic -march=x86-64 -g -O0 -fpre-include=/usr/include/finclude/math-vector-fortran.h
REM seed -1207697044 -837303192 -155642764 -1807087309 1875452771 1915606403 -503116554 1121176443 1145329267 341444092 1653819795 2068117542 -394932517 2040223877 2042643792 -163053426 -1731114946 -139816442 1749241253 -1251993405 1634469415 86882559 -1161031253 -108012926 -668208579 251617134 -793352004 151834165 -1365902548 346970323 -1326785402 -956177165 -522620383
REM
CELL 1.54180   50.00000   50.00000   50.00000   90.00000   90.00000   90.00000
LATT -1
SFAC C  
C      1  0.5279820000000  0.5175940000000  0.5182160000000 1.0
C      1  0.3966850000000  0.5204550000000  0.5108540000000 1.0
C      1  0.4040450000000  0.4590380000000  0.4686270000000 1.0
C      1  0.4350000000000  0.4615080000000  0.5477410000000 1.0
C      1  0.4366790000000  0.5032540000000  0.4412690000000 1.0
C      1  0.4765670000000  0.5542900000000  0.5611730000000 1.0
C      1  0.5254160000000  0.5608070000000  0.4151260000000 1.0
C      1  0.4561160000000  0.5862460000000  0.4787210000000 1.0
C      1  0.4195860000000  0.5034650000000  0.5550850000000 1.0
C      1  0.5402380000000  0.4975380000000  0.4358540000000 1.0
C      1  0.5561290000000  0.5636430000000  0.5608010000000 1.0
C      1  0.4446160000000  0.4232700000000  0.4804800000000 1.0
C      1  0.4748780000000  0.5342050000000  0.5097840000000 1.0
C      1  0.4856590000000  0.5695560000000  0.4453140000000 1.0
C      1  0.4761380000000  0.5056860000000  0.3923370000000 1.0
C      1  0.5244800000000  0.4753360000000  0.5164400000000 1.0
C      1  0.5292330000000  0.4011910000000  0.5190250000000 1.0
C      1  0.4631680000000  0.4232740000000  0.5602460000000 1.0
C      1  0.5091010000000  0.5174740000000  0.5611840000000 1.0
C      1  0.4663090000000  0.4570270000000  0.5631190000000 1.0
C      1  0.5204130000000  0.5000760000000  0.5952880000000 1.0
C      1  0.4274800000000  0.5348400000000  0.5470180000000 1.0
C      1  0.5790880000000  0.4556950000000  0.4752860000000 1.0
C      1  0.4710980000000  0.4662680000000  0.5007500000000 1.0
C      1  0.4581600000000  0.5587360000000  0.5160280000000 1.0
C      1  0.5267860000000  0.5220760000000  0.4442430000000 1.0
C      1  0.4649250000000  0.5100790000000  0.5788130000000 1.0
C      1  0.4995370000000  0.5225350000000  0.4290240000000 1.0
C      1  0.4706760000000  0.5317610000000  0.4138360000000 1.0
C      1  0.5833950000000  0.4991060000000  0.5704580000000 1.0
C      1  0.5230710000000  0.4864470000000  0.5578300000000 1.0
C      1  0.4977840000000  0.5865760000000  0.5057580000000 1.0
C      1  0.5339600000000  0.4360930000000  0.4678180000000 1.0
C      1  0.4283070000000  0.4818890000000  0.4901120000000 1.0
C      1  0.5735080000000  0.5245590000000  0.4927810000000 1.0
C      1  0.5271800000000  0.5686870000000  0.5711160000000 1.0
C      1  0.4916240000000  0.4783700000000  0.5553650000000 1.0
C      1  0.4370230000000  0.5618630000000  0.4740870000000 1.0
C      1  0.5449060000000  0.5421170000000  0.4919310000000 1.0
C      1  0.4650500000000  0.5027590000000  0.4302990000000 1.0
C      1  0.5258850000000  0.4725890000000  0.4275080000000 1.0
C      1  0.5162170000000  0.4319230000000  0.5471860000000 1.0
C      1  0.6108250000000  0.5017180000000  0.5212530000000 1.0
C      1  0.4861760000000  0.4824710000000  0.4130250000000 1.0
C      1  0.4706780000000  0.5936420000000  0.4572390000000 1.0
C      1  0.4439080000000  0.4279710000000  0.5131300000000 1.0
C      1  0.5060900000000  0.4513490000000  0.6006590000000 1.0
C      1  0.5153220000000  0.5472720000000  0.5207710000000 1.0
C      1  0.5333400000000  0.3849340000000  0.4930020000000 1.0
C      1  0.4603350000000  0.4625850000000  0.4226620000000 1.0
C      1  0.5485050000000  0.4613140000000  0.4502550000000 1.0
C      1  0.5059170000000  0.4341470000000  0.4517710000000 1.0
C      1  0.4290340000000  0.5558290000000  0.5046080000000 1.0
C      1  0.5352310000000  0.4530540000000  0.5401120000000 1.0
C      1  0.5653480000000  0.4910310000000  0.4496160000000 1.0
C      1  0.5793890000000  0.4715560000000  0.5721760000000 1.0
C      1  0.5166740000000  0.5982540000000  0.5589730000000 1.0
C      1  0.4318190000000  0.5280510000000  0.4536760000000 1.0
C      1  0.5709370000000  0.4471000000000  0.5236840000000 1.0
C      1  0.4702480000000  0.5824360000000  0.5021210000000 1.0
C      1  0.4678540000000  0.4827390000000  0.5869700000000 1.0
C      1  0.5484590000000  0.4574660000000  0.4899490000000 1.0
C      1  0.5385840000000  0.5169600000000  0.5781150000000 1.0
C      1  0.5095850000000  0.5434140000000  0.5825730000000 1.0
C      1  0.4995820000000  0.4792660000000  0.4615560000000 1.0
C      1  0.5680480000000  0.5652430000000  0.5364700000000 1.0
C      1  0.5027820000000  0.5627490000000  0.5483390000000 1.0
C      1  0.5652820000000  0.4768340000000  0.5123040000000 1.0
C      1  0.4533790000000  0.4617580000000  0.4493670000000 1.0
C      1  0.4376660000000  0.5547430000000  0.4414970000000 1.0
C      1  0.5052660000000  0.5915800000000  0.5320220000000 1.0
C      1  0.5181890000000  0.4100340000000  0.4823330000000 1.0
C      1  0.5425180000000  0.5461530000000  0.4345290000000 1.0
C      1  0.4808860000000  0.4949040000000  0.5068140000000 1.0
C      1  0.4629570000000  0.5562090000000  0.4287100000000 1.0
C      1  0.5686310000000  0.5581610000000  0.5102540000000 1.0
C      1  0.4918240000000  0.4349790000000  0.5359170000000 1.0
C      1  0.4609390000000  0.4026020000000  0.4695290000000 1.0
C      1  0.4759990000000  0.4580470000000  0.4699380000000 1.0
C      1  0.5300560000000  0.4799780000000  0.4723190000000 1.0
C      1  0.5205180000000  0.5260170000000  0.4753000000000 1.0
C      1  0.4979760000000  0.4592370000000  0.4348930000000 1.0
C      1  0.5782570000000  0.4491090000000  0.5508870000000 1.0
C      1  0.5684680000000  0.4460200000000  0.4337660000000 1.0
C      1  0.5447140000000  0.4278780000000  0.5194750000000 1.0
C      1  0.4948030000000  0.5264530000000  0.3824060000000 1.0
C      1  0.5872630000000  0.4974790000000  0.5026100000000 1.0
C      1  0.4998970000000  0.4755960000000  0.5882380000000 1.0
C      1  0.4031630000000  0.4958070000000  0.5016010000000 1.0
C      1  0.4534380000000  0.5541080000000  0.5459890000000 1.0
C      1  0.5185690000000  0.5637870000000  0.4912180000000 1.0
C      1  0.5462130000000  0.4944890000000  0.5342470000000 1.0
C      1  0.4261300000000  0.4479010000000  0.4919580000000 1.0
C      1  0.5836570000000  0.5097380000000  0.4648100000000 1.0
C      1  0.4620780000000  0.4513590000000  0.5298310000000 1.0
C      1  0.4976700000000  0.5502120000000  0.4683060000000 1.0
C      1  0.5933340000000  0.4795690000000  0.4757590000000 1.0
C      1  0.4869960000000  0.5060430000000  0.4551600000000 1.0
C      1  0.4792220000000  0.5340710000000  0.5827750000000 1.0
C      1  0.5124550000000  0.4989970000000  0.4943560000000 1.0
C      1  0.4969780000000  0.4056890000000  0.5091820000000 1.0
C      1  0.4127540000000  0.5408700000000  0.5211100000000 1.0
C      1  0.4478440000000  0.5302210000000  0.4807480000000 1.0
C      1  0.4804540000000  0.5260340000000  0.4779790000000 1.0
C      1  0.4510110000000  0.5108270000000  0.5517920000000 1.0
C      1  0.5079330000000  0.5412650000000  0.4032450000000 1.0
C      1  0.5199930000000  0.4455610000000  0.5042310000000 1.0
C      1  0.5588250000000  0.5587230000000  0.4552360000000 1.0
C      1  0.4886800000000  0.4379160000000  0.5021870000000 1.0
C      1  0.5487080000000  0.4652720000000  0.5650640000000 1.0
C      1  0.5158070000000  0.5753370000000  0.4400370000000 1.0
C      1  0.4933760000000  0.5264690000000  0.5350240000000 1.0
C      1  0.5337980000000  0.5745270000000  0.4627660000000 1.0
C      1  0.5796640000000  0.5435810000000  0.4653160000000 1.0
C      1  0.4772520000000  0.4995900000000  0.5379180000000 1.0
C      1  0.4147540000000  0.4774650000000  0.5530100000000 1.0
C      1  0.4529650000000  0.5009200000000  0.4925080000000 1.0
C      1  0.4834260000000  0.4257430000000  0.4708440000000 1.0
C      1  0.4690610000000  0.4120790000000  0.5286710000000 1.0
C      1  0.4295150000000  0.4783200000000  0.4569840000000 1.0
C      1  0.5600210000000  0.5112880000000  0.5603870000000 1.0
END
