TITL C-2848507-1641-83 0.00419055927092313 125000 -1054.91934938564 0 0 190 (C1) n - 1
REM
REM in /home/bkarasulu/work/CARBON/AIRSS/Generating-Clusters/AIREBO/with-SteepDescent/Only-C1/SD-CG-opt/Try1-1.4A-POS3A/HFTN-CG
REM
REM
REM
REM
REM
REM ./C.cell (11c1c37f851c82e70ff6c80c92926a4b)
REM
REM compiler GCC version 9.2.1 20190827 (Red Hat 9.2.1-1)
REM options -cpp -mtune=generic -march=x86-64 -g -O0 -fpre-include=/usr/include/finclude/math-vector-fortran.h
REM seed -1535280227 1980861056 1319806013 -498892945 458322538 1126483763 1513625168 -2091255190 1155306090 -1911162060 973135234 1135001103 -524211928 1428537580 -1691033103 -816636758 448856358 2083822048 -496243132 -1036804307 -1515908526 598407402 479304290 -311632136 -1863093480 -1363365061 628785494 -711246929 -1674292852 -795333745 -1194678408 1622067643 -1365318650
REM
CELL 1.54180   50.00000   50.00000   50.00000   90.00000   90.00000   90.00000
LATT -1
SFAC C  
C      1  0.5386480000000  0.5612350000000  0.4780430000000 1.0
C      1  0.4875060000000  0.4038010000000  0.4860610000000 1.0
C      1  0.5745120000000  0.4584420000000  0.5769540000000 1.0
C      1  0.4687540000000  0.4468030000000  0.3918390000000 1.0
C      1  0.5060750000000  0.5239280000000  0.4241250000000 1.0
C      1  0.5437850000000  0.5419980000000  0.4541440000000 1.0
C      1  0.4334160000000  0.4912710000000  0.6017260000000 1.0
C      1  0.4952650000000  0.5887120000000  0.5644840000000 1.0
C      1  0.5305950000000  0.4339550000000  0.5896560000000 1.0
C      1  0.4192380000000  0.5113660000000  0.4724760000000 1.0
C      1  0.3920070000000  0.5305230000000  0.5092720000000 1.0
C      1  0.4816710000000  0.5650270000000  0.4043650000000 1.0
C      1  0.4267010000000  0.5598860000000  0.4369870000000 1.0
C      1  0.4968670000000  0.4231490000000  0.4315180000000 1.0
C      1  0.4182340000000  0.5692810000000  0.4605200000000 1.0
C      1  0.4943350000000  0.4928690000000  0.5294930000000 1.0
C      1  0.5672870000000  0.5070510000000  0.4783880000000 1.0
C      1  0.4979590000000  0.4700150000000  0.5075670000000 1.0
C      1  0.5804930000000  0.5220980000000  0.5379590000000 1.0
C      1  0.4746150000000  0.5143680000000  0.4154590000000 1.0
C      1  0.5285790000000  0.3985360000000  0.5114980000000 1.0
C      1  0.4864950000000  0.5259910000000  0.4762810000000 1.0
C      1  0.4272880000000  0.5530730000000  0.4890050000000 1.0
C      1  0.4863030000000  0.5730640000000  0.4298450000000 1.0
C      1  0.5522960000000  0.5855450000000  0.5757480000000 1.0
C      1  0.4431280000000  0.5877340000000  0.5553220000000 1.0
C      1  0.5854300000000  0.4308350000000  0.5082250000000 1.0
C      1  0.4962510000000  0.4427450000000  0.4584970000000 1.0
C      1  0.4911530000000  0.5760410000000  0.4690520000000 1.0
C      1  0.4788340000000  0.4071420000000  0.4535640000000 1.0
C      1  0.6028020000000  0.4565380000000  0.4586130000000 1.0
C      1  0.5044920000000  0.6269470000000  0.4846270000000 1.0
C      1  0.5991530000000  0.4489230000000  0.4312010000000 1.0
C      1  0.4690580000000  0.5485420000000  0.5804390000000 1.0
C      1  0.5142340000000  0.4821400000000  0.4855420000000 1.0
C      1  0.5445970000000  0.4694290000000  0.6172150000000 1.0
C      1  0.5343440000000  0.4022610000000  0.5415470000000 1.0
C      1  0.4849430000000  0.5279760000000  0.5588360000000 1.0
C      1  0.4784620000000  0.5497930000000  0.4533330000000 1.0
C      1  0.4771560000000  0.4661500000000  0.6055960000000 1.0
C      1  0.4564130000000  0.4854800000000  0.4978200000000 1.0
C      1  0.5992760000000  0.4997120000000  0.5220250000000 1.0
C      1  0.4790430000000  0.6185930000000  0.4936010000000 1.0
C      1  0.5113390000000  0.4808160000000  0.5834570000000 1.0
C      1  0.5052880000000  0.6174940000000  0.4285420000000 1.0
C      1  0.4440450000000  0.4097330000000  0.5186700000000 1.0
C      1  0.5001720000000  0.4489370000000  0.5873640000000 1.0
C      1  0.5147850000000  0.5226010000000  0.5565790000000 1.0
C      1  0.5336980000000  0.5445700000000  0.5589890000000 1.0
C      1  0.5222160000000  0.5716590000000  0.5693990000000 1.0
C      1  0.4664310000000  0.4931800000000  0.4581140000000 1.0
C      1  0.6205360000000  0.4655380000000  0.4793440000000 1.0
C      1  0.4011400000000  0.4888380000000  0.4107560000000 1.0
C      1  0.4663340000000  0.5466100000000  0.4943400000000 1.0
C      1  0.5207160000000  0.4226420000000  0.4709440000000 1.0
C      1  0.5791240000000  0.4942150000000  0.4294170000000 1.0
C      1  0.5484670000000  0.5896380000000  0.5137560000000 1.0
C      1  0.4249400000000  0.5915910000000  0.4801750000000 1.0
C      1  0.4404930000000  0.4410050000000  0.5063080000000 1.0
C      1  0.4239130000000  0.4636500000000  0.5557110000000 1.0
C      1  0.5195810000000  0.4876520000000  0.3662260000000 1.0
C      1  0.3967470000000  0.4436380000000  0.4652430000000 1.0
C      1  0.5128810000000  0.4515290000000  0.5497710000000 1.0
C      1  0.5167870000000  0.5129700000000  0.4846360000000 1.0
C      1  0.5397660000000  0.5141080000000  0.4641180000000 1.0
C      1  0.5726700000000  0.4588010000000  0.4706170000000 1.0
C      1  0.4907420000000  0.5776760000000  0.6245590000000 1.0
C      1  0.4952980000000  0.5076470000000  0.4490200000000 1.0
C      1  0.4493330000000  0.5675900000000  0.5308860000000 1.0
C      1  0.5338390000000  0.4991250000000  0.4387420000000 1.0
C      1  0.5225480000000  0.4598900000000  0.4118050000000 1.0
C      1  0.5596980000000  0.4619190000000  0.5469020000000 1.0
C      1  0.4378610000000  0.5492680000000  0.4084900000000 1.0
C      1  0.4299090000000  0.3892520000000  0.5354720000000 1.0
C      1  0.4795420000000  0.5835850000000  0.5397560000000 1.0
C      1  0.4377800000000  0.4068750000000  0.4857370000000 1.0
C      1  0.4721950000000  0.5936740000000  0.4838640000000 1.0
C      1  0.5879840000000  0.4274770000000  0.5395770000000 1.0
C      1  0.5173450000000  0.5690990000000  0.6102090000000 1.0
C      1  0.4891350000000  0.5707400000000  0.5912910000000 1.0
C      1  0.5096300000000  0.3829380000000  0.4990790000000 1.0
C      1  0.4520470000000  0.5779560000000  0.5788760000000 1.0
C      1  0.5093770000000  0.5630930000000  0.4896460000000 1.0
C      1  0.4898210000000  0.4320480000000  0.5593750000000 1.0
C      1  0.4642910000000  0.4669450000000  0.5679680000000 1.0
C      1  0.4217530000000  0.4933510000000  0.5709040000000 1.0
C      1  0.4453740000000  0.4479190000000  0.4733550000000 1.0
C      1  0.4615680000000  0.4892850000000  0.6012150000000 1.0
C      1  0.4572760000000  0.6075010000000  0.5352940000000 1.0
C      1  0.5322520000000  0.4110720000000  0.5745040000000 1.0
C      1  0.4896800000000  0.4833840000000  0.4123930000000 1.0
C      1  0.5014790000000  0.5381040000000  0.5113110000000 1.0
C      1  0.4855740000000  0.5665170000000  0.5141010000000 1.0
C      1  0.5456720000000  0.4688760000000  0.4818170000000 1.0
C      1  0.4882420000000  0.4855340000000  0.5597060000000 1.0
C      1  0.5439070000000  0.5658740000000  0.6022180000000 1.0
C      1  0.4406780000000  0.4503940000000  0.4106780000000 1.0
C      1  0.4503190000000  0.5763890000000  0.4980540000000 1.0
C      1  0.5208410000000  0.4613220000000  0.4621310000000 1.0
C      1  0.5333160000000  0.5754070000000  0.4348370000000 1.0
C      1  0.4565980000000  0.4822030000000  0.3562580000000 1.0
C      1  0.5714310000000  0.5656920000000  0.4705630000000 1.0
C      1  0.5252450000000  0.4752910000000  0.4375460000000 1.0
C      1  0.4767470000000  0.4235880000000  0.5045890000000 1.0
C      1  0.5756930000000  0.4597430000000  0.5195740000000 1.0
C      1  0.5456330000000  0.4449870000000  0.5136380000000 1.0
C      1  0.5315820000000  0.5252380000000  0.5126870000000 1.0
C      1  0.4372750000000  0.4870050000000  0.4729190000000 1.0
C      1  0.3935870000000  0.5413590000000  0.5689350000000 1.0
C      1  0.6087540000000  0.4714980000000  0.5384900000000 1.0
C      1  0.4745820000000  0.5276140000000  0.5293050000000 1.0
C      1  0.5578550000000  0.4876020000000  0.5773660000000 1.0
C      1  0.5833430000000  0.4301570000000  0.4813710000000 1.0
C      1  0.5145540000000  0.4490840000000  0.5206020000000 1.0
C      1  0.4031270000000  0.4793180000000  0.5255520000000 1.0
C      1  0.5248560000000  0.6053390000000  0.5694670000000 1.0
C      1  0.5785670000000  0.5428500000000  0.5653310000000 1.0
C      1  0.4401060000000  0.4443870000000  0.5759270000000 1.0
C      1  0.5789690000000  0.4885210000000  0.4567140000000 1.0
C      1  0.5258030000000  0.5011100000000  0.5342600000000 1.0
C      1  0.5722420000000  0.4897480000000  0.5039580000000 1.0
C      1  0.5355050000000  0.5157420000000  0.4091740000000 1.0
C      1  0.5580780000000  0.4228390000000  0.5362350000000 1.0
C      1  0.5412230000000  0.5664730000000  0.5360500000000 1.0
C      1  0.5516350000000  0.5400770000000  0.5848490000000 1.0
C      1  0.5972180000000  0.4508800000000  0.5537730000000 1.0
C      1  0.4929540000000  0.4481700000000  0.4102350000000 1.0
C      1  0.4693740000000  0.5056190000000  0.5767390000000 1.0
C      1  0.5674610000000  0.5181330000000  0.4205990000000 1.0
C      1  0.4416370000000  0.5345570000000  0.5346450000000 1.0
C      1  0.5865830000000  0.4074290000000  0.4665460000000 1.0
C      1  0.4420810000000  0.5202360000000  0.5655010000000 1.0
C      1  0.5721210000000  0.5694240000000  0.5258520000000 1.0
C      1  0.4631400000000  0.4682640000000  0.4273500000000 1.0
C      1  0.5242160000000  0.5476400000000  0.4304930000000 1.0
C      1  0.4236090000000  0.5014070000000  0.4139650000000 1.0
C      1  0.4176240000000  0.4245890000000  0.4760580000000 1.0
C      1  0.4654440000000  0.4303520000000  0.5356700000000 1.0
C      1  0.5853450000000  0.4716940000000  0.4135900000000 1.0
C      1  0.3983160000000  0.5199740000000  0.5524830000000 1.0
C      1  0.4510840000000  0.4916690000000  0.4061050000000 1.0
C      1  0.3935530000000  0.4892150000000  0.5527980000000 1.0
C      1  0.4155650000000  0.5433850000000  0.5146700000000 1.0
C      1  0.5739800000000  0.5726130000000  0.5580770000000 1.0
C      1  0.4580410000000  0.4748180000000  0.3811230000000 1.0
C      1  0.4689770000000  0.4592500000000  0.4576470000000 1.0
C      1  0.5479070000000  0.5132450000000  0.5965710000000 1.0
C      1  0.4220570000000  0.5068970000000  0.5317410000000 1.0
C      1  0.6229990000000  0.5185090000000  0.5169400000000 1.0
C      1  0.4704150000000  0.4567970000000  0.5028820000000 1.0
C      1  0.4364330000000  0.5426190000000  0.5871820000000 1.0
C      1  0.5745510000000  0.5363870000000  0.4875320000000 1.0
C      1  0.5335110000000  0.4210180000000  0.4955490000000 1.0
C      1  0.5299450000000  0.4909990000000  0.6057450000000 1.0
C      1  0.6155710000000  0.4742930000000  0.5052890000000 1.0
C      1  0.4780260000000  0.5068410000000  0.5030830000000 1.0
C      1  0.5278500000000  0.4141480000000  0.4230480000000 1.0
C      1  0.5087060000000  0.3846900000000  0.4674820000000 1.0
C      1  0.4445060000000  0.5310390000000  0.4731210000000 1.0
C      1  0.4106500000000  0.5494740000000  0.5889700000000 1.0
C      1  0.4635580000000  0.4407360000000  0.5945330000000 1.0
C      1  0.4590290000000  0.5233730000000  0.4443290000000 1.0
C      1  0.5757380000000  0.5103260000000  0.5682430000000 1.0
C      1  0.3944040000000  0.5161820000000  0.4814350000000 1.0
C      1  0.4446120000000  0.4228690000000  0.3948840000000 1.0
C      1  0.5425300000000  0.4364720000000  0.4134900000000 1.0
C      1  0.5369080000000  0.5315510000000  0.3839850000000 1.0
C      1  0.5725370000000  0.5430520000000  0.4379600000000 1.0
C      1  0.5379250000000  0.5909810000000  0.4886410000000 1.0
C      1  0.4640470000000  0.6264070000000  0.5161950000000 1.0
C      1  0.5251910000000  0.4016940000000  0.4498500000000 1.0
C      1  0.3646680000000  0.5225110000000  0.4929810000000 1.0
C      1  0.4427400000000  0.4832740000000  0.5248530000000 1.0
C      1  0.5192920000000  0.4886480000000  0.3965310000000 1.0
C      1  0.5416450000000  0.4787670000000  0.5141080000000 1.0
C      1  0.5628370000000  0.5381760000000  0.5161370000000 1.0
C      1  0.5089360000000  0.5931640000000  0.4453420000000 1.0
C      1  0.5318340000000  0.4771130000000  0.5575880000000 1.0
C      1  0.4529970000000  0.4575070000000  0.5404970000000 1.0
C      1  0.5520870000000  0.4494090000000  0.5986120000000 1.0
C      1  0.4642270000000  0.5432340000000  0.4006420000000 1.0
C      1  0.4286760000000  0.5265900000000  0.4293390000000 1.0
C      1  0.5216530000000  0.6072590000000  0.4735660000000 1.0
C      1  0.4170860000000  0.4530080000000  0.5241100000000 1.0
C      1  0.4184680000000  0.4626380000000  0.4643190000000 1.0
C      1  0.4543280000000  0.3959390000000  0.4654580000000 1.0
C      1  0.5690650000000  0.4437140000000  0.4160380000000 1.0
C      1  0.5610410000000  0.5750020000000  0.4397710000000 1.0
C      1  0.5055470000000  0.4050700000000  0.5594050000000 1.0
C      1  0.5958830000000  0.5434810000000  0.4620220000000 1.0
END
