TITL C-2848498-1409-695 0.00415161218269381 125000 -932.514486976837 0 0 170 (C1) n - 1
REM
REM in /home/bkarasulu/work/CARBON/AIRSS/Generating-Clusters/AIREBO/with-SteepDescent/Only-C1/SD-CG-opt/Try1-1.4A-POS3A/HFTN-CG
REM
REM
REM
REM
REM
REM ./C.cell (11c1c37f851c82e70ff6c80c92926a4b)
REM
REM compiler GCC version 9.2.1 20190827 (Red Hat 9.2.1-1)
REM options -cpp -mtune=generic -march=x86-64 -g -O0 -fpre-include=/usr/include/finclude/math-vector-fortran.h
REM seed -969004402 1955403991 33298768 -157219961 1136965763 400922773 1176970366 -1306718678 2097496120 1006976203 17109964 129930363 503212833 1225555744 -256983596 -2094521770 -1367980828 968800028 1316612552 50375145 1715583466 -202373188 -664003644 2431715 -1637129300 362653829 1740426826 101823879 2103743359 1980281565 -338075354 -337640559 -1587132206
REM
CELL 1.54180   50.00000   50.00000   50.00000   90.00000   90.00000   90.00000
LATT -1
SFAC C  
C      1  0.5993640000000  0.4963070000000  0.5056230000000 1.0
C      1  0.4634770000000  0.4556940000000  0.5069020000000 1.0
C      1  0.5353650000000  0.5494380000000  0.5489470000000 1.0
C      1  0.5310660000000  0.4069760000000  0.4694460000000 1.0
C      1  0.4595990000000  0.5641360000000  0.4423860000000 1.0
C      1  0.4582090000000  0.5249370000000  0.5477260000000 1.0
C      1  0.5272240000000  0.5006660000000  0.5607980000000 1.0
C      1  0.5034140000000  0.5096250000000  0.6043810000000 1.0
C      1  0.5726250000000  0.4396440000000  0.4438370000000 1.0
C      1  0.4173260000000  0.5728230000000  0.5068130000000 1.0
C      1  0.4816020000000  0.4414250000000  0.5849280000000 1.0
C      1  0.6071730000000  0.4748340000000  0.4544520000000 1.0
C      1  0.4318910000000  0.4051480000000  0.4423730000000 1.0
C      1  0.5433850000000  0.4825610000000  0.4441460000000 1.0
C      1  0.4756470000000  0.5318660000000  0.4808210000000 1.0
C      1  0.4378790000000  0.5135540000000  0.4864940000000 1.0
C      1  0.5013210000000  0.4488730000000  0.4040660000000 1.0
C      1  0.5545480000000  0.5955120000000  0.4868610000000 1.0
C      1  0.4237080000000  0.5397490000000  0.5779120000000 1.0
C      1  0.4362430000000  0.4548200000000  0.4587520000000 1.0
C      1  0.5743020000000  0.5170950000000  0.5154790000000 1.0
C      1  0.5069110000000  0.5219280000000  0.5210220000000 1.0
C      1  0.5739650000000  0.4267670000000  0.5118620000000 1.0
C      1  0.5016420000000  0.4882360000000  0.4722700000000 1.0
C      1  0.5099670000000  0.4640030000000  0.5264040000000 1.0
C      1  0.5103610000000  0.6197800000000  0.4949680000000 1.0
C      1  0.5687860000000  0.4559250000000  0.5540740000000 1.0
C      1  0.4076330000000  0.5637200000000  0.4456810000000 1.0
C      1  0.5200900000000  0.4628520000000  0.4591650000000 1.0
C      1  0.4467920000000  0.5322520000000  0.4628310000000 1.0
C      1  0.4142510000000  0.4896800000000  0.5427440000000 1.0
C      1  0.5005170000000  0.4184060000000  0.3954450000000 1.0
C      1  0.4671160000000  0.4838980000000  0.5521560000000 1.0
C      1  0.4422790000000  0.5801200000000  0.4869400000000 1.0
C      1  0.4580790000000  0.4381060000000  0.5358890000000 1.0
C      1  0.4181490000000  0.4657570000000  0.5668780000000 1.0
C      1  0.4025770000000  0.4609150000000  0.5176690000000 1.0
C      1  0.5940320000000  0.5671940000000  0.4888030000000 1.0
C      1  0.5421380000000  0.4498030000000  0.5748320000000 1.0
C      1  0.4342550000000  0.4721940000000  0.5124290000000 1.0
C      1  0.4861650000000  0.5322020000000  0.5998860000000 1.0
C      1  0.4499590000000  0.5922280000000  0.5177880000000 1.0
C      1  0.4894630000000  0.5165770000000  0.5465510000000 1.0
C      1  0.5028290000000  0.4015520000000  0.4141350000000 1.0
C      1  0.4496220000000  0.4252300000000  0.4561500000000 1.0
C      1  0.5071120000000  0.4085270000000  0.5174550000000 1.0
C      1  0.5454180000000  0.4194800000000  0.4406740000000 1.0
C      1  0.5460290000000  0.4489130000000  0.4774810000000 1.0
C      1  0.5294450000000  0.4403880000000  0.4188240000000 1.0
C      1  0.4386500000000  0.5163300000000  0.5840380000000 1.0
C      1  0.4747670000000  0.4546000000000  0.4227260000000 1.0
C      1  0.3930510000000  0.4421670000000  0.5356360000000 1.0
C      1  0.5711970000000  0.4268040000000  0.5397750000000 1.0
C      1  0.4226450000000  0.4588670000000  0.4833650000000 1.0
C      1  0.4950850000000  0.4932850000000  0.5691070000000 1.0
C      1  0.5032470000000  0.4633700000000  0.5597340000000 1.0
C      1  0.4679600000000  0.5780660000000  0.5641830000000 1.0
C      1  0.5106790000000  0.5934760000000  0.4554640000000 1.0
C      1  0.5949760000000  0.6065640000000  0.4585690000000 1.0
C      1  0.5169090000000  0.4577760000000  0.4926440000000 1.0
C      1  0.5503890000000  0.5241280000000  0.6076280000000 1.0
C      1  0.4972140000000  0.4726090000000  0.4358590000000 1.0
C      1  0.5907770000000  0.5131430000000  0.5516560000000 1.0
C      1  0.5778200000000  0.5396230000000  0.4902360000000 1.0
C      1  0.5280180000000  0.6026780000000  0.5068850000000 1.0
C      1  0.5297450000000  0.4251290000000  0.5629880000000 1.0
C      1  0.5146040000000  0.5791180000000  0.5234490000000 1.0
C      1  0.4654820000000  0.5910950000000  0.4550100000000 1.0
C      1  0.5766700000000  0.4539170000000  0.4728520000000 1.0
C      1  0.4658380000000  0.5275480000000  0.5807840000000 1.0
C      1  0.4026980000000  0.4899640000000  0.4582890000000 1.0
C      1  0.4669340000000  0.4601320000000  0.6013090000000 1.0
C      1  0.4824570000000  0.4975300000000  0.4465320000000 1.0
C      1  0.5499140000000  0.4096540000000  0.5466500000000 1.0
C      1  0.5659830000000  0.4806240000000  0.4909800000000 1.0
C      1  0.4974090000000  0.4231320000000  0.5679970000000 1.0
C      1  0.5698680000000  0.5303900000000  0.4305650000000 1.0
C      1  0.5027030000000  0.4336580000000  0.4606140000000 1.0
C      1  0.4762480000000  0.5566960000000  0.4136790000000 1.0
C      1  0.5394580000000  0.4499890000000  0.5168720000000 1.0
C      1  0.5928350000000  0.4932180000000  0.4743420000000 1.0
C      1  0.4953260000000  0.6068960000000  0.4750940000000 1.0
C      1  0.5307280000000  0.5396930000000  0.5930970000000 1.0
C      1  0.4115880000000  0.4382460000000  0.5560330000000 1.0
C      1  0.5404910000000  0.5386950000000  0.4515220000000 1.0
C      1  0.4746760000000  0.4453730000000  0.4541060000000 1.0
C      1  0.4841100000000  0.5260420000000  0.4041370000000 1.0
C      1  0.5976780000000  0.4692850000000  0.5174480000000 1.0
C      1  0.5937090000000  0.5648570000000  0.5358060000000 1.0
C      1  0.6015100000000  0.4540770000000  0.4416060000000 1.0
C      1  0.4408000000000  0.4928280000000  0.4020810000000 1.0
C      1  0.5276010000000  0.5720200000000  0.4189640000000 1.0
C      1  0.4572970000000  0.4234570000000  0.4980350000000 1.0
C      1  0.5183470000000  0.4655270000000  0.5887150000000 1.0
C      1  0.4029360000000  0.5171210000000  0.4678630000000 1.0
C      1  0.4400590000000  0.4645300000000  0.5932010000000 1.0
C      1  0.4956460000000  0.5743110000000  0.5734640000000 1.0
C      1  0.5475390000000  0.5557480000000  0.4267140000000 1.0
C      1  0.4911940000000  0.5635240000000  0.5054170000000 1.0
C      1  0.5332630000000  0.5828850000000  0.4681760000000 1.0
C      1  0.5474980000000  0.5087860000000  0.4261170000000 1.0
C      1  0.4748630000000  0.5860110000000  0.4873040000000 1.0
C      1  0.5094540000000  0.4316620000000  0.5369800000000 1.0
C      1  0.5230260000000  0.4857420000000  0.6074070000000 1.0
C      1  0.4406410000000  0.4893300000000  0.5727980000000 1.0
C      1  0.4196970000000  0.5469290000000  0.5183000000000 1.0
C      1  0.4429810000000  0.5653990000000  0.5721630000000 1.0
C      1  0.6085340000000  0.5724470000000  0.5126830000000 1.0
C      1  0.5328510000000  0.5300310000000  0.5663520000000 1.0
C      1  0.4610570000000  0.5065760000000  0.3884360000000 1.0
C      1  0.5914380000000  0.5373340000000  0.5367770000000 1.0
C      1  0.5642250000000  0.4704390000000  0.5234470000000 1.0
C      1  0.5435290000000  0.4219570000000  0.4974510000000 1.0
C      1  0.5239890000000  0.5133720000000  0.4778240000000 1.0
C      1  0.5470370000000  0.5757370000000  0.5558760000000 1.0
C      1  0.4300820000000  0.4820520000000  0.4390590000000 1.0
C      1  0.4539580000000  0.5060390000000  0.4423960000000 1.0
C      1  0.5572540000000  0.5766870000000  0.5114610000000 1.0
C      1  0.4862260000000  0.5457350000000  0.4519930000000 1.0
C      1  0.5040330000000  0.5550330000000  0.5941970000000 1.0
C      1  0.6117940000000  0.5318510000000  0.4545390000000 1.0
C      1  0.5246080000000  0.4945700000000  0.5292500000000 1.0
C      1  0.4706660000000  0.5481370000000  0.5261750000000 1.0
C      1  0.5642870000000  0.4983100000000  0.5429330000000 1.0
C      1  0.4475840000000  0.4085810000000  0.5226910000000 1.0
C      1  0.5031120000000  0.4743070000000  0.3856670000000 1.0
C      1  0.5536030000000  0.4815370000000  0.5705180000000 1.0
C      1  0.4185580000000  0.5316150000000  0.4437150000000 1.0
C      1  0.4481770000000  0.5315780000000  0.5097890000000 1.0
C      1  0.5806590000000  0.5223910000000  0.4618210000000 1.0
C      1  0.5501470000000  0.4959150000000  0.6013440000000 1.0
C      1  0.3973660000000  0.4712020000000  0.4784380000000 1.0
C      1  0.4335590000000  0.5635720000000  0.4625010000000 1.0
C      1  0.5247510000000  0.5467410000000  0.5210910000000 1.0
C      1  0.5159320000000  0.5836260000000  0.5556360000000 1.0
C      1  0.4484400000000  0.4667530000000  0.4144810000000 1.0
C      1  0.4518120000000  0.5355870000000  0.4256290000000 1.0
C      1  0.4432550000000  0.4978300000000  0.5330690000000 1.0
C      1  0.4736660000000  0.4097040000000  0.4738960000000 1.0
C      1  0.5508000000000  0.4571780000000  0.4301570000000 1.0
C      1  0.5541340000000  0.5010270000000  0.4680550000000 1.0
C      1  0.4723070000000  0.4518040000000  0.5560530000000 1.0
C      1  0.5376730000000  0.4002160000000  0.5223460000000 1.0
C      1  0.5484460000000  0.5483360000000  0.5001280000000 1.0
C      1  0.5826850000000  0.5899490000000  0.4763980000000 1.0
C      1  0.5892830000000  0.4464330000000  0.5002470000000 1.0
C      1  0.4501850000000  0.4875520000000  0.4869420000000 1.0
C      1  0.5212490000000  0.5157300000000  0.4440030000000 1.0
C      1  0.5424750000000  0.5092430000000  0.5060810000000 1.0
C      1  0.5683950000000  0.5787410000000  0.5370700000000 1.0
C      1  0.5136490000000  0.4109250000000  0.4405030000000 1.0
C      1  0.5014700000000  0.3902500000000  0.4713840000000 1.0
C      1  0.3969300000000  0.5002940000000  0.5203670000000 1.0
C      1  0.4979420000000  0.5725550000000  0.4348740000000 1.0
C      1  0.4809950000000  0.4810820000000  0.5212350000000 1.0
C      1  0.5006230000000  0.4212840000000  0.4910800000000 1.0
C      1  0.4912150000000  0.4978980000000  0.3865360000000 1.0
C      1  0.4649380000000  0.5776560000000  0.5352770000000 1.0
C      1  0.4888700000000  0.3882840000000  0.5248550000000 1.0
C      1  0.5063250000000  0.5414290000000  0.4861350000000 1.0
C      1  0.4765000000000  0.5126670000000  0.5089380000000 1.0
C      1  0.4839290000000  0.4841070000000  0.5999180000000 1.0
C      1  0.3827570000000  0.4793440000000  0.5035150000000 1.0
C      1  0.4093470000000  0.5213760000000  0.5010180000000 1.0
C      1  0.4309900000000  0.5453010000000  0.5467520000000 1.0
C      1  0.5325760000000  0.5536890000000  0.4742040000000 1.0
C      1  0.4322270000000  0.4223750000000  0.5476720000000 1.0
C      1  0.4940780000000  0.5227510000000  0.4337800000000 1.0
C      1  0.4742270000000  0.4686200000000  0.4769590000000 1.0
C      1  0.4207470000000  0.5080870000000  0.4192680000000 1.0
END
