TITL C-2848505-4874-696 -0.0327149677209023 125000 -139.799538330797 0 0 25 (C1) n - 1
REM
REM in /home/bkarasulu/work/CARBON/AIRSS/Generating-Clusters/AIREBO/with-SteepDescent/Only-C1/SD-CG-opt/Try1-1.4A-POS3A/HFTN-CG
REM
REM
REM
REM
REM
REM ./C.cell (11c1c37f851c82e70ff6c80c92926a4b)
REM
REM compiler GCC version 9.2.1 20190827 (Red Hat 9.2.1-1)
REM options -cpp -mtune=generic -march=x86-64 -g -O0 -fpre-include=/usr/include/finclude/math-vector-fortran.h
REM seed 1142184341 -823506036 -513700255 -912378686 -1948633943 -1959352006 1494026693 652331328 -1058259568 606098669 -832734572 -2039016421 1918977242 1049797348 1430128364 1861955888 -63059616 -1477034050 481669382 1895473043 1769089242 -1109916665 -1601277550 -925615204 -534180148 -1436983969 -459122955 -238209050 -168103452 -762791880 1547010953 2123103727 85997665
REM
CELL 1.54180   50.00000   50.00000   50.00000   90.00000   90.00000   90.00000
LATT -1
SFAC C  
C      1  0.5547940000000  0.5119570000000  0.4966550000000 1.0
C      1  0.4812950000000  0.5225590000000  0.5184310000000 1.0
C      1  0.4468520000000  0.4882790000000  0.5490860000000 1.0
C      1  0.5338140000000  0.4859190000000  0.4033840000000 1.0
C      1  0.5083110000000  0.4638180000000  0.5246520000000 1.0
C      1  0.5309490000000  0.4947570000000  0.4286480000000 1.0
C      1  0.4844730000000  0.4913590000000  0.4580950000000 1.0
C      1  0.4647250000000  0.4730600000000  0.4528320000000 1.0
C      1  0.4667640000000  0.4977030000000  0.5073290000000 1.0
C      1  0.5307170000000  0.4804630000000  0.5251870000000 1.0
C      1  0.5303420000000  0.5034310000000  0.5084980000000 1.0
C      1  0.4615610000000  0.4785060000000  0.5265900000000 1.0
C      1  0.4819230000000  0.4592860000000  0.5296490000000 1.0
C      1  0.4737780000000  0.5589090000000  0.5496380000000 1.0
C      1  0.5522780000000  0.5050220000000  0.4436060000000 1.0
C      1  0.4536920000000  0.5150200000000  0.5557350000000 1.0
C      1  0.4684340000000  0.5351990000000  0.4715420000000 1.0
C      1  0.5550120000000  0.5137040000000  0.4689670000000 1.0
C      1  0.5066550000000  0.4945670000000  0.4421510000000 1.0
C      1  0.5062340000000  0.5152390000000  0.5017830000000 1.0
C      1  0.5763660000000  0.5176280000000  0.5118000000000 1.0
C      1  0.4698370000000  0.5335670000000  0.5415560000000 1.0
C      1  0.4291050000000  0.4734510000000  0.5627950000000 1.0
C      1  0.5518190000000  0.4753970000000  0.5412280000000 1.0
C      1  0.4802680000000  0.5112010000000  0.4801620000000 1.0
END
