TITL C-2847952-8118-620 0.00329130300033522 125000 -710.234371728588 0 0 134 (C1) n - 1
REM
REM in /home/bkarasulu/work/CARBON/AIRSS/Generating-Clusters/AIREBO/with-SteepDescent/Only-C1/SD-CG-opt/Try1-1.4A-POS3A/HFTN-CG
REM
REM
REM
REM
REM
REM ./C.cell (11c1c37f851c82e70ff6c80c92926a4b)
REM
REM compiler GCC version 9.2.1 20190827 (Red Hat 9.2.1-1)
REM options -cpp -mtune=generic -march=x86-64 -g -O0 -fpre-include=/usr/include/finclude/math-vector-fortran.h
REM seed 1147524931 -1361971582 -1891361563 -35299996 1910088836 -1192328857 -480788780 591937063 -1655049462 467417654 480649634 -1989959047 638842713 -1940523118 1923614618 1620637009 -213771624 1127979 -878818626 -923252760 1489495200 -8017989 194177506 -1342236422 1368779317 642959121 1457293251 1084615474 278074175 155173799 -914680116 1648324664 -1982467840
REM
CELL 1.54180   50.00000   50.00000   50.00000   90.00000   90.00000   90.00000
LATT -1
SFAC C  
C      1  0.5537290000000  0.5604570000000  0.5503530000000 1.0
C      1  0.5275170000000  0.4767820000000  0.5661490000000 1.0
C      1  0.5303370000000  0.6068230000000  0.5082110000000 1.0
C      1  0.5912740000000  0.5000140000000  0.4465830000000 1.0
C      1  0.4115370000000  0.4968210000000  0.5641320000000 1.0
C      1  0.5347150000000  0.5397380000000  0.4579310000000 1.0
C      1  0.4039260000000  0.4685630000000  0.5504820000000 1.0
C      1  0.5745110000000  0.4431770000000  0.4892440000000 1.0
C      1  0.5065080000000  0.4723950000000  0.5998830000000 1.0
C      1  0.5407170000000  0.5062840000000  0.4591300000000 1.0
C      1  0.4452170000000  0.5198990000000  0.5218530000000 1.0
C      1  0.4712480000000  0.5086990000000  0.5406560000000 1.0
C      1  0.5568040000000  0.4688940000000  0.4931740000000 1.0
C      1  0.4283900000000  0.4301360000000  0.5262530000000 1.0
C      1  0.5487200000000  0.5098870000000  0.5291450000000 1.0
C      1  0.4286060000000  0.5741970000000  0.4753860000000 1.0
C      1  0.5418130000000  0.5595680000000  0.4308050000000 1.0
C      1  0.4321750000000  0.5215390000000  0.5532160000000 1.0
C      1  0.5249250000000  0.4614550000000  0.4973540000000 1.0
C      1  0.5534750000000  0.4088370000000  0.5338630000000 1.0
C      1  0.4143800000000  0.4492660000000  0.5120910000000 1.0
C      1  0.4151550000000  0.5510230000000  0.4811860000000 1.0
C      1  0.5404890000000  0.4982750000000  0.4982530000000 1.0
C      1  0.5055000000000  0.5352480000000  0.4025930000000 1.0
C      1  0.4899690000000  0.4575700000000  0.4168260000000 1.0
C      1  0.4520020000000  0.4512470000000  0.4393660000000 1.0
C      1  0.4446170000000  0.4910400000000  0.4604320000000 1.0
C      1  0.5456800000000  0.5054090000000  0.5627240000000 1.0
C      1  0.6420810000000  0.5093550000000  0.5049770000000 1.0
C      1  0.3684570000000  0.5348940000000  0.5137140000000 1.0
C      1  0.4372710000000  0.5484440000000  0.5672830000000 1.0
C      1  0.3950060000000  0.5166600000000  0.5122040000000 1.0
C      1  0.5311880000000  0.5735670000000  0.5011750000000 1.0
C      1  0.5741410000000  0.5213810000000  0.4433240000000 1.0
C      1  0.5555970000000  0.4242310000000  0.5061740000000 1.0
C      1  0.5649970000000  0.5377470000000  0.5183950000000 1.0
C      1  0.4612330000000  0.4381310000000  0.4838720000000 1.0
C      1  0.4770370000000  0.5431590000000  0.4857470000000 1.0
C      1  0.4292950000000  0.4848400000000  0.5370370000000 1.0
C      1  0.4735360000000  0.4822380000000  0.4070570000000 1.0
C      1  0.5128290000000  0.5521470000000  0.5744900000000 1.0
C      1  0.4522160000000  0.4652050000000  0.5782670000000 1.0
C      1  0.5002360000000  0.4938650000000  0.5774590000000 1.0
C      1  0.4806130000000  0.5704580000000  0.4397230000000 1.0
C      1  0.4970620000000  0.5520840000000  0.4612910000000 1.0
C      1  0.4757240000000  0.4113620000000  0.5248340000000 1.0
C      1  0.5665280000000  0.5412350000000  0.4698540000000 1.0
C      1  0.4525490000000  0.5145970000000  0.4385920000000 1.0
C      1  0.5718160000000  0.4428430000000  0.4555040000000 1.0
C      1  0.5323290000000  0.4548520000000  0.5916840000000 1.0
C      1  0.5489590000000  0.5119750000000  0.4266200000000 1.0
C      1  0.5811280000000  0.4754800000000  0.4509140000000 1.0
C      1  0.6202320000000  0.5054040000000  0.5188970000000 1.0
C      1  0.4959050000000  0.4523320000000  0.5114390000000 1.0
C      1  0.4605870000000  0.5667900000000  0.4669610000000 1.0
C      1  0.4713960000000  0.4325070000000  0.4281530000000 1.0
C      1  0.5278620000000  0.4112390000000  0.4753960000000 1.0
C      1  0.4633070000000  0.5800210000000  0.5159240000000 1.0
C      1  0.5485860000000  0.4747160000000  0.4607660000000 1.0
C      1  0.5811060000000  0.4818470000000  0.5648720000000 1.0
C      1  0.5011480000000  0.5341880000000  0.5063520000000 1.0
C      1  0.5353830000000  0.4428820000000  0.5234820000000 1.0
C      1  0.4263700000000  0.4669010000000  0.4348330000000 1.0
C      1  0.5193400000000  0.4584370000000  0.4652010000000 1.0
C      1  0.5203700000000  0.5719330000000  0.4081560000000 1.0
C      1  0.4723940000000  0.5893620000000  0.4882180000000 1.0
C      1  0.5975990000000  0.5030690000000  0.5309310000000 1.0
C      1  0.5357360000000  0.5514690000000  0.5259020000000 1.0
C      1  0.4626530000000  0.5555350000000  0.5740750000000 1.0
C      1  0.4545770000000  0.5528230000000  0.5189230000000 1.0
C      1  0.5017840000000  0.5947940000000  0.4351780000000 1.0
C      1  0.4148050000000  0.4722910000000  0.4954020000000 1.0
C      1  0.4329480000000  0.5277160000000  0.4708930000000 1.0
C      1  0.4890950000000  0.4229410000000  0.4514540000000 1.0
C      1  0.4889810000000  0.5065770000000  0.4049740000000 1.0
C      1  0.5227220000000  0.5688660000000  0.4707340000000 1.0
C      1  0.4541400000000  0.4258460000000  0.5373850000000 1.0
C      1  0.5481890000000  0.4541210000000  0.4337050000000 1.0
C      1  0.4794070000000  0.4931890000000  0.4823520000000 1.0
C      1  0.5108280000000  0.4321440000000  0.5423680000000 1.0
C      1  0.5336280000000  0.4836430000000  0.4248030000000 1.0
C      1  0.5100480000000  0.5038840000000  0.4262910000000 1.0
C      1  0.5058200000000  0.5245290000000  0.4482730000000 1.0
C      1  0.4456820000000  0.5448200000000  0.4457060000000 1.0
C      1  0.4574150000000  0.5180680000000  0.4901600000000 1.0
C      1  0.4767470000000  0.4762050000000  0.5108730000000 1.0
C      1  0.4195180000000  0.5002630000000  0.5113000000000 1.0
C      1  0.5778150000000  0.5145320000000  0.5561010000000 1.0
C      1  0.5210890000000  0.4555310000000  0.4132190000000 1.0
C      1  0.5756190000000  0.5455040000000  0.5561040000000 1.0
C      1  0.5794310000000  0.4525940000000  0.5215900000000 1.0
C      1  0.4907700000000  0.4388340000000  0.5644960000000 1.0
C      1  0.5077890000000  0.4659670000000  0.5406430000000 1.0
C      1  0.4152910000000  0.5072650000000  0.4546630000000 1.0
C      1  0.4641610000000  0.4493520000000  0.5545190000000 1.0
C      1  0.5263570000000  0.4044390000000  0.5407800000000 1.0
C      1  0.5183430000000  0.5247610000000  0.5341420000000 1.0
C      1  0.5377040000000  0.5704030000000  0.5700330000000 1.0
C      1  0.4993010000000  0.4127840000000  0.4753360000000 1.0
C      1  0.5474480000000  0.4620610000000  0.5436230000000 1.0
C      1  0.5011680000000  0.5886340000000  0.5065570000000 1.0
C      1  0.5623150000000  0.5608000000000  0.4935190000000 1.0
C      1  0.5764710000000  0.4307060000000  0.5393730000000 1.0
C      1  0.4199490000000  0.4704750000000  0.4681410000000 1.0
C      1  0.5871980000000  0.5613290000000  0.5146360000000 1.0
C      1  0.4876980000000  0.5596640000000  0.5527460000000 1.0
C      1  0.4433510000000  0.4961330000000  0.5727220000000 1.0
C      1  0.4930040000000  0.5617980000000  0.4110790000000 1.0
C      1  0.5149850000000  0.4868650000000  0.5176410000000 1.0
C      1  0.5257600000000  0.5285680000000  0.4887750000000 1.0
C      1  0.5327870000000  0.5339360000000  0.4123900000000 1.0
C      1  0.4859270000000  0.5849750000000  0.5356630000000 1.0
C      1  0.4669200000000  0.4660120000000  0.4661180000000 1.0
C      1  0.5017470000000  0.4426430000000  0.5896820000000 1.0
C      1  0.4404920000000  0.4221120000000  0.4804250000000 1.0
C      1  0.4800300000000  0.5379950000000  0.5295220000000 1.0
C      1  0.4860920000000  0.5363670000000  0.5847890000000 1.0
C      1  0.4488270000000  0.4866510000000  0.4210900000000 1.0
C      1  0.5129150000000  0.4988640000000  0.4783410000000 1.0
C      1  0.4595130000000  0.4784510000000  0.5375460000000 1.0
C      1  0.4970220000000  0.3952920000000  0.5359380000000 1.0
C      1  0.5326410000000  0.5264580000000  0.5776280000000 1.0
C      1  0.4701540000000  0.4903490000000  0.5908340000000 1.0
C      1  0.4801760000000  0.5079090000000  0.4524810000000 1.0
C      1  0.4983970000000  0.5183500000000  0.5587070000000 1.0
C      1  0.5412000000000  0.4338560000000  0.4672820000000 1.0
C      1  0.3939000000000  0.5113910000000  0.4410680000000 1.0
C      1  0.4849650000000  0.4264860000000  0.5001730000000 1.0
C      1  0.4946120000000  0.4557310000000  0.4505280000000 1.0
C      1  0.5698810000000  0.4834280000000  0.5323540000000 1.0
C      1  0.3940820000000  0.5439050000000  0.4960800000000 1.0
C      1  0.5269220000000  0.5867270000000  0.4446900000000 1.0
C      1  0.5668790000000  0.5114670000000  0.4813470000000 1.0
C      1  0.4788240000000  0.5163000000000  0.6070940000000 1.0
END
