TITL C-2847957-7266-692 -0.00120139415856968 125000 -639.231173284159 0 0 113 (C1) n - 1
REM
REM in /home/bkarasulu/work/CARBON/AIRSS/Generating-Clusters/AIREBO/with-SteepDescent/Only-C1/SD-CG-opt/Try1-1.4A-POS3A/HFTN-CG
REM
REM
REM
REM
REM
REM ./C.cell (11c1c37f851c82e70ff6c80c92926a4b)
REM
REM compiler GCC version 9.2.1 20190827 (Red Hat 9.2.1-1)
REM options -cpp -mtune=generic -march=x86-64 -g -O0 -fpre-include=/usr/include/finclude/math-vector-fortran.h
REM seed 1581338088 -840502849 -686447575 1625045619 -1774354056 1866072517 -1090303855 -1982874073 218112468 -2085486130 -721976089 156908225 -619273251 1730476442 -1620656280 -645661431 569535774 -117553300 777131200 389212728 -312022900 -1990615531 292839434 -479488249 782563456 563783135 -1802765424 -1909741897 776205362 523558605 -1729840733 167956367 -496229778
REM
CELL 1.54180   50.00000   50.00000   50.00000   90.00000   90.00000   90.00000
LATT -1
SFAC C  
C      1  0.3886010000000  0.5117410000000  0.5055790000000 1.0
C      1  0.4482630000000  0.4486500000000  0.4550450000000 1.0
C      1  0.5913760000000  0.5123860000000  0.4980910000000 1.0
C      1  0.5068620000000  0.4593180000000  0.4977200000000 1.0
C      1  0.5599790000000  0.4434960000000  0.4724340000000 1.0
C      1  0.4409210000000  0.5285190000000  0.5657590000000 1.0
C      1  0.5205640000000  0.5076440000000  0.5299440000000 1.0
C      1  0.5747320000000  0.5387630000000  0.4075210000000 1.0
C      1  0.4709630000000  0.4925470000000  0.5789300000000 1.0
C      1  0.5021110000000  0.4245800000000  0.5474270000000 1.0
C      1  0.4576870000000  0.5211060000000  0.4637350000000 1.0
C      1  0.4772230000000  0.4616870000000  0.5917650000000 1.0
C      1  0.5055730000000  0.4691180000000  0.5745140000000 1.0
C      1  0.4462460000000  0.4727750000000  0.5691290000000 1.0
C      1  0.5893190000000  0.5015010000000  0.5273950000000 1.0
C      1  0.4890490000000  0.5028370000000  0.5538580000000 1.0
C      1  0.5683760000000  0.5498990000000  0.5132050000000 1.0
C      1  0.4511650000000  0.4469260000000  0.5599950000000 1.0
C      1  0.5665500000000  0.4848210000000  0.4318340000000 1.0
C      1  0.5711810000000  0.5102030000000  0.4221380000000 1.0
C      1  0.5182650000000  0.4685370000000  0.4153500000000 1.0
C      1  0.5472260000000  0.4464790000000  0.5474890000000 1.0
C      1  0.5240840000000  0.4884220000000  0.4596980000000 1.0
C      1  0.5604460000000  0.5005430000000  0.5334950000000 1.0
C      1  0.4663470000000  0.5428840000000  0.5680420000000 1.0
C      1  0.4712850000000  0.4804040000000  0.4281740000000 1.0
C      1  0.5746790000000  0.5380300000000  0.4397360000000 1.0
C      1  0.5119800000000  0.5152800000000  0.4150770000000 1.0
C      1  0.4180890000000  0.5433480000000  0.5586810000000 1.0
C      1  0.5364340000000  0.5470700000000  0.5068350000000 1.0
C      1  0.4943040000000  0.4650570000000  0.5426880000000 1.0
C      1  0.5543210000000  0.4417700000000  0.5145720000000 1.0
C      1  0.5339110000000  0.5874300000000  0.5408710000000 1.0
C      1  0.5689610000000  0.4748630000000  0.5792690000000 1.0
C      1  0.5409720000000  0.5239350000000  0.4745510000000 1.0
C      1  0.4679380000000  0.5062830000000  0.4990450000000 1.0
C      1  0.5414950000000  0.4434620000000  0.4501710000000 1.0
C      1  0.5470460000000  0.4910660000000  0.4818960000000 1.0
C      1  0.5984900000000  0.4801050000000  0.5058280000000 1.0
C      1  0.5035340000000  0.5393620000000  0.5029270000000 1.0
C      1  0.4615880000000  0.5194700000000  0.5276780000000 1.0
C      1  0.5196080000000  0.5147450000000  0.4420750000000 1.0
C      1  0.4967540000000  0.4804620000000  0.4742460000000 1.0
C      1  0.5434950000000  0.5234640000000  0.5822670000000 1.0
C      1  0.4874820000000  0.5242250000000  0.4788340000000 1.0
C      1  0.4924860000000  0.3997820000000  0.5006700000000 1.0
C      1  0.5652610000000  0.5428580000000  0.4671220000000 1.0
C      1  0.5468530000000  0.5684070000000  0.4747110000000 1.0
C      1  0.4449590000000  0.4792220000000  0.5174660000000 1.0
C      1  0.5439570000000  0.5139010000000  0.5069120000000 1.0
C      1  0.5081380000000  0.4047030000000  0.5290080000000 1.0
C      1  0.4937820000000  0.5247250000000  0.5284520000000 1.0
C      1  0.4745400000000  0.4939650000000  0.4563320000000 1.0
C      1  0.5843950000000  0.4773650000000  0.4514000000000 1.0
C      1  0.5531450000000  0.4981130000000  0.5666140000000 1.0
C      1  0.4250250000000  0.4881450000000  0.4390930000000 1.0
C      1  0.4843170000000  0.5819300000000  0.5292550000000 1.0
C      1  0.5182670000000  0.5225270000000  0.5923850000000 1.0
C      1  0.5705420000000  0.4725030000000  0.4783650000000 1.0
C      1  0.4690960000000  0.4297350000000  0.4561290000000 1.0
C      1  0.5314430000000  0.4371400000000  0.4898000000000 1.0
C      1  0.5427210000000  0.4745570000000  0.5336560000000 1.0
C      1  0.4684290000000  0.5600260000000  0.5413920000000 1.0
C      1  0.4820280000000  0.5526890000000  0.4099880000000 1.0
C      1  0.5390690000000  0.5326180000000  0.5437320000000 1.0
C      1  0.5190160000000  0.4921600000000  0.4001260000000 1.0
C      1  0.4466450000000  0.5480620000000  0.5181270000000 1.0
C      1  0.4881450000000  0.5747300000000  0.4246550000000 1.0
C      1  0.4426840000000  0.4277290000000  0.4886570000000 1.0
C      1  0.5230290000000  0.4082000000000  0.5010580000000 1.0
C      1  0.4728300000000  0.4184380000000  0.4861800000000 1.0
C      1  0.5142060000000  0.4751670000000  0.5221310000000 1.0
C      1  0.5166340000000  0.4313720000000  0.4584740000000 1.0
C      1  0.4686350000000  0.4815840000000  0.5374090000000 1.0
C      1  0.4701810000000  0.4753350000000  0.4948690000000 1.0
C      1  0.4212080000000  0.4778280000000  0.4934460000000 1.0
C      1  0.4134660000000  0.5074020000000  0.4864740000000 1.0
C      1  0.4258270000000  0.5131260000000  0.4580370000000 1.0
C      1  0.5545430000000  0.5472110000000  0.5689780000000 1.0
C      1  0.3908340000000  0.4949130000000  0.5279350000000 1.0
C      1  0.4118320000000  0.4775550000000  0.5250570000000 1.0
C      1  0.4402560000000  0.5251780000000  0.4933180000000 1.0
C      1  0.4216380000000  0.4125420000000  0.4886550000000 1.0
C      1  0.4444870000000  0.5015190000000  0.5506680000000 1.0
C      1  0.5218100000000  0.5744740000000  0.4974510000000 1.0
C      1  0.4682510000000  0.5032180000000  0.4067670000000 1.0
C      1  0.4437660000000  0.4586700000000  0.4835200000000 1.0
C      1  0.4846440000000  0.5223070000000  0.5880570000000 1.0
C      1  0.4934020000000  0.4586180000000  0.4244440000000 1.0
C      1  0.4687320000000  0.5934250000000  0.5054390000000 1.0
C      1  0.4933090000000  0.4365730000000  0.4434600000000 1.0
C      1  0.5124840000000  0.5859850000000  0.5242230000000 1.0
C      1  0.4184710000000  0.5530720000000  0.5329160000000 1.0
C      1  0.4499460000000  0.5694820000000  0.4923850000000 1.0
C      1  0.5690170000000  0.4518300000000  0.5686930000000 1.0
C      1  0.4747820000000  0.4390780000000  0.5400780000000 1.0
C      1  0.4938030000000  0.5815530000000  0.4506590000000 1.0
C      1  0.4270030000000  0.5447880000000  0.4538620000000 1.0
C      1  0.5155130000000  0.5656260000000  0.4652310000000 1.0
C      1  0.5201010000000  0.4411460000000  0.5617250000000 1.0
C      1  0.5530510000000  0.5634200000000  0.5400500000000 1.0
C      1  0.5775490000000  0.4568180000000  0.5055780000000 1.0
C      1  0.5385300000000  0.4705460000000  0.4373950000000 1.0
C      1  0.4818060000000  0.5868100000000  0.4755880000000 1.0
C      1  0.4826680000000  0.5606450000000  0.4951310000000 1.0
C      1  0.5843420000000  0.5384730000000  0.4920930000000 1.0
C      1  0.4836250000000  0.4399220000000  0.5073410000000 1.0
C      1  0.4861230000000  0.5251700000000  0.4084200000000 1.0
C      1  0.5218410000000  0.4956160000000  0.5607450000000 1.0
C      1  0.4326200000000  0.5638600000000  0.4685860000000 1.0
C      1  0.5057150000000  0.4945100000000  0.5971520000000 1.0
C      1  0.5126610000000  0.5353190000000  0.4642460000000 1.0
C      1  0.4444090000000  0.4688740000000  0.4365120000000 1.0
END
