TITL C-2848498-1409-113 -0.000919032072757853 125000 -770.022072613285 0 0 142 (C1) n - 1
REM
REM in /home/bkarasulu/work/CARBON/AIRSS/Generating-Clusters/AIREBO/with-SteepDescent/Only-C1/SD-CG-opt/Try1-1.4A-POS3A/HFTN-CG
REM
REM
REM
REM
REM
REM ./C.cell (11c1c37f851c82e70ff6c80c92926a4b)
REM
REM compiler GCC version 9.2.1 20190827 (Red Hat 9.2.1-1)
REM options -cpp -mtune=generic -march=x86-64 -g -O0 -fpre-include=/usr/include/finclude/math-vector-fortran.h
REM seed -1760223429 -1410782922 1531589113 1312260190 1394321576 -1102616731 -164831555 2112853520 -1605580199 85299942 -127120759 818106753 -1405008253 -1391301836 -2015247908 -1726456113 1068821841 -975082567 -714365100 1532960342 -644454143 -1386554212 2000766528 -1121009521 2009733532 -1288967009 -1321620869 -1310219984 -1587435246 -1019064884 -1599346541 1528476187 -261652281
REM
CELL 1.54180   50.00000   50.00000   50.00000   90.00000   90.00000   90.00000
LATT -1
SFAC C  
C      1  0.6388680000000  0.4723950000000  0.5360190000000 1.0
C      1  0.5291770000000  0.3989980000000  0.4919970000000 1.0
C      1  0.5958070000000  0.4660220000000  0.5567050000000 1.0
C      1  0.6142780000000  0.5129520000000  0.4844010000000 1.0
C      1  0.4874970000000  0.5844630000000  0.5437390000000 1.0
C      1  0.5707770000000  0.5363540000000  0.4166280000000 1.0
C      1  0.5044690000000  0.3997750000000  0.5378440000000 1.0
C      1  0.4436870000000  0.5717350000000  0.4479210000000 1.0
C      1  0.4985190000000  0.4542300000000  0.5344900000000 1.0
C      1  0.4989320000000  0.5328650000000  0.5275310000000 1.0
C      1  0.5802910000000  0.5120500000000  0.4850000000000 1.0
C      1  0.5959100000000  0.4474930000000  0.4457230000000 1.0
C      1  0.5115160000000  0.5822080000000  0.5294800000000 1.0
C      1  0.5248460000000  0.4304080000000  0.5160790000000 1.0
C      1  0.4999820000000  0.5753990000000  0.4714150000000 1.0
C      1  0.4199210000000  0.5606610000000  0.5079060000000 1.0
C      1  0.4721980000000  0.5492460000000  0.5326010000000 1.0
C      1  0.5579760000000  0.5154530000000  0.5103390000000 1.0
C      1  0.5907480000000  0.5108510000000  0.5822060000000 1.0
C      1  0.5046610000000  0.4730520000000  0.5889510000000 1.0
C      1  0.4422970000000  0.4505570000000  0.5129210000000 1.0
C      1  0.5104660000000  0.6052340000000  0.4799350000000 1.0
C      1  0.5445640000000  0.4660390000000  0.4597840000000 1.0
C      1  0.4980740000000  0.5138400000000  0.4086680000000 1.0
C      1  0.4793100000000  0.5055680000000  0.4666490000000 1.0
C      1  0.5551040000000  0.5783070000000  0.5463350000000 1.0
C      1  0.4149930000000  0.4635310000000  0.5545050000000 1.0
C      1  0.4513890000000  0.5534350000000  0.4721640000000 1.0
C      1  0.5502140000000  0.5553080000000  0.5620610000000 1.0
C      1  0.5245440000000  0.4633190000000  0.4871520000000 1.0
C      1  0.4337620000000  0.4640190000000  0.4372820000000 1.0
C      1  0.4141410000000  0.4566020000000  0.5036390000000 1.0
C      1  0.5263320000000  0.5071590000000  0.4859890000000 1.0
C      1  0.5440970000000  0.5526450000000  0.4669750000000 1.0
C      1  0.4788450000000  0.4303010000000  0.4373040000000 1.0
C      1  0.5321190000000  0.4787660000000  0.4138200000000 1.0
C      1  0.5358280000000  0.4231680000000  0.5475470000000 1.0
C      1  0.4053270000000  0.4745610000000  0.5273210000000 1.0
C      1  0.4508150000000  0.4056910000000  0.5236890000000 1.0
C      1  0.4510320000000  0.5267330000000  0.4280290000000 1.0
C      1  0.5407660000000  0.5151170000000  0.5885330000000 1.0
C      1  0.4931380000000  0.4291640000000  0.5134180000000 1.0
C      1  0.4997250000000  0.4698330000000  0.4477480000000 1.0
C      1  0.5176730000000  0.5203920000000  0.4323670000000 1.0
C      1  0.4543550000000  0.5262180000000  0.4607910000000 1.0
C      1  0.5416120000000  0.4417370000000  0.4431690000000 1.0
C      1  0.4525530000000  0.4870080000000  0.4637070000000 1.0
C      1  0.4655050000000  0.4651520000000  0.4944650000000 1.0
C      1  0.5474650000000  0.4847010000000  0.5003370000000 1.0
C      1  0.4829000000000  0.4387190000000  0.4877900000000 1.0
C      1  0.5908630000000  0.5390080000000  0.4398160000000 1.0
C      1  0.4678210000000  0.5729740000000  0.4266690000000 1.0
C      1  0.4580580000000  0.4458530000000  0.5752090000000 1.0
C      1  0.5131500000000  0.5038160000000  0.5871480000000 1.0
C      1  0.5432300000000  0.5425190000000  0.5879660000000 1.0
C      1  0.4783320000000  0.4038850000000  0.5246860000000 1.0
C      1  0.4415280000000  0.4309540000000  0.5325670000000 1.0
C      1  0.4296230000000  0.5837750000000  0.5308820000000 1.0
C      1  0.5663630000000  0.4747840000000  0.5584040000000 1.0
C      1  0.5837860000000  0.4601090000000  0.4645030000000 1.0
C      1  0.4341330000000  0.4424910000000  0.5566100000000 1.0
C      1  0.4584490000000  0.4953910000000  0.5083570000000 1.0
C      1  0.5484040000000  0.4498700000000  0.5650440000000 1.0
C      1  0.5423330000000  0.3829800000000  0.4739760000000 1.0
C      1  0.5980730000000  0.4697590000000  0.5106790000000 1.0
C      1  0.5149940000000  0.5450490000000  0.4510880000000 1.0
C      1  0.5214700000000  0.4297620000000  0.4824280000000 1.0
C      1  0.5400120000000  0.5930280000000  0.5265440000000 1.0
C      1  0.5324710000000  0.5844990000000  0.4643770000000 1.0
C      1  0.4991880000000  0.5538330000000  0.5868680000000 1.0
C      1  0.5527100000000  0.4424560000000  0.5261390000000 1.0
C      1  0.4951360000000  0.5442940000000  0.4789700000000 1.0
C      1  0.5411660000000  0.6010170000000  0.4939700000000 1.0
C      1  0.4201750000000  0.5135380000000  0.4304060000000 1.0
C      1  0.5786760000000  0.4781690000000  0.4885300000000 1.0
C      1  0.4781560000000  0.5201490000000  0.4958840000000 1.0
C      1  0.4783260000000  0.4187630000000  0.5786770000000 1.0
C      1  0.4823440000000  0.6104240000000  0.4637450000000 1.0
C      1  0.4532580000000  0.5060720000000  0.5403620000000 1.0
C      1  0.6121810000000  0.4695350000000  0.5344070000000 1.0
C      1  0.4649020000000  0.5491510000000  0.4092150000000 1.0
C      1  0.5760710000000  0.5425090000000  0.4702100000000 1.0
C      1  0.4353800000000  0.5259590000000  0.5193500000000 1.0
C      1  0.5180890000000  0.4935030000000  0.3961470000000 1.0
C      1  0.4245420000000  0.4951530000000  0.5108810000000 1.0
C      1  0.5055120000000  0.4977510000000  0.5579280000000 1.0
C      1  0.5154590000000  0.5336560000000  0.5000100000000 1.0
C      1  0.4442330000000  0.4571910000000  0.4691250000000 1.0
C      1  0.4833340000000  0.5148320000000  0.5493560000000 1.0
C      1  0.4813430000000  0.4051610000000  0.4269320000000 1.0
C      1  0.4234190000000  0.4121410000000  0.4848400000000 1.0
C      1  0.4245880000000  0.5475200000000  0.4331240000000 1.0
C      1  0.5807070000000  0.4903960000000  0.4385620000000 1.0
C      1  0.5572080000000  0.5426890000000  0.5249660000000 1.0
C      1  0.5289410000000  0.5564150000000  0.5157680000000 1.0
C      1  0.3833190000000  0.4964540000000  0.5193710000000 1.0
C      1  0.5059570000000  0.4201100000000  0.5635010000000 1.0
C      1  0.5941520000000  0.5107730000000  0.4539730000000 1.0
C      1  0.4705210000000  0.4797350000000  0.4375120000000 1.0
C      1  0.5768260000000  0.5636850000000  0.5125910000000 1.0
C      1  0.4921110000000  0.5269990000000  0.5908600000000 1.0
C      1  0.3851450000000  0.5171230000000  0.5053090000000 1.0
C      1  0.4584560000000  0.5497300000000  0.5621020000000 1.0
C      1  0.4521680000000  0.4733780000000  0.5899850000000 1.0
C      1  0.4970740000000  0.4717060000000  0.5053550000000 1.0
C      1  0.4855840000000  0.5384870000000  0.3942230000000 1.0
C      1  0.5208850000000  0.4575090000000  0.4287420000000 1.0
C      1  0.4330460000000  0.5089610000000  0.4809880000000 1.0
C      1  0.4354510000000  0.3937980000000  0.5026760000000 1.0
C      1  0.4647020000000  0.5221000000000  0.5751550000000 1.0
C      1  0.5434700000000  0.5188860000000  0.4628570000000 1.0
C      1  0.5080970000000  0.5011990000000  0.4578840000000 1.0
C      1  0.5483470000000  0.5214130000000  0.4200550000000 1.0
C      1  0.4709630000000  0.5032110000000  0.4192490000000 1.0
C      1  0.5296840000000  0.5076530000000  0.5277400000000 1.0
C      1  0.4892740000000  0.5985880000000  0.4222050000000 1.0
C      1  0.4612380000000  0.5989620000000  0.4574120000000 1.0
C      1  0.5191810000000  0.4480260000000  0.5738580000000 1.0
C      1  0.5993110000000  0.5639960000000  0.4612760000000 1.0
C      1  0.4608700000000  0.4499470000000  0.4299630000000 1.0
C      1  0.5493870000000  0.4720250000000  0.5311390000000 1.0
C      1  0.4986760000000  0.5722890000000  0.4389970000000 1.0
C      1  0.4629770000000  0.5908940000000  0.5313910000000 1.0
C      1  0.5496920000000  0.5233070000000  0.5504700000000 1.0
C      1  0.4341540000000  0.5619550000000  0.5679240000000 1.0
C      1  0.4490320000000  0.5780290000000  0.5041870000000 1.0
C      1  0.4564980000000  0.5448590000000  0.5046690000000 1.0
C      1  0.4333510000000  0.3670990000000  0.4998420000000 1.0
C      1  0.4970970000000  0.4397250000000  0.4608660000000 1.0
C      1  0.4112560000000  0.5305260000000  0.4961540000000 1.0
C      1  0.4846580000000  0.5672610000000  0.5659490000000 1.0
C      1  0.5193670000000  0.4775680000000  0.5397810000000 1.0
C      1  0.4169460000000  0.4828130000000  0.5736530000000 1.0
C      1  0.4986380000000  0.5011390000000  0.5152900000000 1.0
C      1  0.5507160000000  0.5690890000000  0.4960000000000 1.0
C      1  0.5474200000000  0.4939480000000  0.4400810000000 1.0
C      1  0.5233620000000  0.3906370000000  0.5188160000000 1.0
C      1  0.4219110000000  0.4396160000000  0.4804710000000 1.0
C      1  0.4436400000000  0.4994930000000  0.5722110000000 1.0
C      1  0.4872480000000  0.4553930000000  0.5653660000000 1.0
C      1  0.4173710000000  0.4856670000000  0.4288490000000 1.0
C      1  0.5636310000000  0.5020240000000  0.5706560000000 1.0
END
