TITL C-2847952-8118-305 0.00122674659684704 125000 -581.739139409682 0 0 108 (C1) n - 1
REM
REM in /home/bkarasulu/work/CARBON/AIRSS/Generating-Clusters/AIREBO/with-SteepDescent/Only-C1/SD-CG-opt/Try1-1.4A-POS3A/HFTN-CG
REM
REM
REM
REM
REM
REM ./C.cell (11c1c37f851c82e70ff6c80c92926a4b)
REM
REM compiler GCC version 9.2.1 20190827 (Red Hat 9.2.1-1)
REM options -cpp -mtune=generic -march=x86-64 -g -O0 -fpre-include=/usr/include/finclude/math-vector-fortran.h
REM seed 1065309048 -1676573415 1676111268 -784442714 -2072601693 -1273631071 71024803 -892744391 1226955307 2085840762 1424859363 -1354865629 -538216588 -789816041 -1899848260 -1135322137 1043669567 -535371033 -1065073407 401990212 -1427345465 672844383 -115604328 963727852 -1148283217 -812299919 -549647387 -681234857 -1877691318 516587168 -1601911067 1714505426 -1535080724
REM
CELL 1.54180   50.00000   50.00000   50.00000   90.00000   90.00000   90.00000
LATT -1
SFAC C  
C      1  0.5292100000000  0.5243410000000  0.4338780000000 1.0
C      1  0.3999250000000  0.5244010000000  0.4656050000000 1.0
C      1  0.5818200000000  0.4866640000000  0.5058900000000 1.0
C      1  0.4923900000000  0.4859100000000  0.4178080000000 1.0
C      1  0.5225090000000  0.4964820000000  0.5068820000000 1.0
C      1  0.4732230000000  0.5068290000000  0.4757680000000 1.0
C      1  0.5132670000000  0.5571390000000  0.4502100000000 1.0
C      1  0.5257240000000  0.5527100000000  0.5013510000000 1.0
C      1  0.4231110000000  0.5706260000000  0.4832550000000 1.0
C      1  0.4852120000000  0.5550420000000  0.4392350000000 1.0
C      1  0.5665010000000  0.4569580000000  0.5434260000000 1.0
C      1  0.5465690000000  0.5275000000000  0.4920390000000 1.0
C      1  0.4837710000000  0.4551370000000  0.5619990000000 1.0
C      1  0.5287450000000  0.4191640000000  0.5255110000000 1.0
C      1  0.4775600000000  0.5815410000000  0.4774600000000 1.0
C      1  0.5582680000000  0.5155370000000  0.5731530000000 1.0
C      1  0.4420860000000  0.4405840000000  0.4812470000000 1.0
C      1  0.4742070000000  0.4352340000000  0.4820420000000 1.0
C      1  0.4417020000000  0.5508070000000  0.5005720000000 1.0
C      1  0.5668630000000  0.5438960000000  0.5220900000000 1.0
C      1  0.5689290000000  0.4293830000000  0.4983850000000 1.0
C      1  0.5181180000000  0.4953570000000  0.5888910000000 1.0
C      1  0.4604890000000  0.4746420000000  0.4428260000000 1.0
C      1  0.4762500000000  0.5299330000000  0.5580120000000 1.0
C      1  0.4953420000000  0.5458260000000  0.4768080000000 1.0
C      1  0.4680740000000  0.4431750000000  0.4354540000000 1.0
C      1  0.3979500000000  0.4846450000000  0.4667020000000 1.0
C      1  0.5237680000000  0.5431940000000  0.5523540000000 1.0
C      1  0.4688430000000  0.5705890000000  0.5062120000000 1.0
C      1  0.4813780000000  0.5309030000000  0.4271990000000 1.0
C      1  0.4756830000000  0.4330500000000  0.5814140000000 1.0
C      1  0.4717360000000  0.4523780000000  0.5340150000000 1.0
C      1  0.5487740000000  0.5495660000000  0.4336180000000 1.0
C      1  0.5081410000000  0.5764030000000  0.4844100000000 1.0
C      1  0.4477350000000  0.5238800000000  0.5689710000000 1.0
C      1  0.4858620000000  0.4972650000000  0.5886460000000 1.0
C      1  0.4215480000000  0.4795680000000  0.4489580000000 1.0
C      1  0.5627720000000  0.5110450000000  0.5167600000000 1.0
C      1  0.5465740000000  0.4455770000000  0.4555800000000 1.0
C      1  0.5069920000000  0.4530660000000  0.4954090000000 1.0
C      1  0.4936830000000  0.5258010000000  0.5043220000000 1.0
C      1  0.5211430000000  0.5266370000000  0.5227180000000 1.0
C      1  0.4211880000000  0.5441890000000  0.5341760000000 1.0
C      1  0.4391470000000  0.4506290000000  0.4519760000000 1.0
C      1  0.5480550000000  0.4898860000000  0.4300570000000 1.0
C      1  0.5269910000000  0.4649410000000  0.5862400000000 1.0
C      1  0.4725220000000  0.4830120000000  0.5693750000000 1.0
C      1  0.4756010000000  0.5389260000000  0.5289900000000 1.0
C      1  0.4533500000000  0.4975400000000  0.5546180000000 1.0
C      1  0.5764820000000  0.4914370000000  0.4424510000000 1.0
C      1  0.4671260000000  0.4872990000000  0.4057670000000 1.0
C      1  0.5032580000000  0.5115260000000  0.4224190000000 1.0
C      1  0.4756250000000  0.4978820000000  0.5084950000000 1.0
C      1  0.5618410000000  0.4513510000000  0.5129020000000 1.0
C      1  0.5396690000000  0.4681280000000  0.4157100000000 1.0
C      1  0.4694690000000  0.5806140000000  0.5387080000000 1.0
C      1  0.5499710000000  0.4788730000000  0.4968260000000 1.0
C      1  0.4410130000000  0.4956100000000  0.4259220000000 1.0
C      1  0.5166610000000  0.4823660000000  0.5372700000000 1.0
C      1  0.4435350000000  0.4510630000000  0.5309220000000 1.0
C      1  0.5799870000000  0.5155000000000  0.4742080000000 1.0
C      1  0.5230910000000  0.4144800000000  0.4951630000000 1.0
C      1  0.5335370000000  0.4521220000000  0.4848250000000 1.0
C      1  0.4973760000000  0.4600780000000  0.4389000000000 1.0
C      1  0.4917260000000  0.4733540000000  0.5171490000000 1.0
C      1  0.5248450000000  0.4973680000000  0.4537540000000 1.0
C      1  0.5158860000000  0.4563570000000  0.5576460000000 1.0
C      1  0.4869940000000  0.4647530000000  0.4709910000000 1.0
C      1  0.4253550000000  0.4922180000000  0.5081640000000 1.0
C      1  0.4553920000000  0.4718530000000  0.4823740000000 1.0
C      1  0.5029650000000  0.5243700000000  0.5946030000000 1.0
C      1  0.4767680000000  0.5686050000000  0.5669500000000 1.0
C      1  0.5505390000000  0.5411420000000  0.5702500000000 1.0
C      1  0.4890190000000  0.3884580000000  0.5376780000000 1.0
C      1  0.4989180000000  0.5620300000000  0.5201230000000 1.0
C      1  0.4336660000000  0.4611450000000  0.5063100000000 1.0
C      1  0.4411390000000  0.4978000000000  0.4690070000000 1.0
C      1  0.3999840000000  0.5065350000000  0.4926650000000 1.0
C      1  0.5441090000000  0.5684620000000  0.4554080000000 1.0
C      1  0.4996040000000  0.4111620000000  0.5272590000000 1.0
C      1  0.5763920000000  0.5436400000000  0.4895250000000 1.0
C      1  0.4485200000000  0.5541450000000  0.5428400000000 1.0
C      1  0.4858600000000  0.4339980000000  0.5140020000000 1.0
C      1  0.5268990000000  0.4506340000000  0.4329200000000 1.0
C      1  0.4987610000000  0.4125150000000  0.4830400000000 1.0
C      1  0.5623410000000  0.4901560000000  0.5430020000000 1.0
C      1  0.5908500000000  0.4832810000000  0.4747310000000 1.0
C      1  0.4647200000000  0.5384510000000  0.4801650000000 1.0
C      1  0.5533970000000  0.4955030000000  0.4690900000000 1.0
C      1  0.4687980000000  0.5071460000000  0.4420480000000 1.0
C      1  0.5481630000000  0.5593080000000  0.5349930000000 1.0
C      1  0.5514680000000  0.5657200000000  0.4826300000000 1.0
C      1  0.5252300000000  0.5776010000000  0.5323240000000 1.0
C      1  0.4509140000000  0.4979760000000  0.5260590000000 1.0
C      1  0.5378310000000  0.4396930000000  0.5426200000000 1.0
C      1  0.5004510000000  0.5445890000000  0.5713390000000 1.0
C      1  0.4670380000000  0.5689000000000  0.4544970000000 1.0
C      1  0.4271570000000  0.5250090000000  0.4585670000000 1.0
C      1  0.4509350000000  0.5546090000000  0.5767030000000 1.0
C      1  0.4407320000000  0.5527190000000  0.4608040000000 1.0
C      1  0.5471010000000  0.4217330000000  0.4772020000000 1.0
C      1  0.5837890000000  0.5024000000000  0.5667340000000 1.0
C      1  0.4210620000000  0.5258820000000  0.5110610000000 1.0
C      1  0.5744270000000  0.4604860000000  0.4555670000000 1.0
C      1  0.5043210000000  0.4932120000000  0.4778620000000 1.0
C      1  0.5933560000000  0.4705970000000  0.5276340000000 1.0
C      1  0.5299320000000  0.5329350000000  0.4667740000000 1.0
C      1  0.5347080000000  0.4957160000000  0.5619300000000 1.0
END
