TITL C-2847956-8218-389 0.00252641561336235 125000 -1025.36988733328 0 0 187 (C1) n - 1
REM
REM in /home/bkarasulu/work/CARBON/AIRSS/Generating-Clusters/AIREBO/with-SteepDescent/Only-C1/SD-CG-opt/Try1-1.4A-POS3A/HFTN-CG
REM
REM
REM
REM
REM
REM ./C.cell (11c1c37f851c82e70ff6c80c92926a4b)
REM
REM compiler GCC version 9.2.1 20190827 (Red Hat 9.2.1-1)
REM options -cpp -mtune=generic -march=x86-64 -g -O0 -fpre-include=/usr/include/finclude/math-vector-fortran.h
REM seed -2125049053 -720514354 2091198925 -396338845 1400955134 -254405393 415373833 -1203814365 2043892833 14871559 49021737 1262711645 910836702 -1992536061 -2115191733 1744348681 -997914625 263933084 323270527 776589265 -26998117 -1517293759 -795447597 -341574300 -1641650736 1935074499 -495690883 944784529 -1022188172 -152808798 -606582535 112321182 1068729046
REM
CELL 1.54180   50.00000   50.00000   50.00000   90.00000   90.00000   90.00000
LATT -1
SFAC C  
C      1  0.5541400000000  0.4766180000000  0.6009810000000 1.0
C      1  0.5527310000000  0.5258220000000  0.4959000000000 1.0
C      1  0.5233810000000  0.4734470000000  0.5320860000000 1.0
C      1  0.4799390000000  0.5438740000000  0.5492720000000 1.0
C      1  0.4062540000000  0.5056750000000  0.5217950000000 1.0
C      1  0.4547790000000  0.5295180000000  0.5844340000000 1.0
C      1  0.4688690000000  0.5365630000000  0.4020240000000 1.0
C      1  0.5203910000000  0.5929660000000  0.5398870000000 1.0
C      1  0.5637050000000  0.5600300000000  0.5281100000000 1.0
C      1  0.4588940000000  0.5979080000000  0.4957680000000 1.0
C      1  0.4042090000000  0.5139690000000  0.4391540000000 1.0
C      1  0.4315320000000  0.5059390000000  0.5872580000000 1.0
C      1  0.4809320000000  0.5074380000000  0.5831750000000 1.0
C      1  0.4633850000000  0.5091180000000  0.4304530000000 1.0
C      1  0.3995450000000  0.4778850000000  0.4700220000000 1.0
C      1  0.4476970000000  0.4074890000000  0.5574460000000 1.0
C      1  0.4467910000000  0.5021320000000  0.6164000000000 1.0
C      1  0.4333930000000  0.5481770000000  0.5115870000000 1.0
C      1  0.3922500000000  0.4935090000000  0.4978680000000 1.0
C      1  0.4106900000000  0.4536200000000  0.4714040000000 1.0
C      1  0.5454750000000  0.4587850000000  0.5107630000000 1.0
C      1  0.5283810000000  0.3968360000000  0.4286610000000 1.0
C      1  0.4393190000000  0.5672840000000  0.4350630000000 1.0
C      1  0.4548790000000  0.4253830000000  0.4730150000000 1.0
C      1  0.4000100000000  0.5600420000000  0.4844750000000 1.0
C      1  0.3869290000000  0.5084900000000  0.4675570000000 1.0
C      1  0.5821430000000  0.5122870000000  0.4843170000000 1.0
C      1  0.5274200000000  0.4259530000000  0.6051710000000 1.0
C      1  0.5300620000000  0.4755240000000  0.5793160000000 1.0
C      1  0.5221270000000  0.5322370000000  0.5092950000000 1.0
C      1  0.5697180000000  0.4702040000000  0.5286250000000 1.0
C      1  0.5401890000000  0.5659300000000  0.4187270000000 1.0
C      1  0.5732710000000  0.5767790000000  0.4815070000000 1.0
C      1  0.4787970000000  0.4092400000000  0.5823140000000 1.0
C      1  0.5625860000000  0.5034390000000  0.4062300000000 1.0
C      1  0.5917090000000  0.4603220000000  0.5062250000000 1.0
C      1  0.4430860000000  0.3969830000000  0.4575460000000 1.0
C      1  0.4718940000000  0.6137490000000  0.5419570000000 1.0
C      1  0.5400610000000  0.5415210000000  0.5433230000000 1.0
C      1  0.4987830000000  0.4503550000000  0.5297260000000 1.0
C      1  0.5207620000000  0.4492090000000  0.4115670000000 1.0
C      1  0.5140560000000  0.5099910000000  0.4143270000000 1.0
C      1  0.5097400000000  0.4340150000000  0.5857620000000 1.0
C      1  0.5826580000000  0.5404080000000  0.4406400000000 1.0
C      1  0.5504250000000  0.4460650000000  0.4263530000000 1.0
C      1  0.4966490000000  0.6116570000000  0.5414290000000 1.0
C      1  0.5255870000000  0.4991960000000  0.5099840000000 1.0
C      1  0.5537550000000  0.4259080000000  0.5081030000000 1.0
C      1  0.4651970000000  0.3851350000000  0.5067940000000 1.0
C      1  0.5553890000000  0.5544360000000  0.4439670000000 1.0
C      1  0.5650450000000  0.4724180000000  0.4106110000000 1.0
C      1  0.5156180000000  0.4313630000000  0.5523620000000 1.0
C      1  0.4213410000000  0.5532110000000  0.5490720000000 1.0
C      1  0.5648100000000  0.4369000000000  0.4562070000000 1.0
C      1  0.5671390000000  0.4445670000000  0.5631270000000 1.0
C      1  0.4519320000000  0.5948950000000  0.5253410000000 1.0
C      1  0.4153770000000  0.5798280000000  0.4952220000000 1.0
C      1  0.5002690000000  0.4959050000000  0.5430410000000 1.0
C      1  0.5322280000000  0.5960750000000  0.4573770000000 1.0
C      1  0.5586900000000  0.5203820000000  0.5277730000000 1.0
C      1  0.4347160000000  0.5092840000000  0.4730270000000 1.0
C      1  0.6033710000000  0.5054300000000  0.5377780000000 1.0
C      1  0.4633650000000  0.5219580000000  0.5139140000000 1.0
C      1  0.5087010000000  0.4174110000000  0.5012690000000 1.0
C      1  0.5984630000000  0.4764070000000  0.5421830000000 1.0
C      1  0.5467320000000  0.5046140000000  0.5736660000000 1.0
C      1  0.5641240000000  0.4966230000000  0.5455420000000 1.0
C      1  0.5505370000000  0.4839900000000  0.4389930000000 1.0
C      1  0.5835090000000  0.4275130000000  0.5452520000000 1.0
C      1  0.5074180000000  0.4220870000000  0.4231530000000 1.0
C      1  0.5881190000000  0.4790080000000  0.4800650000000 1.0
C      1  0.4349290000000  0.4961340000000  0.5250210000000 1.0
C      1  0.5388720000000  0.5170560000000  0.3992290000000 1.0
C      1  0.4908430000000  0.5133230000000  0.4732080000000 1.0
C      1  0.4406640000000  0.4523340000000  0.4574970000000 1.0
C      1  0.4482540000000  0.4799940000000  0.4754200000000 1.0
C      1  0.4047530000000  0.5122900000000  0.5736050000000 1.0
C      1  0.4387110000000  0.5856900000000  0.4809830000000 1.0
C      1  0.5571560000000  0.5828120000000  0.5503050000000 1.0
C      1  0.4730760000000  0.5123460000000  0.6156710000000 1.0
C      1  0.4935400000000  0.4064780000000  0.5594060000000 1.0
C      1  0.5135100000000  0.4420340000000  0.4500250000000 1.0
C      1  0.5981380000000  0.5633080000000  0.4786090000000 1.0
C      1  0.5816290000000  0.4571070000000  0.4360430000000 1.0
C      1  0.5744610000000  0.5330760000000  0.5778080000000 1.0
C      1  0.4782320000000  0.5297530000000  0.4513730000000 1.0
C      1  0.4320900000000  0.5107010000000  0.4427150000000 1.0
C      1  0.5320520000000  0.3972910000000  0.4907960000000 1.0
C      1  0.4848580000000  0.6011040000000  0.4884310000000 1.0
C      1  0.4502550000000  0.5390210000000  0.5386150000000 1.0
C      1  0.4355880000000  0.4261290000000  0.4990230000000 1.0
C      1  0.4092720000000  0.4369670000000  0.4943660000000 1.0
C      1  0.4018360000000  0.5261210000000  0.5488020000000 1.0
C      1  0.4660900000000  0.4301690000000  0.5427590000000 1.0
C      1  0.5259280000000  0.5563720000000  0.4778230000000 1.0
C      1  0.4896490000000  0.4466330000000  0.3969710000000 1.0
C      1  0.4783440000000  0.4156390000000  0.4194040000000 1.0
C      1  0.4758670000000  0.5398900000000  0.6209710000000 1.0
C      1  0.5319680000000  0.5738460000000  0.5654310000000 1.0
C      1  0.5165020000000  0.6048250000000  0.4784200000000 1.0
C      1  0.4852030000000  0.4247930000000  0.4576360000000 1.0
C      1  0.4932240000000  0.5621310000000  0.4851880000000 1.0
C      1  0.5922790000000  0.4606220000000  0.5658860000000 1.0
C      1  0.4558060000000  0.4582650000000  0.5766880000000 1.0
C      1  0.5220290000000  0.5190960000000  0.5553310000000 1.0
C      1  0.5504950000000  0.5683130000000  0.3802440000000 1.0
C      1  0.4976560000000  0.5327190000000  0.5696370000000 1.0
C      1  0.4860810000000  0.5545810000000  0.5175870000000 1.0
C      1  0.5423190000000  0.5300810000000  0.4638120000000 1.0
C      1  0.4277860000000  0.4464100000000  0.5677800000000 1.0
C      1  0.4779160000000  0.4378490000000  0.5925380000000 1.0
C      1  0.6011090000000  0.5146470000000  0.5124800000000 1.0
C      1  0.5572540000000  0.5890710000000  0.4001320000000 1.0
C      1  0.5453160000000  0.5368190000000  0.5919550000000 1.0
C      1  0.4457200000000  0.4441590000000  0.5231600000000 1.0
C      1  0.5102170000000  0.5834500000000  0.5027440000000 1.0
C      1  0.5861580000000  0.5048340000000  0.5671220000000 1.0
C      1  0.4769270000000  0.5591780000000  0.4608900000000 1.0
C      1  0.5197820000000  0.4480610000000  0.4915680000000 1.0
C      1  0.4661160000000  0.4988640000000  0.5387420000000 1.0
C      1  0.4951680000000  0.5341430000000  0.4234940000000 1.0
C      1  0.5721060000000  0.5025670000000  0.5965700000000 1.0
C      1  0.4830550000000  0.4556590000000  0.5576660000000 1.0
C      1  0.4640970000000  0.5797180000000  0.5733460000000 1.0
C      1  0.5544230000000  0.4143270000000  0.4765740000000 1.0
C      1  0.4884830000000  0.4451330000000  0.4816470000000 1.0
C      1  0.5954970000000  0.5378000000000  0.4661320000000 1.0
C      1  0.4964100000000  0.4712420000000  0.4467470000000 1.0
C      1  0.4449240000000  0.4846000000000  0.4158120000000 1.0
C      1  0.4245530000000  0.5778210000000  0.5258320000000 1.0
C      1  0.5658360000000  0.5071930000000  0.4549110000000 1.0
C      1  0.4082230000000  0.5275550000000  0.4843620000000 1.0
C      1  0.5407840000000  0.5435170000000  0.3933150000000 1.0
C      1  0.6013870000000  0.4717950000000  0.4532180000000 1.0
C      1  0.4859810000000  0.5792170000000  0.4387760000000 1.0
C      1  0.5775750000000  0.5155910000000  0.4259890000000 1.0
C      1  0.4043390000000  0.5371710000000  0.5167430000000 1.0
C      1  0.4799540000000  0.4830950000000  0.4735090000000 1.0
C      1  0.5206010000000  0.4935350000000  0.4378010000000 1.0
C      1  0.5249890000000  0.4811320000000  0.4848560000000 1.0
C      1  0.4786770000000  0.4001580000000  0.5335380000000 1.0
C      1  0.5303220000000  0.4135950000000  0.5272680000000 1.0
C      1  0.5570460000000  0.5824210000000  0.4589070000000 1.0
C      1  0.5544450000000  0.5597590000000  0.4973030000000 1.0
C      1  0.4637980000000  0.5849180000000  0.4227900000000 1.0
C      1  0.3987540000000  0.4421480000000  0.5213320000000 1.0
C      1  0.5338590000000  0.5108260000000  0.6045420000000 1.0
C      1  0.4474550000000  0.4565180000000  0.4261080000000 1.0
C      1  0.4694740000000  0.5738840000000  0.5408060000000 1.0
C      1  0.5241600000000  0.5515340000000  0.5786040000000 1.0
C      1  0.4398180000000  0.4726170000000  0.5037270000000 1.0
C      1  0.5220760000000  0.3828520000000  0.5163130000000 1.0
C      1  0.5219180000000  0.5013460000000  0.6251600000000 1.0
C      1  0.5193390000000  0.5062690000000  0.4655690000000 1.0
C      1  0.4198400000000  0.4450610000000  0.5417350000000 1.0
C      1  0.5389110000000  0.4556760000000  0.5571000000000 1.0
C      1  0.4954000000000  0.3768270000000  0.5182980000000 1.0
C      1  0.5324860000000  0.4136080000000  0.4530330000000 1.0
C      1  0.4401160000000  0.5563500000000  0.5731280000000 1.0
C      1  0.5167980000000  0.5820210000000  0.4347270000000 1.0
C      1  0.5611790000000  0.4603250000000  0.4806390000000 1.0
C      1  0.5368040000000  0.4643920000000  0.4595460000000 1.0
C      1  0.4478040000000  0.5107890000000  0.3937820000000 1.0
C      1  0.4841920000000  0.4999660000000  0.4060840000000 1.0
C      1  0.4776150000000  0.4125740000000  0.4948400000000 1.0
C      1  0.5817750000000  0.4336510000000  0.5178670000000 1.0
C      1  0.4462960000000  0.3685560000000  0.4968530000000 1.0
C      1  0.6263960000000  0.4761490000000  0.4474470000000 1.0
C      1  0.5133090000000  0.5513980000000  0.4465560000000 1.0
C      1  0.4676360000000  0.5576940000000  0.5985950000000 1.0
C      1  0.4892960000000  0.4695990000000  0.5033060000000 1.0
C      1  0.4665340000000  0.6062850000000  0.5808810000000 1.0
C      1  0.4999850000000  0.4813210000000  0.5725990000000 1.0
C      1  0.4914500000000  0.5256020000000  0.5006030000000 1.0
C      1  0.4968420000000  0.4733140000000  0.4132520000000 1.0
C      1  0.4463280000000  0.5617080000000  0.4652290000000 1.0
C      1  0.5806080000000  0.5518810000000  0.5564930000000 1.0
C      1  0.4473840000000  0.5353030000000  0.4866530000000 1.0
C      1  0.4763930000000  0.5146120000000  0.3771680000000 1.0
C      1  0.5242980000000  0.5636790000000  0.5228980000000 1.0
C      1  0.4630280000000  0.4390970000000  0.4102670000000 1.0
C      1  0.4552410000000  0.4896870000000  0.5697200000000 1.0
C      1  0.4179580000000  0.4956100000000  0.3982720000000 1.0
C      1  0.4669350000000  0.4026210000000  0.4424710000000 1.0
C      1  0.4526040000000  0.5606700000000  0.4065860000000 1.0
C      1  0.5504700000000  0.6095850000000  0.5391600000000 1.0
C      1  0.4660310000000  0.4714220000000  0.5223590000000 1.0
END
