TITL C-2847947-6848-597 -0.00213609413430814 125000 -414.737917979002 0 0 80 (C1) n - 1
REM
REM in /home/bkarasulu/work/CARBON/AIRSS/Generating-Clusters/AIREBO/with-SteepDescent/Only-C1/SD-CG-opt/Try1-1.4A-POS3A/HFTN-CG
REM
REM
REM
REM
REM
REM ./C.cell (11c1c37f851c82e70ff6c80c92926a4b)
REM
REM compiler GCC version 9.2.1 20190827 (Red Hat 9.2.1-1)
REM options -cpp -mtune=generic -march=x86-64 -g -O0 -fpre-include=/usr/include/finclude/math-vector-fortran.h
REM seed 2010532355 979481402 850403627 -599498981 484320679 -1934738379 -42258639 -956039273 1373533738 1942657309 213551220 1035548234 -699532395 2096485041 907926419 1314825393 282081187 2018520740 -1661933345 -1446460263 1661241922 -2005298772 1092483432 -1872782027 -831861898 -1890023495 1514030745 -1963147013 1646870250 -576133638 1913767506 1111126748 -1390801715
REM
CELL 1.54180   50.00000   50.00000   50.00000   90.00000   90.00000   90.00000
LATT -1
SFAC C  
C      1  0.4551930000000  0.5262240000000  0.5251630000000 1.0
C      1  0.4565900000000  0.5482600000000  0.4550610000000 1.0
C      1  0.4387030000000  0.4923670000000  0.5386110000000 1.0
C      1  0.4577980000000  0.4770340000000  0.5022130000000 1.0
C      1  0.4970910000000  0.5000800000000  0.5354680000000 1.0
C      1  0.5102920000000  0.5184070000000  0.5799680000000 1.0
C      1  0.5233130000000  0.4679610000000  0.4786440000000 1.0
C      1  0.5344970000000  0.4840520000000  0.4053750000000 1.0
C      1  0.4776160000000  0.5254620000000  0.5736640000000 1.0
C      1  0.5194340000000  0.4426580000000  0.4562570000000 1.0
C      1  0.5234960000000  0.4855570000000  0.5237080000000 1.0
C      1  0.4916700000000  0.5530250000000  0.5618480000000 1.0
C      1  0.5331200000000  0.5252660000000  0.5349870000000 1.0
C      1  0.5072070000000  0.5704870000000  0.5162920000000 1.0
C      1  0.5497300000000  0.4366620000000  0.5241030000000 1.0
C      1  0.4436010000000  0.4482240000000  0.5043790000000 1.0
C      1  0.5126510000000  0.5701030000000  0.4432060000000 1.0
C      1  0.5425640000000  0.4104300000000  0.4839890000000 1.0
C      1  0.4564100000000  0.4723350000000  0.5564550000000 1.0
C      1  0.4363690000000  0.5521930000000  0.4821170000000 1.0
C      1  0.5758850000000  0.4981320000000  0.5153770000000 1.0
C      1  0.5620000000000  0.5473050000000  0.5210770000000 1.0
C      1  0.4534570000000  0.5490400000000  0.5726700000000 1.0
C      1  0.5810610000000  0.5636220000000  0.5104440000000 1.0
C      1  0.5375370000000  0.5224930000000  0.5744600000000 1.0
C      1  0.5020280000000  0.4911790000000  0.4906160000000 1.0
C      1  0.4279790000000  0.4631920000000  0.5248180000000 1.0
C      1  0.4950430000000  0.4490450000000  0.5222090000000 1.0
C      1  0.4700860000000  0.5732710000000  0.5669910000000 1.0
C      1  0.5044240000000  0.5758030000000  0.4695220000000 1.0
C      1  0.4733890000000  0.4936800000000  0.4282800000000 1.0
C      1  0.5006810000000  0.5158300000000  0.4715290000000 1.0
C      1  0.4544990000000  0.5139480000000  0.4754950000000 1.0
C      1  0.4747440000000  0.5623180000000  0.4784300000000 1.0
C      1  0.5452790000000  0.4714120000000  0.5597080000000 1.0
C      1  0.4914160000000  0.5387440000000  0.4944860000000 1.0
C      1  0.4760850000000  0.5447060000000  0.4303020000000 1.0
C      1  0.4853420000000  0.4804510000000  0.5135070000000 1.0
C      1  0.4328690000000  0.5238880000000  0.4546810000000 1.0
C      1  0.5438060000000  0.5230270000000  0.5041690000000 1.0
C      1  0.5695980000000  0.5008940000000  0.4835430000000 1.0
C      1  0.5242630000000  0.5356480000000  0.4862260000000 1.0
C      1  0.5409570000000  0.4896650000000  0.4980310000000 1.0
C      1  0.5543750000000  0.4323310000000  0.4972620000000 1.0
C      1  0.5035890000000  0.5453720000000  0.4329150000000 1.0
C      1  0.5140720000000  0.4490920000000  0.4301580000000 1.0
C      1  0.5248380000000  0.4559880000000  0.5373040000000 1.0
C      1  0.4678290000000  0.4337790000000  0.4973260000000 1.0
C      1  0.5534490000000  0.5445290000000  0.5538720000000 1.0
C      1  0.4475730000000  0.4413080000000  0.4636670000000 1.0
C      1  0.5223370000000  0.4166530000000  0.4663620000000 1.0
C      1  0.4669730000000  0.4678280000000  0.4724240000000 1.0
C      1  0.5333280000000  0.4947740000000  0.4296020000000 1.0
C      1  0.4977880000000  0.4920880000000  0.5663720000000 1.0
C      1  0.4863660000000  0.4168950000000  0.5153120000000 1.0
C      1  0.5637010000000  0.5104060000000  0.5362350000000 1.0
C      1  0.4695540000000  0.4859150000000  0.5760920000000 1.0
C      1  0.5441670000000  0.5100230000000  0.4628940000000 1.0
C      1  0.4217540000000  0.4959820000000  0.4613380000000 1.0
C      1  0.5525240000000  0.5003360000000  0.5611260000000 1.0
C      1  0.5139550000000  0.4665600000000  0.5686740000000 1.0
C      1  0.4409690000000  0.5030080000000  0.5047970000000 1.0
C      1  0.4773970000000  0.4972520000000  0.4589190000000 1.0
C      1  0.4490480000000  0.5200590000000  0.5554260000000 1.0
C      1  0.4818200000000  0.5790020000000  0.5069660000000 1.0
C      1  0.4939910000000  0.4525570000000  0.4864040000000 1.0
C      1  0.5355440000000  0.4733670000000  0.3814740000000 1.0
C      1  0.4394040000000  0.5459290000000  0.5058680000000 1.0
C      1  0.5185770000000  0.5206520000000  0.4435330000000 1.0
C      1  0.5606510000000  0.4538470000000  0.4800350000000 1.0
C      1  0.5203880000000  0.5660720000000  0.4913790000000 1.0
C      1  0.4711190000000  0.4517010000000  0.5462340000000 1.0
C      1  0.4398990000000  0.4728610000000  0.4524470000000 1.0
C      1  0.4138540000000  0.4952160000000  0.4883350000000 1.0
C      1  0.5066830000000  0.5466500000000  0.5359750000000 1.0
C      1  0.5739810000000  0.4993730000000  0.4499210000000 1.0
C      1  0.5496140000000  0.4766920000000  0.4589290000000 1.0
C      1  0.5614850000000  0.4456970000000  0.5493320000000 1.0
C      1  0.4523430000000  0.4792260000000  0.4244070000000 1.0
C      1  0.4852870000000  0.5269020000000  0.5226050000000 1.0
END
