TITL C-2847944-5688-244 0.00113597750563285 125000 -1000.11885013317 0 0 185 (C1) n - 1
REM
REM in /home/bkarasulu/work/CARBON/AIRSS/Generating-Clusters/AIREBO/with-SteepDescent/Only-C1/SD-CG-opt/Try1-1.4A-POS3A/HFTN-CG
REM
REM
REM
REM
REM
REM ./C.cell (11c1c37f851c82e70ff6c80c92926a4b)
REM
REM compiler GCC version 9.2.1 20190827 (Red Hat 9.2.1-1)
REM options -cpp -mtune=generic -march=x86-64 -g -O0 -fpre-include=/usr/include/finclude/math-vector-fortran.h
REM seed 1074725157 817827971 1706845195 2085507939 1749016121 -1998760286 69234488 -982862672 1256357477 1114586832 121891017 560239563 -903054910 -413851267 1322363356 -1125711665 -635268805 -781513394 2074617454 1249167803 -1995842227 -307214524 -1325996987 1127962468 1998547695 -510146362 -879081876 -897092183 -1735140517 -1887988752 -918596263 1583556997 1883491870
REM
CELL 1.54180   50.00000   50.00000   50.00000   90.00000   90.00000   90.00000
LATT -1
SFAC C  
C      1  0.5713560000000  0.5283530000000  0.4975470000000 1.0
C      1  0.6145220000000  0.4618610000000  0.5614720000000 1.0
C      1  0.5465400000000  0.5033640000000  0.4570210000000 1.0
C      1  0.4541420000000  0.4494330000000  0.5373360000000 1.0
C      1  0.4732870000000  0.4396410000000  0.5037200000000 1.0
C      1  0.5398600000000  0.5466590000000  0.4091690000000 1.0
C      1  0.5578540000000  0.5289450000000  0.4663450000000 1.0
C      1  0.4156240000000  0.4763730000000  0.4459730000000 1.0
C      1  0.4303270000000  0.4965110000000  0.5727020000000 1.0
C      1  0.5652010000000  0.5342220000000  0.4242930000000 1.0
C      1  0.4047230000000  0.6109920000000  0.5259680000000 1.0
C      1  0.4190270000000  0.4157020000000  0.4760060000000 1.0
C      1  0.5548720000000  0.4810520000000  0.4755580000000 1.0
C      1  0.4958970000000  0.4293110000000  0.5187750000000 1.0
C      1  0.4200090000000  0.4296000000000  0.5053320000000 1.0
C      1  0.5129120000000  0.5816670000000  0.5505460000000 1.0
C      1  0.4966340000000  0.5594960000000  0.4359620000000 1.0
C      1  0.5861330000000  0.4465080000000  0.4815060000000 1.0
C      1  0.5822390000000  0.4867630000000  0.4634870000000 1.0
C      1  0.4641050000000  0.4682000000000  0.5141930000000 1.0
C      1  0.4466770000000  0.5548810000000  0.4172500000000 1.0
C      1  0.3930280000000  0.5175380000000  0.5107770000000 1.0
C      1  0.5542690000000  0.3949360000000  0.4796460000000 1.0
C      1  0.5106140000000  0.5532780000000  0.4864180000000 1.0
C      1  0.4953540000000  0.5249640000000  0.3834010000000 1.0
C      1  0.4066070000000  0.4972600000000  0.5508150000000 1.0
C      1  0.3655150000000  0.5233510000000  0.4687860000000 1.0
C      1  0.4835680000000  0.3926080000000  0.5090120000000 1.0
C      1  0.5846250000000  0.5536910000000  0.5159420000000 1.0
C      1  0.4243060000000  0.5949230000000  0.5170610000000 1.0
C      1  0.5915670000000  0.4491000000000  0.5083200000000 1.0
C      1  0.6188470000000  0.5295670000000  0.5170940000000 1.0
C      1  0.5431480000000  0.4429020000000  0.5351670000000 1.0
C      1  0.5237820000000  0.4479760000000  0.4526960000000 1.0
C      1  0.4590940000000  0.5667570000000  0.5626460000000 1.0
C      1  0.5434560000000  0.4310500000000  0.5850810000000 1.0
C      1  0.5453070000000  0.5584680000000  0.5512430000000 1.0
C      1  0.5222060000000  0.4308870000000  0.5030340000000 1.0
C      1  0.5488460000000  0.4746710000000  0.5780310000000 1.0
C      1  0.4374820000000  0.4814810000000  0.4715180000000 1.0
C      1  0.5105330000000  0.4438420000000  0.5449050000000 1.0
C      1  0.5226030000000  0.4166450000000  0.4398910000000 1.0
C      1  0.5733800000000  0.4321530000000  0.5219270000000 1.0
C      1  0.4598840000000  0.4089950000000  0.5539570000000 1.0
C      1  0.4931500000000  0.5186310000000  0.5948250000000 1.0
C      1  0.5488520000000  0.4740680000000  0.5227500000000 1.0
C      1  0.5158500000000  0.5186720000000  0.5424950000000 1.0
C      1  0.4596980000000  0.5902760000000  0.4547930000000 1.0
C      1  0.5311600000000  0.5978820000000  0.5307180000000 1.0
C      1  0.5110750000000  0.4760270000000  0.4140490000000 1.0
C      1  0.4550880000000  0.4382850000000  0.4500150000000 1.0
C      1  0.4536710000000  0.4337230000000  0.5739960000000 1.0
C      1  0.5009380000000  0.5849630000000  0.5817530000000 1.0
C      1  0.6180300000000  0.5032620000000  0.4624600000000 1.0
C      1  0.5070210000000  0.6243320000000  0.4582160000000 1.0
C      1  0.4518990000000  0.4371100000000  0.4826980000000 1.0
C      1  0.3913670000000  0.5166480000000  0.4774950000000 1.0
C      1  0.5236160000000  0.5764930000000  0.4676820000000 1.0
C      1  0.4430180000000  0.4628360000000  0.4368640000000 1.0
C      1  0.5281590000000  0.6082110000000  0.4562950000000 1.0
C      1  0.5038420000000  0.6053930000000  0.5197550000000 1.0
C      1  0.5151100000000  0.5074320000000  0.4591510000000 1.0
C      1  0.6083610000000  0.4794530000000  0.4828030000000 1.0
C      1  0.5919520000000  0.5147750000000  0.4465820000000 1.0
C      1  0.4210590000000  0.5469710000000  0.5383750000000 1.0
C      1  0.4440510000000  0.4209330000000  0.5242460000000 1.0
C      1  0.4617960000000  0.4867040000000  0.6121110000000 1.0
C      1  0.5386310000000  0.4592310000000  0.4939030000000 1.0
C      1  0.4425080000000  0.5143560000000  0.4803080000000 1.0
C      1  0.4746220000000  0.5643210000000  0.5324800000000 1.0
C      1  0.4726550000000  0.4110510000000  0.4469190000000 1.0
C      1  0.5051460000000  0.4889190000000  0.5989320000000 1.0
C      1  0.3898460000000  0.4637510000000  0.4864910000000 1.0
C      1  0.4839610000000  0.5728100000000  0.4646480000000 1.0
C      1  0.4493420000000  0.4052390000000  0.4709880000000 1.0
C      1  0.4706830000000  0.4972650000000  0.5804890000000 1.0
C      1  0.5978780000000  0.5204000000000  0.5332490000000 1.0
C      1  0.5437950000000  0.5261050000000  0.5574180000000 1.0
C      1  0.4296590000000  0.4471440000000  0.5784000000000 1.0
C      1  0.5627070000000  0.4753860000000  0.4173480000000 1.0
C      1  0.4956240000000  0.4707000000000  0.5139580000000 1.0
C      1  0.5712930000000  0.4528810000000  0.4321950000000 1.0
C      1  0.4913380000000  0.5198070000000  0.5109820000000 1.0
C      1  0.5387370000000  0.4734180000000  0.3986140000000 1.0
C      1  0.4849370000000  0.4459870000000  0.4620180000000 1.0
C      1  0.4744210000000  0.4911670000000  0.5513230000000 1.0
C      1  0.4247760000000  0.4731640000000  0.5931800000000 1.0
C      1  0.5181450000000  0.4742760000000  0.5765190000000 1.0
C      1  0.5234040000000  0.5719800000000  0.4244460000000 1.0
C      1  0.4837630000000  0.5157250000000  0.4693800000000 1.0
C      1  0.5231780000000  0.4955330000000  0.5230000000000 1.0
C      1  0.5438620000000  0.5601210000000  0.4867860000000 1.0
C      1  0.4488230000000  0.3844630000000  0.5637620000000 1.0
C      1  0.4086620000000  0.5031050000000  0.4310070000000 1.0
C      1  0.5353730000000  0.5411600000000  0.5857500000000 1.0
C      1  0.5482980000000  0.5825220000000  0.4450830000000 1.0
C      1  0.5669450000000  0.5112730000000  0.5440800000000 1.0
C      1  0.5145020000000  0.4384300000000  0.5782440000000 1.0
C      1  0.4862110000000  0.4855010000000  0.4847620000000 1.0
C      1  0.4120350000000  0.5207160000000  0.4562170000000 1.0
C      1  0.4882080000000  0.4303240000000  0.4056730000000 1.0
C      1  0.5335870000000  0.5743890000000  0.3934770000000 1.0
C      1  0.4971140000000  0.5518090000000  0.5547050000000 1.0
C      1  0.5172780000000  0.5264420000000  0.4069730000000 1.0
C      1  0.4745580000000  0.5028910000000  0.4392660000000 1.0
C      1  0.4038250000000  0.5205240000000  0.5357040000000 1.0
C      1  0.4326520000000  0.5602080000000  0.5639730000000 1.0
C      1  0.4301660000000  0.4603040000000  0.4948010000000 1.0
C      1  0.5716740000000  0.4980250000000  0.5131250000000 1.0
C      1  0.5082890000000  0.4290130000000  0.4747640000000 1.0
C      1  0.4775140000000  0.4884590000000  0.4085860000000 1.0
C      1  0.4485670000000  0.5284040000000  0.5458070000000 1.0
C      1  0.4407090000000  0.5239630000000  0.5786960000000 1.0
C      1  0.4789410000000  0.4461910000000  0.5572930000000 1.0
C      1  0.4728640000000  0.5972770000000  0.5242970000000 1.0
C      1  0.5392470000000  0.4123440000000  0.5207620000000 1.0
C      1  0.5028180000000  0.5447010000000  0.5854830000000 1.0
C      1  0.5276100000000  0.5020430000000  0.3890630000000 1.0
C      1  0.5009680000000  0.3853720000000  0.4896800000000 1.0
C      1  0.4944590000000  0.5891060000000  0.4919590000000 1.0
C      1  0.5958440000000  0.4589450000000  0.4550610000000 1.0
C      1  0.5009330000000  0.5258090000000  0.4342880000000 1.0
C      1  0.4502170000000  0.6047610000000  0.5078290000000 1.0
C      1  0.4658300000000  0.5421320000000  0.5082320000000 1.0
C      1  0.5049780000000  0.4773990000000  0.5452930000000 1.0
C      1  0.5308770000000  0.5721070000000  0.5776450000000 1.0
C      1  0.5637340000000  0.5814500000000  0.4967720000000 1.0
C      1  0.5904770000000  0.5396830000000  0.5591030000000 1.0
C      1  0.4432050000000  0.5127910000000  0.4479570000000 1.0
C      1  0.4818100000000  0.5431280000000  0.4786450000000 1.0
C      1  0.3994400000000  0.4893500000000  0.4960540000000 1.0
C      1  0.4017810000000  0.4281140000000  0.4585590000000 1.0
C      1  0.4876660000000  0.4568570000000  0.4038970000000 1.0
C      1  0.5966210000000  0.5103750000000  0.5707730000000 1.0
C      1  0.5740380000000  0.5644630000000  0.5425130000000 1.0
C      1  0.4554360000000  0.6089140000000  0.4792390000000 1.0
C      1  0.5646800000000  0.5018320000000  0.4309130000000 1.0
C      1  0.3913100000000  0.4438080000000  0.5051610000000 1.0
C      1  0.3970920000000  0.4562300000000  0.4607300000000 1.0
C      1  0.4767950000000  0.5078930000000  0.3855860000000 1.0
C      1  0.5482340000000  0.5494030000000  0.4481320000000 1.0
C      1  0.5981100000000  0.4796370000000  0.5152990000000 1.0
C      1  0.4230290000000  0.5668380000000  0.5154270000000 1.0
C      1  0.5132490000000  0.4709480000000  0.4752970000000 1.0
C      1  0.4142050000000  0.4643380000000  0.5556980000000 1.0
C      1  0.4933790000000  0.4131510000000  0.5698280000000 1.0
C      1  0.4213470000000  0.5491340000000  0.5882690000000 1.0
C      1  0.5878850000000  0.5485160000000  0.4452660000000 1.0
C      1  0.4890210000000  0.4042650000000  0.5382210000000 1.0
C      1  0.5494320000000  0.5332930000000  0.6111170000000 1.0
C      1  0.5541020000000  0.4232420000000  0.5606660000000 1.0
C      1  0.4603160000000  0.5195910000000  0.6036040000000 1.0
C      1  0.5408570000000  0.4539100000000  0.3786890000000 1.0
C      1  0.4821780000000  0.5233550000000  0.5435460000000 1.0
C      1  0.5262180000000  0.5465460000000  0.5281240000000 1.0
C      1  0.4133840000000  0.5175760000000  0.4074050000000 1.0
C      1  0.4271880000000  0.4870960000000  0.5155930000000 1.0
C      1  0.5037800000000  0.5658350000000  0.5150510000000 1.0
C      1  0.4679730000000  0.4751760000000  0.4578440000000 1.0
C      1  0.4582550000000  0.4026330000000  0.5018250000000 1.0
C      1  0.4279930000000  0.5407860000000  0.4032250000000 1.0
C      1  0.4936710000000  0.4132980000000  0.4278850000000 1.0
C      1  0.5561190000000  0.4181820000000  0.4614720000000 1.0
C      1  0.4426820000000  0.5173320000000  0.5141810000000 1.0
C      1  0.5396150000000  0.5327800000000  0.5042170000000 1.0
C      1  0.4769320000000  0.5684190000000  0.5846880000000 1.0
C      1  0.4423750000000  0.4803330000000  0.5453110000000 1.0
C      1  0.4880510000000  0.4766860000000  0.6170970000000 1.0
C      1  0.6128430000000  0.5530950000000  0.5005770000000 1.0
C      1  0.5575430000000  0.5884190000000  0.5248430000000 1.0
C      1  0.5537910000000  0.4291350000000  0.4343070000000 1.0
C      1  0.4856460000000  0.6144820000000  0.4731060000000 1.0
C      1  0.5598130000000  0.4396590000000  0.4786390000000 1.0
C      1  0.5744410000000  0.5741800000000  0.4651740000000 1.0
C      1  0.4677410000000  0.4986630000000  0.5100920000000 1.0
C      1  0.4391920000000  0.5571610000000  0.4957630000000 1.0
C      1  0.5636010000000  0.4036120000000  0.5062260000000 1.0
C      1  0.5914450000000  0.5474220000000  0.4774680000000 1.0
C      1  0.5182900000000  0.5111870000000  0.4928900000000 1.0
C      1  0.5965780000000  0.4838330000000  0.5492260000000 1.0
C      1  0.4650090000000  0.5712430000000  0.4300290000000 1.0
C      1  0.5223220000000  0.3985640000000  0.4691070000000 1.0
C      1  0.5567220000000  0.4541870000000  0.5948100000000 1.0
C      1  0.5636020000000  0.4799660000000  0.5528160000000 1.0
C      1  0.5135380000000  0.4775010000000  0.4430810000000 1.0
END
