TITL C-2848502-4955-470 -0.00243477757110776 125000 -956.179861221133 0 0 179 (C1) n - 1
REM
REM in /home/bkarasulu/work/CARBON/AIRSS/Generating-Clusters/AIREBO/with-SteepDescent/Only-C1/SD-CG-opt/Try1-1.4A-POS3A/HFTN-CG
REM
REM
REM
REM
REM
REM ./C.cell (11c1c37f851c82e70ff6c80c92926a4b)
REM
REM compiler GCC version 9.2.1 20190827 (Red Hat 9.2.1-1)
REM options -cpp -mtune=generic -march=x86-64 -g -O0 -fpre-include=/usr/include/finclude/math-vector-fortran.h
REM seed 1395139457 1530738927 -1332636587 606508204 -1180112933 2015246999 552948188 -458859194 1495128964 -1474735429 417830272 1442593526 1751847861 -675894713 -2077637556 1580182687 74418418 799515041 -963912036 886277385 323263906 858911288 2142229836 -1392699786 -2004005752 2102328128 839565144 -713973797 1528932721 1674504760 -893859212 962008640 -1595264314
REM
CELL 1.54180   50.00000   50.00000   50.00000   90.00000   90.00000   90.00000
LATT -1
SFAC C  
C      1  0.5609690000000  0.5455220000000  0.4354700000000 1.0
C      1  0.4913320000000  0.4311650000000  0.4819080000000 1.0
C      1  0.5665580000000  0.4301420000000  0.5407310000000 1.0
C      1  0.4967410000000  0.4884710000000  0.3939430000000 1.0
C      1  0.4476740000000  0.4439500000000  0.5422320000000 1.0
C      1  0.5150840000000  0.4794870000000  0.5959000000000 1.0
C      1  0.4670390000000  0.4301730000000  0.5025300000000 1.0
C      1  0.4633240000000  0.5420310000000  0.5960680000000 1.0
C      1  0.4771170000000  0.5101840000000  0.4724110000000 1.0
C      1  0.5024060000000  0.5417570000000  0.4009550000000 1.0
C      1  0.3811660000000  0.5179220000000  0.5234070000000 1.0
C      1  0.4703690000000  0.5170010000000  0.5292200000000 1.0
C      1  0.4097470000000  0.5275270000000  0.5331790000000 1.0
C      1  0.5128060000000  0.5122720000000  0.4546700000000 1.0
C      1  0.5502990000000  0.5073110000000  0.4337040000000 1.0
C      1  0.4964610000000  0.4370350000000  0.5622340000000 1.0
C      1  0.4995060000000  0.4110010000000  0.5404580000000 1.0
C      1  0.4930290000000  0.5656000000000  0.4157050000000 1.0
C      1  0.5618060000000  0.4911170000000  0.5514980000000 1.0
C      1  0.5748150000000  0.4614840000000  0.5820600000000 1.0
C      1  0.5779840000000  0.5073780000000  0.4707000000000 1.0
C      1  0.4150930000000  0.4635330000000  0.5740840000000 1.0
C      1  0.5287870000000  0.4394890000000  0.4706420000000 1.0
C      1  0.6125180000000  0.4898440000000  0.5344190000000 1.0
C      1  0.5141040000000  0.5962050000000  0.5359980000000 1.0
C      1  0.5249370000000  0.4259660000000  0.4395400000000 1.0
C      1  0.4650540000000  0.6084030000000  0.4935050000000 1.0
C      1  0.5097220000000  0.4680090000000  0.5669030000000 1.0
C      1  0.4984380000000  0.5841270000000  0.5941200000000 1.0
C      1  0.5347190000000  0.4999460000000  0.5979760000000 1.0
C      1  0.4172840000000  0.5568760000000  0.5009450000000 1.0
C      1  0.4805670000000  0.5183750000000  0.3946890000000 1.0
C      1  0.4340490000000  0.5525700000000  0.5836740000000 1.0
C      1  0.5667460000000  0.4708420000000  0.4920210000000 1.0
C      1  0.5559760000000  0.4949950000000  0.5105200000000 1.0
C      1  0.5804900000000  0.4450660000000  0.5644570000000 1.0
C      1  0.4194350000000  0.4872040000000  0.5892600000000 1.0
C      1  0.5969320000000  0.4585400000000  0.4968200000000 1.0
C      1  0.4598900000000  0.3925670000000  0.4930120000000 1.0
C      1  0.5543010000000  0.4413010000000  0.4172110000000 1.0
C      1  0.5471110000000  0.5208020000000  0.5448430000000 1.0
C      1  0.4272970000000  0.5539010000000  0.5316570000000 1.0
C      1  0.5516660000000  0.5892510000000  0.4872790000000 1.0
C      1  0.4352790000000  0.5355110000000  0.4841360000000 1.0
C      1  0.4694070000000  0.4580300000000  0.4504490000000 1.0
C      1  0.5300090000000  0.4327800000000  0.5039540000000 1.0
C      1  0.6096800000000  0.5352010000000  0.5072540000000 1.0
C      1  0.4911620000000  0.4634410000000  0.5178540000000 1.0
C      1  0.5589480000000  0.4698710000000  0.4589400000000 1.0
C      1  0.5791810000000  0.4460360000000  0.4633020000000 1.0
C      1  0.4631100000000  0.5619830000000  0.5685360000000 1.0
C      1  0.5332890000000  0.5308120000000  0.4913730000000 1.0
C      1  0.4367790000000  0.4167500000000  0.4999270000000 1.0
C      1  0.4324060000000  0.5467520000000  0.4315330000000 1.0
C      1  0.4025860000000  0.5169890000000  0.4709660000000 1.0
C      1  0.4474460000000  0.4402770000000  0.4694100000000 1.0
C      1  0.4763200000000  0.5016860000000  0.6139410000000 1.0
C      1  0.4813060000000  0.5241890000000  0.5606100000000 1.0
C      1  0.5421020000000  0.5291020000000  0.4585620000000 1.0
C      1  0.6043760000000  0.5370100000000  0.4741890000000 1.0
C      1  0.4398770000000  0.4810680000000  0.5462290000000 1.0
C      1  0.5372020000000  0.5233030000000  0.4067010000000 1.0
C      1  0.4124490000000  0.5448120000000  0.5612380000000 1.0
C      1  0.5602450000000  0.5593180000000  0.5705490000000 1.0
C      1  0.4168420000000  0.4554370000000  0.4275620000000 1.0
C      1  0.5835360000000  0.5025350000000  0.4391950000000 1.0
C      1  0.4789370000000  0.5398340000000  0.4615040000000 1.0
C      1  0.5046060000000  0.5975560000000  0.4683560000000 1.0
C      1  0.4431270000000  0.4488940000000  0.4305920000000 1.0
C      1  0.4678960000000  0.4898650000000  0.4473900000000 1.0
C      1  0.5356510000000  0.4911660000000  0.4072470000000 1.0
C      1  0.4941500000000  0.4811430000000  0.6145000000000 1.0
C      1  0.4392590000000  0.5084290000000  0.4233490000000 1.0
C      1  0.4909920000000  0.4936480000000  0.5597420000000 1.0
C      1  0.4767050000000  0.5687560000000  0.5316460000000 1.0
C      1  0.3769770000000  0.4634290000000  0.4542230000000 1.0
C      1  0.4816340000000  0.5865320000000  0.5723220000000 1.0
C      1  0.5718500000000  0.5380390000000  0.4840580000000 1.0
C      1  0.4947180000000  0.4602390000000  0.4730800000000 1.0
C      1  0.4476800000000  0.5323580000000  0.4568750000000 1.0
C      1  0.4732920000000  0.4083140000000  0.4437930000000 1.0
C      1  0.4838190000000  0.5697010000000  0.5017440000000 1.0
C      1  0.4888600000000  0.4483900000000  0.4242730000000 1.0
C      1  0.4096270000000  0.5263420000000  0.4463890000000 1.0
C      1  0.5750490000000  0.5672030000000  0.5273510000000 1.0
C      1  0.5366930000000  0.5963650000000  0.5155960000000 1.0
C      1  0.5456400000000  0.4981370000000  0.4722970000000 1.0
C      1  0.5129600000000  0.4080090000000  0.4912110000000 1.0
C      1  0.4900720000000  0.5306450000000  0.6102810000000 1.0
C      1  0.5294650000000  0.5433850000000  0.3852200000000 1.0
C      1  0.4055390000000  0.5130990000000  0.5719370000000 1.0
C      1  0.3951040000000  0.5315210000000  0.4963220000000 1.0
C      1  0.5418010000000  0.4080770000000  0.4752980000000 1.0
C      1  0.5063120000000  0.5650730000000  0.5430010000000 1.0
C      1  0.4573760000000  0.5315280000000  0.4141690000000 1.0
C      1  0.4595820000000  0.5648070000000  0.4219600000000 1.0
C      1  0.4504790000000  0.4965840000000  0.5995220000000 1.0
C      1  0.5104590000000  0.4727900000000  0.4208210000000 1.0
C      1  0.5807270000000  0.5321580000000  0.4263600000000 1.0
C      1  0.4555870000000  0.4075740000000  0.4660910000000 1.0
C      1  0.5470910000000  0.3785430000000  0.4686940000000 1.0
C      1  0.4568680000000  0.5514290000000  0.4991540000000 1.0
C      1  0.5153780000000  0.5122330000000  0.5447690000000 1.0
C      1  0.5199380000000  0.5810160000000  0.4296570000000 1.0
C      1  0.4197920000000  0.4655090000000  0.5236120000000 1.0
C      1  0.4255120000000  0.5043250000000  0.5293310000000 1.0
C      1  0.5046150000000  0.5368720000000  0.5238770000000 1.0
C      1  0.5297080000000  0.5637620000000  0.5649670000000 1.0
C      1  0.6069980000000  0.4811350000000  0.4453310000000 1.0
C      1  0.4468100000000  0.5831340000000  0.5062050000000 1.0
C      1  0.5698940000000  0.4235170000000  0.4849650000000 1.0
C      1  0.4665450000000  0.6008240000000  0.5266810000000 1.0
C      1  0.5521110000000  0.5591230000000  0.4711300000000 1.0
C      1  0.5257760000000  0.5029180000000  0.5165210000000 1.0
C      1  0.5091870000000  0.5459170000000  0.4758000000000 1.0
C      1  0.4801580000000  0.4987300000000  0.4224400000000 1.0
C      1  0.4866570000000  0.4035150000000  0.5103100000000 1.0
C      1  0.4035500000000  0.4676090000000  0.4490020000000 1.0
C      1  0.5036660000000  0.4977570000000  0.4840400000000 1.0
C      1  0.5083780000000  0.5157430000000  0.4230820000000 1.0
C      1  0.4887850000000  0.5666970000000  0.4487620000000 1.0
C      1  0.4988910000000  0.4150340000000  0.4546440000000 1.0
C      1  0.4385040000000  0.5194460000000  0.5773870000000 1.0
C      1  0.4764870000000  0.6019640000000  0.4680630000000 1.0
C      1  0.4584020000000  0.4607410000000  0.5146600000000 1.0
C      1  0.4933090000000  0.4955430000000  0.5161550000000 1.0
C      1  0.5843720000000  0.4306560000000  0.5117760000000 1.0
C      1  0.5194430000000  0.5503120000000  0.4442800000000 1.0
C      1  0.5160130000000  0.4357560000000  0.4081690000000 1.0
C      1  0.4335710000000  0.5746910000000  0.4767600000000 1.0
C      1  0.4325330000000  0.4595170000000  0.4926070000000 1.0
C      1  0.5728980000000  0.4717350000000  0.5258420000000 1.0
C      1  0.4576280000000  0.4933110000000  0.5665310000000 1.0
C      1  0.5499450000000  0.4486850000000  0.5203580000000 1.0
C      1  0.5404370000000  0.4624320000000  0.4341420000000 1.0
C      1  0.6054970000000  0.5071050000000  0.4907500000000 1.0
C      1  0.6061170000000  0.4606710000000  0.4640730000000 1.0
C      1  0.4981100000000  0.5377780000000  0.5780190000000 1.0
C      1  0.5216820000000  0.4643860000000  0.3898460000000 1.0
C      1  0.4035970000000  0.4504170000000  0.4045670000000 1.0
C      1  0.5733920000000  0.4155280000000  0.4520710000000 1.0
C      1  0.4673030000000  0.4388470000000  0.5681390000000 1.0
C      1  0.5823430000000  0.5125940000000  0.5782100000000 1.0
C      1  0.5787860000000  0.5848320000000  0.5054910000000 1.0
C      1  0.4518010000000  0.4944710000000  0.5117610000000 1.0
C      1  0.4192900000000  0.4215490000000  0.4730210000000 1.0
C      1  0.5257490000000  0.4718290000000  0.4808530000000 1.0
C      1  0.4212610000000  0.4809030000000  0.4687740000000 1.0
C      1  0.4272830000000  0.5052060000000  0.4911650000000 1.0
C      1  0.5661530000000  0.5336360000000  0.5660060000000 1.0
C      1  0.5245590000000  0.4706430000000  0.5148320000000 1.0
C      1  0.4350470000000  0.4417810000000  0.5741580000000 1.0
C      1  0.5269280000000  0.3966170000000  0.5462840000000 1.0
C      1  0.4650240000000  0.4278990000000  0.4246590000000 1.0
C      1  0.4573830000000  0.5790750000000  0.4528760000000 1.0
C      1  0.5907440000000  0.5089060000000  0.5464700000000 1.0
C      1  0.5344410000000  0.5842760000000  0.4588810000000 1.0
C      1  0.5450880000000  0.5710560000000  0.5355220000000 1.0
C      1  0.5172270000000  0.4812490000000  0.4503770000000 1.0
C      1  0.6116830000000  0.4833640000000  0.5073290000000 1.0
C      1  0.5879820000000  0.5371450000000  0.5280140000000 1.0
C      1  0.5050920000000  0.4366220000000  0.5224900000000 1.0
C      1  0.4881710000000  0.6023370000000  0.5496830000000 1.0
C      1  0.4013780000000  0.4709220000000  0.5488810000000 1.0
C      1  0.5285910000000  0.4325960000000  0.5724560000000 1.0
C      1  0.4815640000000  0.5299190000000  0.4998290000000 1.0
C      1  0.5553050000000  0.4161030000000  0.4309950000000 1.0
C      1  0.5173040000000  0.5584020000000  0.5943540000000 1.0
C      1  0.5235500000000  0.5264560000000  0.6056330000000 1.0
C      1  0.3894900000000  0.4973200000000  0.5491550000000 1.0
C      1  0.4398470000000  0.5011130000000  0.4534470000000 1.0
C      1  0.5278920000000  0.5577020000000  0.5104360000000 1.0
C      1  0.4567800000000  0.5466960000000  0.5387870000000 1.0
C      1  0.4251180000000  0.4323150000000  0.5222630000000 1.0
C      1  0.5441340000000  0.4155550000000  0.5566000000000 1.0
C      1  0.5616440000000  0.4902670000000  0.5854950000000 1.0
C      1  0.5333750000000  0.4727830000000  0.5476070000000 1.0
C      1  0.5101280000000  0.5748580000000  0.4889690000000 1.0
C      1  0.5588100000000  0.5273130000000  0.5135810000000 1.0
END
