TITL C-2848496-4490-530 -0.00155883014599729 125000 -740.574417414445 0 0 134 (C1) n - 1
REM
REM in /home/bkarasulu/work/CARBON/AIRSS/Generating-Clusters/AIREBO/with-SteepDescent/Only-C1/SD-CG-opt/Try1-1.4A-POS3A/HFTN-CG
REM
REM
REM
REM
REM
REM ./C.cell (11c1c37f851c82e70ff6c80c92926a4b)
REM
REM compiler GCC version 9.2.1 20190827 (Red Hat 9.2.1-1)
REM options -cpp -mtune=generic -march=x86-64 -g -O0 -fpre-include=/usr/include/finclude/math-vector-fortran.h
REM seed 1100851640 1968660409 1517667745 -559016503 -884756859 1758505475 -1689145686 -2119985652 -782692905 442198417 -2085464694 592327813 1037838107 671906951 691029639 -984681876 1000595133 -1939775414 -1528891915 832913816 -782474454 -446934439 -1926735217 -1421345339 1139182444 1746900859 -1479542413 1811710156 1386238238 -756606134 -1051426400 455063577 1724989255
REM
CELL 1.54180   50.00000   50.00000   50.00000   90.00000   90.00000   90.00000
LATT -1
SFAC C  
C      1  0.4575370000000  0.4569260000000  0.4308790000000 1.0
C      1  0.4720160000000  0.4888620000000  0.4522170000000 1.0
C      1  0.5619750000000  0.4699470000000  0.4705240000000 1.0
C      1  0.4984980000000  0.4344790000000  0.5664380000000 1.0
C      1  0.4601790000000  0.5872520000000  0.4992080000000 1.0
C      1  0.5490100000000  0.4462200000000  0.5188180000000 1.0
C      1  0.4485830000000  0.4837650000000  0.5654180000000 1.0
C      1  0.5832640000000  0.4947220000000  0.4933220000000 1.0
C      1  0.4831400000000  0.4290680000000  0.5399660000000 1.0
C      1  0.5309170000000  0.4507760000000  0.4941670000000 1.0
C      1  0.4527150000000  0.5358250000000  0.5117890000000 1.0
C      1  0.4797620000000  0.4930660000000  0.5588680000000 1.0
C      1  0.5298790000000  0.5846240000000  0.4597150000000 1.0
C      1  0.4773470000000  0.5512660000000  0.4979140000000 1.0
C      1  0.4915730000000  0.3978100000000  0.5374390000000 1.0
C      1  0.4830630000000  0.5300740000000  0.4168950000000 1.0
C      1  0.5893110000000  0.4771970000000  0.5217130000000 1.0
C      1  0.4696710000000  0.5092850000000  0.5237480000000 1.0
C      1  0.4630030000000  0.5496380000000  0.5778930000000 1.0
C      1  0.5241040000000  0.5007700000000  0.4919110000000 1.0
C      1  0.4778010000000  0.4765780000000  0.4146270000000 1.0
C      1  0.4147830000000  0.5596220000000  0.5344000000000 1.0
C      1  0.5126320000000  0.5247680000000  0.5822780000000 1.0
C      1  0.4079490000000  0.5415290000000  0.4847970000000 1.0
C      1  0.5259580000000  0.4353450000000  0.5635090000000 1.0
C      1  0.4529110000000  0.5668320000000  0.5254410000000 1.0
C      1  0.5396940000000  0.5916260000000  0.5145900000000 1.0
C      1  0.4721820000000  0.5716220000000  0.4533590000000 1.0
C      1  0.5524460000000  0.5807310000000  0.5419650000000 1.0
C      1  0.5197440000000  0.4046770000000  0.5221660000000 1.0
C      1  0.4332310000000  0.5089080000000  0.5706310000000 1.0
C      1  0.5103830000000  0.5483000000000  0.4257170000000 1.0
C      1  0.4755200000000  0.5102580000000  0.4760250000000 1.0
C      1  0.5708760000000  0.4150990000000  0.5290980000000 1.0
C      1  0.5035380000000  0.4047150000000  0.4740870000000 1.0
C      1  0.5124550000000  0.5685060000000  0.5871110000000 1.0
C      1  0.4892330000000  0.4815290000000  0.5217070000000 1.0
C      1  0.5586540000000  0.4687160000000  0.4175960000000 1.0
C      1  0.5297720000000  0.5197940000000  0.4559640000000 1.0
C      1  0.5135050000000  0.5895900000000  0.5052830000000 1.0
C      1  0.4264920000000  0.4651900000000  0.5502910000000 1.0
C      1  0.5982720000000  0.5088620000000  0.5273010000000 1.0
C      1  0.5425990000000  0.5417820000000  0.4344140000000 1.0
C      1  0.4421630000000  0.5006030000000  0.4759650000000 1.0
C      1  0.5745930000000  0.5329100000000  0.5319480000000 1.0
C      1  0.5007060000000  0.5709290000000  0.5416460000000 1.0
C      1  0.4949030000000  0.4979210000000  0.4949320000000 1.0
C      1  0.5079010000000  0.5955460000000  0.4782050000000 1.0
C      1  0.4891030000000  0.5215360000000  0.5459040000000 1.0
C      1  0.5201290000000  0.5236900000000  0.5346180000000 1.0
C      1  0.4508570000000  0.4324990000000  0.4842130000000 1.0
C      1  0.4480440000000  0.5101570000000  0.4438650000000 1.0
C      1  0.5839800000000  0.5135390000000  0.4455180000000 1.0
C      1  0.4941410000000  0.5483490000000  0.5662040000000 1.0
C      1  0.4156720000000  0.5142080000000  0.4904530000000 1.0
C      1  0.5280890000000  0.4150600000000  0.4567770000000 1.0
C      1  0.4440780000000  0.5777660000000  0.4707600000000 1.0
C      1  0.5096300000000  0.4792490000000  0.5675770000000 1.0
C      1  0.5510370000000  0.4455730000000  0.4318220000000 1.0
C      1  0.5739690000000  0.5608600000000  0.4671410000000 1.0
C      1  0.5578910000000  0.4998920000000  0.5708760000000 1.0
C      1  0.5445920000000  0.4435900000000  0.4651470000000 1.0
C      1  0.5375980000000  0.5220380000000  0.5631740000000 1.0
C      1  0.4532210000000  0.4358530000000  0.5471740000000 1.0
C      1  0.4758440000000  0.4601780000000  0.4689550000000 1.0
C      1  0.4385140000000  0.4482720000000  0.4609630000000 1.0
C      1  0.4243330000000  0.5524320000000  0.4620040000000 1.0
C      1  0.5521310000000  0.5663200000000  0.4499810000000 1.0
C      1  0.4757760000000  0.5033280000000  0.4029020000000 1.0
C      1  0.5557220000000  0.5642140000000  0.5059180000000 1.0
C      1  0.4942000000000  0.4171400000000  0.5027980000000 1.0
C      1  0.5458580000000  0.4916730000000  0.4519310000000 1.0
C      1  0.5530370000000  0.5483760000000  0.5523980000000 1.0
C      1  0.5190270000000  0.4764160000000  0.4608750000000 1.0
C      1  0.4408700000000  0.5530170000000  0.5541420000000 1.0
C      1  0.4848610000000  0.4107340000000  0.4495750000000 1.0
C      1  0.5254940000000  0.5383870000000  0.5083630000000 1.0
C      1  0.4712090000000  0.5269110000000  0.6031790000000 1.0
C      1  0.4776510000000  0.5867700000000  0.5284700000000 1.0
C      1  0.5085180000000  0.4620660000000  0.4119560000000 1.0
C      1  0.5766110000000  0.5272320000000  0.4710380000000 1.0
C      1  0.4259180000000  0.4666290000000  0.4352580000000 1.0
C      1  0.4192000000000  0.5075080000000  0.5214360000000 1.0
C      1  0.5848600000000  0.4607810000000  0.4920280000000 1.0
C      1  0.4470800000000  0.4933370000000  0.5088840000000 1.0
C      1  0.5439150000000  0.4924520000000  0.5280290000000 1.0
C      1  0.5563850000000  0.4739940000000  0.5629030000000 1.0
C      1  0.4547630000000  0.4637720000000  0.4953990000000 1.0
C      1  0.5025410000000  0.5606550000000  0.5113050000000 1.0
C      1  0.4223110000000  0.4730390000000  0.4742680000000 1.0
C      1  0.4937080000000  0.5104680000000  0.5981700000000 1.0
C      1  0.4373410000000  0.4523340000000  0.5222880000000 1.0
C      1  0.4131590000000  0.4652510000000  0.5021720000000 1.0
C      1  0.4629410000000  0.4142580000000  0.5017870000000 1.0
C      1  0.4180430000000  0.5214340000000  0.4512320000000 1.0
C      1  0.5338630000000  0.4769720000000  0.4026930000000 1.0
C      1  0.4804350000000  0.5940050000000  0.4732310000000 1.0
C      1  0.5557010000000  0.4144040000000  0.4786210000000 1.0
C      1  0.4504610000000  0.4109430000000  0.5258210000000 1.0
C      1  0.5625830000000  0.4686230000000  0.5336930000000 1.0
C      1  0.5764860000000  0.4902920000000  0.4230010000000 1.0
C      1  0.4571150000000  0.4538240000000  0.5720760000000 1.0
C      1  0.5298450000000  0.3983860000000  0.4927170000000 1.0
C      1  0.5460430000000  0.5237330000000  0.4855610000000 1.0
C      1  0.5122610000000  0.5470710000000  0.4597010000000 1.0
C      1  0.3997600000000  0.4719210000000  0.5475820000000 1.0
C      1  0.4129350000000  0.4918240000000  0.4486560000000 1.0
C      1  0.5388110000000  0.5032200000000  0.4207000000000 1.0
C      1  0.5172560000000  0.4398820000000  0.4362110000000 1.0
C      1  0.4834320000000  0.4530820000000  0.5824810000000 1.0
C      1  0.5860410000000  0.5544400000000  0.4982930000000 1.0
C      1  0.4211090000000  0.5483000000000  0.5102790000000 1.0
C      1  0.4625980000000  0.5364090000000  0.4374910000000 1.0
C      1  0.4257430000000  0.5234290000000  0.5468760000000 1.0
C      1  0.4430150000000  0.5253070000000  0.5903120000000 1.0
C      1  0.5654370000000  0.5224120000000  0.4197520000000 1.0
C      1  0.4993960000000  0.4779080000000  0.4395910000000 1.0
C      1  0.4837740000000  0.4401870000000  0.4437740000000 1.0
C      1  0.4811700000000  0.5420410000000  0.4675090000000 1.0
C      1  0.5315390000000  0.5611490000000  0.4838310000000 1.0
C      1  0.5334420000000  0.4611050000000  0.5696140000000 1.0
C      1  0.4432960000000  0.5643940000000  0.4380710000000 1.0
C      1  0.4923950000000  0.4813360000000  0.5948170000000 1.0
C      1  0.5388210000000  0.4222810000000  0.5384740000000 1.0
C      1  0.5806510000000  0.5663110000000  0.5296970000000 1.0
C      1  0.5720120000000  0.4304240000000  0.5004910000000 1.0
C      1  0.5973800000000  0.5252150000000  0.4976830000000 1.0
C      1  0.5273010000000  0.5697030000000  0.5596160000000 1.0
C      1  0.5136280000000  0.4909070000000  0.5381440000000 1.0
C      1  0.5028250000000  0.4656520000000  0.4877110000000 1.0
C      1  0.5176460000000  0.5215190000000  0.4097680000000 1.0
C      1  0.4932010000000  0.4486200000000  0.5156200000000 1.0
C      1  0.3990660000000  0.4836180000000  0.5213770000000 1.0
C      1  0.5612300000000  0.5118550000000  0.5127420000000 1.0
END
