TITL C-2848496-4490-350 0.00300167193121272 125000 -891.575850040088 0 0 167 (C1) n - 1
REM
REM in /home/bkarasulu/work/CARBON/AIRSS/Generating-Clusters/AIREBO/with-SteepDescent/Only-C1/SD-CG-opt/Try1-1.4A-POS3A/HFTN-CG
REM
REM
REM
REM
REM
REM ./C.cell (11c1c37f851c82e70ff6c80c92926a4b)
REM
REM compiler GCC version 9.2.1 20190827 (Red Hat 9.2.1-1)
REM options -cpp -mtune=generic -march=x86-64 -g -O0 -fpre-include=/usr/include/finclude/math-vector-fortran.h
REM seed -176780060 1194217791 1328993920 463035685 9166306 -1968149202 1644264066 670333392 1837704721 -1047515211 191901380 -961412773 -331902085 -2090714130 -1067269634 1037013600 -726727851 -913799784 -958763934 419006208 1968253101 -820678407 -1096294463 -90224916 -1370376456 451326162 2119197576 -946333439 2142058327 -1721352663 -45050515 -809579928 -329785003
REM
CELL 1.54180   50.00000   50.00000   50.00000   90.00000   90.00000   90.00000
LATT -1
SFAC C  
C      1  0.4388870000000  0.5133600000000  0.5942950000000 1.0
C      1  0.4918350000000  0.5697900000000  0.4399350000000 1.0
C      1  0.4566360000000  0.4883610000000  0.4952740000000 1.0
C      1  0.4762870000000  0.4929350000000  0.3877780000000 1.0
C      1  0.5701990000000  0.4293810000000  0.5386810000000 1.0
C      1  0.5438220000000  0.3983560000000  0.5017830000000 1.0
C      1  0.5441290000000  0.4623530000000  0.4366510000000 1.0
C      1  0.5311060000000  0.5783900000000  0.4832240000000 1.0
C      1  0.4123540000000  0.4664350000000  0.4473760000000 1.0
C      1  0.4765260000000  0.6212400000000  0.5108070000000 1.0
C      1  0.4482540000000  0.5274460000000  0.4595380000000 1.0
C      1  0.5560560000000  0.4802090000000  0.5508600000000 1.0
C      1  0.5158980000000  0.6383840000000  0.4845160000000 1.0
C      1  0.5700610000000  0.4773510000000  0.4762700000000 1.0
C      1  0.4841830000000  0.4992000000000  0.4785410000000 1.0
C      1  0.4697570000000  0.3845840000000  0.4820200000000 1.0
C      1  0.4159330000000  0.4475860000000  0.4852870000000 1.0
C      1  0.5029040000000  0.4671700000000  0.4989560000000 1.0
C      1  0.5156960000000  0.5257330000000  0.4616240000000 1.0
C      1  0.4761380000000  0.5328770000000  0.4438980000000 1.0
C      1  0.4452630000000  0.5112490000000  0.5285880000000 1.0
C      1  0.5604030000000  0.5405530000000  0.5080230000000 1.0
C      1  0.5037850000000  0.4588480000000  0.5480280000000 1.0
C      1  0.5890860000000  0.4878800000000  0.5718820000000 1.0
C      1  0.5711070000000  0.5853570000000  0.5226220000000 1.0
C      1  0.5474030000000  0.4323340000000  0.5537570000000 1.0
C      1  0.4724180000000  0.5817810000000  0.5139600000000 1.0
C      1  0.4993190000000  0.4898810000000  0.5528030000000 1.0
C      1  0.4923740000000  0.4274540000000  0.5842880000000 1.0
C      1  0.4621820000000  0.5365840000000  0.4131110000000 1.0
C      1  0.4757010000000  0.4335390000000  0.5039140000000 1.0
C      1  0.5322560000000  0.5115660000000  0.3940980000000 1.0
C      1  0.4388600000000  0.5657830000000  0.4319690000000 1.0
C      1  0.5728990000000  0.4533690000000  0.5194110000000 1.0
C      1  0.4680170000000  0.3922070000000  0.5126810000000 1.0
C      1  0.4719540000000  0.4490980000000  0.4093240000000 1.0
C      1  0.5204460000000  0.5718300000000  0.5439130000000 1.0
C      1  0.5162790000000  0.4446780000000  0.5753720000000 1.0
C      1  0.5880350000000  0.4756290000000  0.5402570000000 1.0
C      1  0.5202270000000  0.4428280000000  0.4514660000000 1.0
C      1  0.5496040000000  0.5116390000000  0.5510090000000 1.0
C      1  0.4039020000000  0.4697510000000  0.5283400000000 1.0
C      1  0.5519430000000  0.4796780000000  0.5182320000000 1.0
C      1  0.4423360000000  0.4395420000000  0.5012010000000 1.0
C      1  0.5431080000000  0.5527710000000  0.5561860000000 1.0
C      1  0.5078860000000  0.5227510000000  0.6086900000000 1.0
C      1  0.5573460000000  0.4120320000000  0.4416500000000 1.0
C      1  0.5621940000000  0.5024540000000  0.4967140000000 1.0
C      1  0.4927900000000  0.5502130000000  0.4677300000000 1.0
C      1  0.4436670000000  0.5403340000000  0.5556160000000 1.0
C      1  0.4877200000000  0.4056260000000  0.4280050000000 1.0
C      1  0.3987890000000  0.5354000000000  0.4988110000000 1.0
C      1  0.6019000000000  0.4546570000000  0.4825410000000 1.0
C      1  0.4705860000000  0.5750220000000  0.4746850000000 1.0
C      1  0.5266090000000  0.3938890000000  0.4752090000000 1.0
C      1  0.5597860000000  0.4381520000000  0.4547030000000 1.0
C      1  0.4322200000000  0.5815130000000  0.4554290000000 1.0
C      1  0.4794780000000  0.4123290000000  0.5597260000000 1.0
C      1  0.4411820000000  0.4223940000000  0.4651640000000 1.0
C      1  0.3997210000000  0.5115640000000  0.5057600000000 1.0
C      1  0.5913430000000  0.5131730000000  0.4828580000000 1.0
C      1  0.5586850000000  0.5236070000000  0.5962200000000 1.0
C      1  0.4725040000000  0.4011140000000  0.4080230000000 1.0
C      1  0.4627230000000  0.6026650000000  0.4888780000000 1.0
C      1  0.4305180000000  0.4088670000000  0.5423870000000 1.0
C      1  0.5100000000000  0.4164700000000  0.4925620000000 1.0
C      1  0.4910880000000  0.5070990000000  0.5087580000000 1.0
C      1  0.4884500000000  0.3967430000000  0.5323290000000 1.0
C      1  0.5168180000000  0.4052050000000  0.5220880000000 1.0
C      1  0.5222250000000  0.5755760000000  0.5141590000000 1.0
C      1  0.5356410000000  0.5851470000000  0.4496220000000 1.0
C      1  0.4833830000000  0.5097260000000  0.6014870000000 1.0
C      1  0.5263330000000  0.5003250000000  0.5688140000000 1.0
C      1  0.4798720000000  0.5261670000000  0.3896870000000 1.0
C      1  0.5175470000000  0.5761400000000  0.4303540000000 1.0
C      1  0.4586250000000  0.5423640000000  0.5251470000000 1.0
C      1  0.4860010000000  0.4803120000000  0.5952460000000 1.0
C      1  0.4921300000000  0.5556500000000  0.5500820000000 1.0
C      1  0.5224950000000  0.4326580000000  0.5377570000000 1.0
C      1  0.4440140000000  0.4012560000000  0.4820400000000 1.0
C      1  0.4253540000000  0.4966180000000  0.4493160000000 1.0
C      1  0.5408440000000  0.5326620000000  0.5288600000000 1.0
C      1  0.4526110000000  0.5199920000000  0.4906120000000 1.0
C      1  0.5394380000000  0.4620910000000  0.6028790000000 1.0
C      1  0.4196620000000  0.5439900000000  0.5318160000000 1.0
C      1  0.4271870000000  0.4892590000000  0.5774120000000 1.0
C      1  0.4992890000000  0.6181660000000  0.4906210000000 1.0
C      1  0.4236880000000  0.5552260000000  0.4999570000000 1.0
C      1  0.4493330000000  0.4228270000000  0.5567380000000 1.0
C      1  0.5637600000000  0.5768630000000  0.4635170000000 1.0
C      1  0.5344980000000  0.4942040000000  0.4434020000000 1.0
C      1  0.4726250000000  0.4609620000000  0.3867410000000 1.0
C      1  0.4684060000000  0.6070080000000  0.5364000000000 1.0
C      1  0.4818150000000  0.4669730000000  0.4722050000000 1.0
C      1  0.4574630000000  0.4511860000000  0.4730510000000 1.0
C      1  0.4738140000000  0.4484590000000  0.5967990000000 1.0
C      1  0.5569390000000  0.5513530000000  0.5872170000000 1.0
C      1  0.4376440000000  0.4486050000000  0.4455750000000 1.0
C      1  0.5692640000000  0.4449820000000  0.4866510000000 1.0
C      1  0.5069100000000  0.4897710000000  0.4331840000000 1.0
C      1  0.4635480000000  0.4677720000000  0.4364760000000 1.0
C      1  0.5897390000000  0.5298710000000  0.4574510000000 1.0
C      1  0.4186130000000  0.4792860000000  0.4782260000000 1.0
C      1  0.4472140000000  0.5733470000000  0.5334240000000 1.0
C      1  0.4617000000000  0.4694910000000  0.5745480000000 1.0
C      1  0.4284090000000  0.5388900000000  0.4344120000000 1.0
C      1  0.5768660000000  0.5320020000000  0.5510570000000 1.0
C      1  0.4195930000000  0.5816580000000  0.5189030000000 1.0
C      1  0.5922100000000  0.4787600000000  0.4311000000000 1.0
C      1  0.5323740000000  0.5106120000000  0.5984010000000 1.0
C      1  0.5716670000000  0.5647390000000  0.5421420000000 1.0
C      1  0.4807520000000  0.4376380000000  0.5370970000000 1.0
C      1  0.5072680000000  0.4113890000000  0.4531410000000 1.0
C      1  0.4586670000000  0.4952450000000  0.4559910000000 1.0
C      1  0.5430630000000  0.5252530000000  0.4413820000000 1.0
C      1  0.4943980000000  0.5581490000000  0.5169850000000 1.0
C      1  0.4751130000000  0.5411430000000  0.4953480000000 1.0
C      1  0.5641970000000  0.5440370000000  0.4546540000000 1.0
C      1  0.4747170000000  0.4925520000000  0.5320770000000 1.0
C      1  0.4962760000000  0.4639970000000  0.4449210000000 1.0
C      1  0.6041320000000  0.4946150000000  0.5239410000000 1.0
C      1  0.4384210000000  0.4079500000000  0.5131630000000 1.0
C      1  0.5466980000000  0.5482020000000  0.4819050000000 1.0
C      1  0.5671530000000  0.4127680000000  0.4973570000000 1.0
C      1  0.6081190000000  0.4863200000000  0.4932620000000 1.0
C      1  0.4266710000000  0.6071220000000  0.4618310000000 1.0
C      1  0.5469950000000  0.4588630000000  0.5698870000000 1.0
C      1  0.5349580000000  0.4015430000000  0.4360290000000 1.0
C      1  0.5788680000000  0.5125420000000  0.5780490000000 1.0
C      1  0.5043060000000  0.4968530000000  0.4014610000000 1.0
C      1  0.4421850000000  0.5114950000000  0.4234020000000 1.0
C      1  0.5867380000000  0.5324120000000  0.5062710000000 1.0
C      1  0.5120900000000  0.5291610000000  0.5153100000000 1.0
C      1  0.4514340000000  0.5968330000000  0.5579340000000 1.0
C      1  0.4834880000000  0.4136870000000  0.4773570000000 1.0
C      1  0.5069030000000  0.5522750000000  0.6003560000000 1.0
C      1  0.4648790000000  0.5252840000000  0.5775600000000 1.0
C      1  0.4859740000000  0.5607980000000  0.5805930000000 1.0
C      1  0.4530170000000  0.4531190000000  0.5485420000000 1.0
C      1  0.5257680000000  0.4859480000000  0.4974520000000 1.0
C      1  0.5323460000000  0.5185050000000  0.4901640000000 1.0
C      1  0.5775350000000  0.5256830000000  0.4033200000000 1.0
C      1  0.4419080000000  0.5570770000000  0.4749930000000 1.0
C      1  0.4565210000000  0.5579510000000  0.5820600000000 1.0
C      1  0.4357450000000  0.4624030000000  0.5245730000000 1.0
C      1  0.4095620000000  0.5017290000000  0.6013850000000 1.0
C      1  0.4730900000000  0.4666770000000  0.5111180000000 1.0
C      1  0.5970530000000  0.5217530000000  0.5294230000000 1.0
C      1  0.4999800000000  0.5915830000000  0.4795120000000 1.0
C      1  0.3945720000000  0.5411290000000  0.5399870000000 1.0
C      1  0.4496740000000  0.4922880000000  0.5550920000000 1.0
C      1  0.5615560000000  0.5864440000000  0.4960700000000 1.0
C      1  0.4257790000000  0.4911280000000  0.5092930000000 1.0
C      1  0.5183040000000  0.4423210000000  0.5074180000000 1.0
C      1  0.5980260000000  0.4805490000000  0.4608430000000 1.0
C      1  0.5659100000000  0.4817080000000  0.4221910000000 1.0
C      1  0.5356550000000  0.4450380000000  0.4814560000000 1.0
C      1  0.5400320000000  0.4831150000000  0.4703650000000 1.0
C      1  0.4537890000000  0.4869390000000  0.4105510000000 1.0
C      1  0.4933940000000  0.5227910000000  0.5591750000000 1.0
C      1  0.5151380000000  0.4759090000000  0.5869880000000 1.0
C      1  0.5217870000000  0.5644780000000  0.4046020000000 1.0
C      1  0.5188270000000  0.5390810000000  0.5740360000000 1.0
C      1  0.4963120000000  0.5197710000000  0.4252530000000 1.0
C      1  0.5101400000000  0.5361080000000  0.3983670000000 1.0
C      1  0.4680730000000  0.5670230000000  0.4249770000000 1.0
C      1  0.5557240000000  0.5104380000000  0.4137560000000 1.0
END
