TITL C-2847956-8218-478 -0.00134662007352216 125000 -576.969420285468 0 0 112 (C1) n - 1
REM
REM in /home/bkarasulu/work/CARBON/AIRSS/Generating-Clusters/AIREBO/with-SteepDescent/Only-C1/SD-CG-opt/Try1-1.4A-POS3A/HFTN-CG
REM
REM
REM
REM
REM
REM ./C.cell (11c1c37f851c82e70ff6c80c92926a4b)
REM
REM compiler GCC version 9.2.1 20190827 (Red Hat 9.2.1-1)
REM options -cpp -mtune=generic -march=x86-64 -g -O0 -fpre-include=/usr/include/finclude/math-vector-fortran.h
REM seed 1178476912 -1133336247 -1981199330 -1570653736 212859644 -1628782698 1899362535 1022516468 -1499459067 877912182 -291200776 -1462353924 2022684961 1480681097 -1247665091 1324873968 298603271 787701424 -1799425830 -51112509 -1763514329 -465811698 686304307 -1209384516 -1799990743 652904455 583856682 1039806152 1953855511 572699370 1485692620 -1151757533 -270005301
REM
CELL 1.54180   50.00000   50.00000   50.00000   90.00000   90.00000   90.00000
LATT -1
SFAC C  
C      1  0.5303140000000  0.5364130000000  0.4150250000000 1.0
C      1  0.5298210000000  0.4640790000000  0.4522120000000 1.0
C      1  0.5255740000000  0.5321020000000  0.5251430000000 1.0
C      1  0.4693590000000  0.4801320000000  0.5862770000000 1.0
C      1  0.5099840000000  0.4290720000000  0.5110210000000 1.0
C      1  0.5468290000000  0.4933520000000  0.5218020000000 1.0
C      1  0.5136430000000  0.4137970000000  0.4561640000000 1.0
C      1  0.4967540000000  0.4913160000000  0.4107760000000 1.0
C      1  0.5122390000000  0.4639970000000  0.4164550000000 1.0
C      1  0.4606690000000  0.4661210000000  0.4310280000000 1.0
C      1  0.5475240000000  0.5689640000000  0.4522670000000 1.0
C      1  0.5596840000000  0.5065450000000  0.4360480000000 1.0
C      1  0.4965580000000  0.5408010000000  0.5406160000000 1.0
C      1  0.4257190000000  0.5095600000000  0.5336200000000 1.0
C      1  0.5724340000000  0.4344600000000  0.5394820000000 1.0
C      1  0.4453120000000  0.5477620000000  0.4515540000000 1.0
C      1  0.5170370000000  0.4375180000000  0.4364270000000 1.0
C      1  0.5031900000000  0.4077300000000  0.4864570000000 1.0
C      1  0.5343570000000  0.4471210000000  0.5242370000000 1.0
C      1  0.5677740000000  0.5031190000000  0.4689010000000 1.0
C      1  0.4783550000000  0.5478350000000  0.4867690000000 1.0
C      1  0.5325270000000  0.5381930000000  0.5578630000000 1.0
C      1  0.5036280000000  0.5794000000000  0.5329740000000 1.0
C      1  0.5135740000000  0.4941860000000  0.5234280000000 1.0
C      1  0.4945790000000  0.5713990000000  0.4683900000000 1.0
C      1  0.4699240000000  0.4485920000000  0.4923530000000 1.0
C      1  0.4660710000000  0.5759850000000  0.5654980000000 1.0
C      1  0.5556320000000  0.4274870000000  0.4747120000000 1.0
C      1  0.5605360000000  0.4733420000000  0.4433340000000 1.0
C      1  0.4467160000000  0.5746440000000  0.4723930000000 1.0
C      1  0.5525140000000  0.5559370000000  0.4908140000000 1.0
C      1  0.5127420000000  0.5149790000000  0.4174380000000 1.0
C      1  0.5262900000000  0.5649340000000  0.4263270000000 1.0
C      1  0.5015590000000  0.4730230000000  0.4924410000000 1.0
C      1  0.4652130000000  0.4873890000000  0.4810240000000 1.0
C      1  0.5442570000000  0.5351700000000  0.4460140000000 1.0
C      1  0.4792730000000  0.5316010000000  0.5867920000000 1.0
C      1  0.5390130000000  0.4850660000000  0.4196820000000 1.0
C      1  0.4509820000000  0.5560600000000  0.5433950000000 1.0
C      1  0.5597250000000  0.4659230000000  0.5372440000000 1.0
C      1  0.5243910000000  0.4396890000000  0.4754120000000 1.0
C      1  0.4480290000000  0.4472650000000  0.5475610000000 1.0
C      1  0.4210740000000  0.4896750000000  0.4525070000000 1.0
C      1  0.5271990000000  0.5827310000000  0.5095520000000 1.0
C      1  0.4873720000000  0.5613620000000  0.5797640000000 1.0
C      1  0.4191310000000  0.4606140000000  0.4704710000000 1.0
C      1  0.4945440000000  0.5837570000000  0.5001150000000 1.0
C      1  0.4607610000000  0.4106020000000  0.4854900000000 1.0
C      1  0.5281340000000  0.5180980000000  0.5828180000000 1.0
C      1  0.5735460000000  0.4455310000000  0.4761560000000 1.0
C      1  0.4472820000000  0.4706060000000  0.4575020000000 1.0
C      1  0.5344140000000  0.4649410000000  0.4958570000000 1.0
C      1  0.4306040000000  0.5175560000000  0.4459530000000 1.0
C      1  0.5761950000000  0.5607230000000  0.4672770000000 1.0
C      1  0.5108850000000  0.4669530000000  0.5387950000000 1.0
C      1  0.4172530000000  0.4931390000000  0.4965470000000 1.0
C      1  0.4261580000000  0.4456610000000  0.5303360000000 1.0
C      1  0.5912550000000  0.4736860000000  0.5273810000000 1.0
C      1  0.4687910000000  0.5484280000000  0.4299670000000 1.0
C      1  0.4925350000000  0.4499920000000  0.4691060000000 1.0
C      1  0.4353910000000  0.5397120000000  0.5250900000000 1.0
C      1  0.4529200000000  0.4782620000000  0.5606770000000 1.0
C      1  0.4832680000000  0.4970000000000  0.5082120000000 1.0
C      1  0.4415130000000  0.4366370000000  0.4794690000000 1.0
C      1  0.4902100000000  0.4663860000000  0.4422620000000 1.0
C      1  0.5109840000000  0.4979270000000  0.5860510000000 1.0
C      1  0.5205740000000  0.5141710000000  0.4968250000000 1.0
C      1  0.4893160000000  0.4605100000000  0.5870430000000 1.0
C      1  0.4688390000000  0.4778790000000  0.5326770000000 1.0
C      1  0.4636440000000  0.5155920000000  0.4371460000000 1.0
C      1  0.4703630000000  0.5807700000000  0.5317230000000 1.0
C      1  0.5255020000000  0.5490320000000  0.4785630000000 1.0
C      1  0.4966390000000  0.5221520000000  0.4740270000000 1.0
C      1  0.4260410000000  0.5509060000000  0.4990420000000 1.0
C      1  0.6009820000000  0.4975830000000  0.4706490000000 1.0
C      1  0.4860750000000  0.4505010000000  0.5222090000000 1.0
C      1  0.5604890000000  0.5196120000000  0.5596740000000 1.0
C      1  0.4044790000000  0.5637060000000  0.4927600000000 1.0
C      1  0.5124960000000  0.5634210000000  0.5595060000000 1.0
C      1  0.4429820000000  0.5247520000000  0.5724530000000 1.0
C      1  0.4842670000000  0.5046160000000  0.5922110000000 1.0
C      1  0.5646380000000  0.5349980000000  0.5342520000000 1.0
C      1  0.5260480000000  0.5821660000000  0.4755760000000 1.0
C      1  0.4207970000000  0.4613840000000  0.5029250000000 1.0
C      1  0.4326140000000  0.5017820000000  0.5602920000000 1.0
C      1  0.5447060000000  0.4638330000000  0.5676800000000 1.0
C      1  0.4749980000000  0.4217150000000  0.4620700000000 1.0
C      1  0.4617720000000  0.5747090000000  0.4993820000000 1.0
C      1  0.4803310000000  0.4124390000000  0.5113550000000 1.0
C      1  0.4469370000000  0.5359000000000  0.4815040000000 1.0
C      1  0.4879860000000  0.5304300000000  0.5124430000000 1.0
C      1  0.4859660000000  0.4972400000000  0.4559300000000 1.0
C      1  0.5452910000000  0.5576440000000  0.5210700000000 1.0
C      1  0.5731760000000  0.5319070000000  0.4851490000000 1.0
C      1  0.5874590000000  0.4905690000000  0.5012620000000 1.0
C      1  0.4552900000000  0.5126870000000  0.5195720000000 1.0
C      1  0.5110150000000  0.5388950000000  0.4521390000000 1.0
C      1  0.5461580000000  0.4207650000000  0.5421950000000 1.0
C      1  0.5179380000000  0.4950090000000  0.4444830000000 1.0
C      1  0.4711080000000  0.5340320000000  0.5557510000000 1.0
C      1  0.4943820000000  0.5626670000000  0.4376680000000 1.0
C      1  0.5140510000000  0.4710540000000  0.5697850000000 1.0
C      1  0.4519840000000  0.4695690000000  0.5067890000000 1.0
C      1  0.4703860000000  0.4916530000000  0.4185110000000 1.0
C      1  0.5016180000000  0.4278250000000  0.5609170000000 1.0
C      1  0.5606660000000  0.4937110000000  0.5671630000000 1.0
C      1  0.4393090000000  0.5068950000000  0.4834810000000 1.0
C      1  0.5691330000000  0.5145850000000  0.5119240000000 1.0
C      1  0.5348310000000  0.5115330000000  0.4688130000000 1.0
C      1  0.4738570000000  0.4268690000000  0.5418780000000 1.0
C      1  0.5630170000000  0.4736050000000  0.4851030000000 1.0
C      1  0.5281280000000  0.4346910000000  0.5617090000000 1.0
END
