TITL C-2848499-1157-224 0.000320553886549429 125000 -662.583197577953 0 0 121 (C1) n - 1
REM
REM in /home/bkarasulu/work/CARBON/AIRSS/Generating-Clusters/AIREBO/with-SteepDescent/Only-C1/SD-CG-opt/Try1-1.4A-POS3A/HFTN-CG
REM
REM
REM
REM
REM
REM ./C.cell (11c1c37f851c82e70ff6c80c92926a4b)
REM
REM compiler GCC version 9.2.1 20190827 (Red Hat 9.2.1-1)
REM options -cpp -mtune=generic -march=x86-64 -g -O0 -fpre-include=/usr/include/finclude/math-vector-fortran.h
REM seed -1565758580 875853657 1598032020 1189470435 2110891138 -889483904 -437585811 -225523426 -1351961003 1223239199 -1113560873 -821729372 1694996683 -425623669 2112881701 -2038721525 158314799 -1591942108 -445728104 -1068148042 532808447 977483460 2013576637 1448761063 1978128171 1583659616 1616549315 1744617604 354214867 -1481491013 -1802334943 2136992050 1331490378
REM
CELL 1.54180   50.00000   50.00000   50.00000   90.00000   90.00000   90.00000
LATT -1
SFAC C  
C      1  0.4417630000000  0.4849870000000  0.5125630000000 1.0
C      1  0.5439610000000  0.4905130000000  0.4974620000000 1.0
C      1  0.5117710000000  0.5079820000000  0.4813430000000 1.0
C      1  0.5564650000000  0.4727090000000  0.4713330000000 1.0
C      1  0.5309610000000  0.4604990000000  0.5445860000000 1.0
C      1  0.4237520000000  0.5531560000000  0.4583210000000 1.0
C      1  0.5978790000000  0.4641080000000  0.4892700000000 1.0
C      1  0.4393710000000  0.5584180000000  0.5167500000000 1.0
C      1  0.4742160000000  0.5058240000000  0.5226040000000 1.0
C      1  0.5092600000000  0.4028880000000  0.5247550000000 1.0
C      1  0.4882560000000  0.5645300000000  0.4875560000000 1.0
C      1  0.4753660000000  0.5216840000000  0.3988740000000 1.0
C      1  0.4184400000000  0.5193010000000  0.5272880000000 1.0
C      1  0.5515440000000  0.5362400000000  0.5085640000000 1.0
C      1  0.4663290000000  0.4120920000000  0.4621230000000 1.0
C      1  0.4843990000000  0.4898190000000  0.4823870000000 1.0
C      1  0.4988930000000  0.5801350000000  0.5132180000000 1.0
C      1  0.4324250000000  0.5136380000000  0.4967940000000 1.0
C      1  0.5464850000000  0.5526930000000  0.5689010000000 1.0
C      1  0.5052690000000  0.4769320000000  0.6005300000000 1.0
C      1  0.5393780000000  0.4318980000000  0.4399700000000 1.0
C      1  0.5088600000000  0.4437900000000  0.5248560000000 1.0
C      1  0.5135520000000  0.4316100000000  0.4240600000000 1.0
C      1  0.4000120000000  0.4761480000000  0.4721140000000 1.0
C      1  0.4012270000000  0.5051050000000  0.4853290000000 1.0
C      1  0.4346060000000  0.4454190000000  0.4953470000000 1.0
C      1  0.4996440000000  0.5052620000000  0.6014740000000 1.0
C      1  0.5369780000000  0.5458320000000  0.4592230000000 1.0
C      1  0.4264610000000  0.4998680000000  0.5472940000000 1.0
C      1  0.5632420000000  0.5189140000000  0.4465210000000 1.0
C      1  0.4628200000000  0.5268550000000  0.5044150000000 1.0
C      1  0.5512570000000  0.5553860000000  0.5366600000000 1.0
C      1  0.4288670000000  0.4449340000000  0.5245870000000 1.0
C      1  0.4845160000000  0.5450700000000  0.4028860000000 1.0
C      1  0.5003720000000  0.4593400000000  0.4625900000000 1.0
C      1  0.5090930000000  0.4317740000000  0.4765470000000 1.0
C      1  0.4294620000000  0.4630260000000  0.4703140000000 1.0
C      1  0.4429830000000  0.4547980000000  0.5510280000000 1.0
C      1  0.4577470000000  0.4895830000000  0.5814310000000 1.0
C      1  0.5163660000000  0.5753630000000  0.5409800000000 1.0
C      1  0.4959230000000  0.4735420000000  0.5307770000000 1.0
C      1  0.5367200000000  0.4257030000000  0.4678780000000 1.0
C      1  0.4806870000000  0.4704790000000  0.4116920000000 1.0
C      1  0.4451310000000  0.5195580000000  0.5584640000000 1.0
C      1  0.4679310000000  0.4695080000000  0.4619790000000 1.0
C      1  0.4126820000000  0.4794430000000  0.5026790000000 1.0
C      1  0.4932670000000  0.5587920000000  0.5701590000000 1.0
C      1  0.4355770000000  0.4803740000000  0.5668060000000 1.0
C      1  0.4872540000000  0.5386780000000  0.5452950000000 1.0
C      1  0.4732860000000  0.5130970000000  0.5530730000000 1.0
C      1  0.5299690000000  0.5168100000000  0.5606040000000 1.0
C      1  0.5852040000000  0.4761730000000  0.4663080000000 1.0
C      1  0.4577830000000  0.5646490000000  0.4758170000000 1.0
C      1  0.5128180000000  0.4897200000000  0.5100150000000 1.0
C      1  0.5543120000000  0.5759520000000  0.5119790000000 1.0
C      1  0.4751640000000  0.5861820000000  0.4560540000000 1.0
C      1  0.5274890000000  0.5141930000000  0.4065770000000 1.0
C      1  0.4674040000000  0.4259920000000  0.5381640000000 1.0
C      1  0.5620740000000  0.5065120000000  0.5146030000000 1.0
C      1  0.5072500000000  0.5180570000000  0.4317550000000 1.0
C      1  0.5310600000000  0.5125320000000  0.4555510000000 1.0
C      1  0.5811100000000  0.5274320000000  0.5334890000000 1.0
C      1  0.4884200000000  0.4889550000000  0.5667640000000 1.0
C      1  0.5797260000000  0.4462560000000  0.5021530000000 1.0
C      1  0.4726230000000  0.5466610000000  0.4512840000000 1.0
C      1  0.4725400000000  0.5138750000000  0.5935810000000 1.0
C      1  0.5560630000000  0.4610330000000  0.5216110000000 1.0
C      1  0.4573820000000  0.5074320000000  0.4471310000000 1.0
C      1  0.5910220000000  0.5330770000000  0.5046260000000 1.0
C      1  0.4833650000000  0.5781630000000  0.5434350000000 1.0
C      1  0.6041170000000  0.4867500000000  0.5063830000000 1.0
C      1  0.5194890000000  0.4690000000000  0.4858220000000 1.0
C      1  0.4457690000000  0.4926950000000  0.4735210000000 1.0
C      1  0.4672840000000  0.4389520000000  0.4470290000000 1.0
C      1  0.4848950000000  0.4411630000000  0.4222850000000 1.0
C      1  0.5681000000000  0.4751250000000  0.5501280000000 1.0
C      1  0.5846260000000  0.4881280000000  0.5273620000000 1.0
C      1  0.4423030000000  0.5523630000000  0.4410790000000 1.0
C      1  0.5120480000000  0.4844720000000  0.4107210000000 1.0
C      1  0.4391210000000  0.5479470000000  0.5673080000000 1.0
C      1  0.5540900000000  0.4554730000000  0.4337000000000 1.0
C      1  0.4650000000000  0.4390100000000  0.5084230000000 1.0
C      1  0.5797330000000  0.5444310000000  0.4575100000000 1.0
C      1  0.4319680000000  0.5466330000000  0.4885120000000 1.0
C      1  0.4763080000000  0.4023190000000  0.4830780000000 1.0
C      1  0.5399040000000  0.4820020000000  0.4476470000000 1.0
C      1  0.5026190000000  0.5823210000000  0.4548130000000 1.0
C      1  0.5416270000000  0.5670550000000  0.4851180000000 1.0
C      1  0.4660990000000  0.4694000000000  0.5002010000000 1.0
C      1  0.5421090000000  0.5374200000000  0.4266640000000 1.0
C      1  0.4244040000000  0.5462130000000  0.5372310000000 1.0
C      1  0.5203080000000  0.5415920000000  0.5408430000000 1.0
C      1  0.5208290000000  0.5350260000000  0.5093330000000 1.0
C      1  0.6014620000000  0.5113170000000  0.4899870000000 1.0
C      1  0.5228600000000  0.5643160000000  0.4362730000000 1.0
C      1  0.4474920000000  0.4709620000000  0.4194660000000 1.0
C      1  0.5227770000000  0.4193410000000  0.5448450000000 1.0
C      1  0.5890290000000  0.5047340000000  0.4636210000000 1.0
C      1  0.4388600000000  0.4524890000000  0.4411620000000 1.0
C      1  0.5630010000000  0.5245930000000  0.5591980000000 1.0
C      1  0.4677750000000  0.5413440000000  0.5828980000000 1.0
C      1  0.4936050000000  0.4230920000000  0.5025990000000 1.0
C      1  0.5002520000000  0.5372740000000  0.4876270000000 1.0
C      1  0.5640170000000  0.4937030000000  0.5697130000000 1.0
C      1  0.4695260000000  0.5548480000000  0.5228400000000 1.0
C      1  0.4681950000000  0.4399570000000  0.5644150000000 1.0
C      1  0.5168390000000  0.4907750000000  0.5513160000000 1.0
C      1  0.4788150000000  0.5017990000000  0.4239600000000 1.0
C      1  0.5211420000000  0.5497910000000  0.5813850000000 1.0
C      1  0.5200130000000  0.4574740000000  0.5766700000000 1.0
C      1  0.5155220000000  0.5848040000000  0.4841880000000 1.0
C      1  0.5455250000000  0.4480170000000  0.4920040000000 1.0
C      1  0.5193110000000  0.5218540000000  0.5912090000000 1.0
C      1  0.5150520000000  0.4635500000000  0.4356290000000 1.0
C      1  0.4391310000000  0.4972190000000  0.4229980000000 1.0
C      1  0.4949950000000  0.5486360000000  0.4322590000000 1.0
C      1  0.5714890000000  0.5508280000000  0.4864450000000 1.0
C      1  0.4861550000000  0.4580030000000  0.5797220000000 1.0
C      1  0.5310800000000  0.4284950000000  0.5685370000000 1.0
C      1  0.4631000000000  0.4776210000000  0.5380030000000 1.0
C      1  0.4747490000000  0.5207240000000  0.4731710000000 1.0
END
