TITL C-2848505-4874-55 -0.000512623894594544 125000 -536.091282650944 0 0 97 (C1) n - 1
REM
REM in /home/bkarasulu/work/CARBON/AIRSS/Generating-Clusters/AIREBO/with-SteepDescent/Only-C1/SD-CG-opt/Try1-1.4A-POS3A/HFTN-CG
REM
REM
REM
REM
REM
REM ./C.cell (11c1c37f851c82e70ff6c80c92926a4b)
REM
REM compiler GCC version 9.2.1 20190827 (Red Hat 9.2.1-1)
REM options -cpp -mtune=generic -march=x86-64 -g -O0 -fpre-include=/usr/include/finclude/math-vector-fortran.h
REM seed -793366482 1063316374 -1712208306 -1525925206 1628842129 -883112538 200687521 -119488439 -79804633 1175394551 -1451700777 -846394378 1082190536 -482958918 -677214390 -2019250045 -424542016 1649337115 125087353 187682309 1571427877 -1608856577 -587718975 -597291682 -469149562 -577219627 -1021606329 -91214325 1393787939 1785006687 -1003487679 334152107 337724697
REM
CELL 1.54180   50.00000   50.00000   50.00000   90.00000   90.00000   90.00000
LATT -1
SFAC C  
C      1  0.5303220000000  0.5499340000000  0.4810820000000 1.0
C      1  0.5878130000000  0.4990520000000  0.5277200000000 1.0
C      1  0.5096110000000  0.5223260000000  0.5541040000000 1.0
C      1  0.4306290000000  0.4093410000000  0.5017840000000 1.0
C      1  0.5054300000000  0.5562250000000  0.5335100000000 1.0
C      1  0.4770780000000  0.4553940000000  0.4668590000000 1.0
C      1  0.5008590000000  0.4124170000000  0.4779200000000 1.0
C      1  0.5364940000000  0.5835360000000  0.5016310000000 1.0
C      1  0.5667190000000  0.5448310000000  0.5274450000000 1.0
C      1  0.4287780000000  0.4997260000000  0.5402800000000 1.0
C      1  0.4217890000000  0.3855150000000  0.5040660000000 1.0
C      1  0.4478260000000  0.5363980000000  0.4604450000000 1.0
C      1  0.4979740000000  0.4511450000000  0.5333750000000 1.0
C      1  0.5409700000000  0.5173420000000  0.4292220000000 1.0
C      1  0.4561830000000  0.5731840000000  0.4475030000000 1.0
C      1  0.5640690000000  0.4733800000000  0.4642150000000 1.0
C      1  0.4573860000000  0.4696880000000  0.5592940000000 1.0
C      1  0.5448520000000  0.4495610000000  0.4591300000000 1.0
C      1  0.5411080000000  0.4475070000000  0.5638410000000 1.0
C      1  0.5583770000000  0.5509360000000  0.5598390000000 1.0
C      1  0.4405770000000  0.5478730000000  0.5200350000000 1.0
C      1  0.5762200000000  0.5498930000000  0.4250320000000 1.0
C      1  0.4888890000000  0.5059780000000  0.4681680000000 1.0
C      1  0.4393680000000  0.5004610000000  0.4275150000000 1.0
C      1  0.4867050000000  0.5285870000000  0.4318890000000 1.0
C      1  0.4533940000000  0.5056090000000  0.4965810000000 1.0
C      1  0.5181500000000  0.4367670000000  0.4414380000000 1.0
C      1  0.5107280000000  0.5051670000000  0.4348400000000 1.0
C      1  0.5145420000000  0.5827370000000  0.5193770000000 1.0
C      1  0.5549580000000  0.4923510000000  0.4815950000000 1.0
C      1  0.5598930000000  0.4691220000000  0.5658890000000 1.0
C      1  0.5221380000000  0.4844130000000  0.5701460000000 1.0
C      1  0.5370190000000  0.5128920000000  0.5814220000000 1.0
C      1  0.5311870000000  0.4849480000000  0.5000120000000 1.0
C      1  0.5478710000000  0.4683310000000  0.5224130000000 1.0
C      1  0.4500860000000  0.5610760000000  0.4953300000000 1.0
C      1  0.5079340000000  0.4537570000000  0.5662250000000 1.0
C      1  0.5040070000000  0.5639410000000  0.4690460000000 1.0
C      1  0.5199770000000  0.4343410000000  0.4863830000000 1.0
C      1  0.4373420000000  0.5134190000000  0.4715380000000 1.0
C      1  0.4816320000000  0.5354240000000  0.5727260000000 1.0
C      1  0.4876270000000  0.5041890000000  0.5673290000000 1.0
C      1  0.4547470000000  0.5180580000000  0.5281920000000 1.0
C      1  0.5079980000000  0.5036080000000  0.5177620000000 1.0
C      1  0.5277600000000  0.4690930000000  0.4371180000000 1.0
C      1  0.5260910000000  0.5890300000000  0.4753440000000 1.0
C      1  0.5578040000000  0.5363580000000  0.4401490000000 1.0
C      1  0.4694860000000  0.4272220000000  0.5473670000000 1.0
C      1  0.4704920000000  0.4398640000000  0.5167600000000 1.0
C      1  0.4240170000000  0.4985740000000  0.4517430000000 1.0
C      1  0.4517170000000  0.5377000000000  0.5712500000000 1.0
C      1  0.4414660000000  0.4382130000000  0.4990170000000 1.0
C      1  0.5525280000000  0.4388940000000  0.5160330000000 1.0
C      1  0.4696010000000  0.5354800000000  0.4955240000000 1.0
C      1  0.5486110000000  0.4283570000000  0.5431360000000 1.0
C      1  0.5686550000000  0.5162290000000  0.4853330000000 1.0
C      1  0.4825480000000  0.4631160000000  0.4986440000000 1.0
C      1  0.4859520000000  0.5875910000000  0.4817180000000 1.0
C      1  0.4477220000000  0.4434720000000  0.4682050000000 1.0
C      1  0.4776010000000  0.4891420000000  0.5129150000000 1.0
C      1  0.5487140000000  0.4332590000000  0.4887830000000 1.0
C      1  0.4102530000000  0.4849080000000  0.5197730000000 1.0
C      1  0.5110030000000  0.4631410000000  0.4864350000000 1.0
C      1  0.4216690000000  0.4589100000000  0.5132860000000 1.0
C      1  0.4681250000000  0.4587690000000  0.4195390000000 1.0
C      1  0.5813920000000  0.5217100000000  0.5091190000000 1.0
C      1  0.5594660000000  0.4986990000000  0.5692320000000 1.0
C      1  0.5089910000000  0.5534740000000  0.5661980000000 1.0
C      1  0.5569150000000  0.5588630000000  0.5003040000000 1.0
C      1  0.4010870000000  0.4849960000000  0.4545260000000 1.0
C      1  0.5154430000000  0.4858030000000  0.4634650000000 1.0
C      1  0.4780480000000  0.4810090000000  0.4509890000000 1.0
C      1  0.4595120000000  0.5799200000000  0.4757470000000 1.0
C      1  0.5236490000000  0.5396250000000  0.5107120000000 1.0
C      1  0.4815670000000  0.5389060000000  0.4638820000000 1.0
C      1  0.4665550000000  0.5026820000000  0.4298670000000 1.0
C      1  0.4704990000000  0.4937240000000  0.5459780000000 1.0
C      1  0.4342610000000  0.5221880000000  0.5622600000000 1.0
C      1  0.5619950000000  0.5149520000000  0.5431080000000 1.0
C      1  0.5073200000000  0.5201910000000  0.4880880000000 1.0
C      1  0.4945250000000  0.4316890000000  0.4559110000000 1.0
C      1  0.4945160000000  0.4846140000000  0.5895350000000 1.0
C      1  0.4971810000000  0.4759440000000  0.4239060000000 1.0
C      1  0.4931140000000  0.5968330000000  0.5073790000000 1.0
C      1  0.5187980000000  0.4777150000000  0.5369780000000 1.0
C      1  0.5884160000000  0.4735680000000  0.4516800000000 1.0
C      1  0.4748270000000  0.4479990000000  0.5656070000000 1.0
C      1  0.4315510000000  0.5563110000000  0.4443770000000 1.0
C      1  0.4393900000000  0.4648360000000  0.5372880000000 1.0
C      1  0.5719720000000  0.4766270000000  0.5384680000000 1.0
C      1  0.5332130000000  0.5198610000000  0.5338870000000 1.0
C      1  0.5582120000000  0.5401080000000  0.4698030000000 1.0
C      1  0.4869320000000  0.5299120000000  0.5224890000000 1.0
C      1  0.4503330000000  0.4475430000000  0.4383220000000 1.0
C      1  0.5375020000000  0.5411480000000  0.5751940000000 1.0
C      1  0.5465250000000  0.4896080000000  0.4223630000000 1.0
C      1  0.4772190000000  0.5612440000000  0.4311180000000 1.0
END
