TITL C-2848508-1660-633 -0.00211832192371759 125000 -815.088958165609 0 0 155 (C1) n - 1
REM
REM in /home/bkarasulu/work/CARBON/AIRSS/Generating-Clusters/AIREBO/with-SteepDescent/Only-C1/SD-CG-opt/Try1-1.4A-POS3A/HFTN-CG
REM
REM
REM
REM
REM
REM ./C.cell (11c1c37f851c82e70ff6c80c92926a4b)
REM
REM compiler GCC version 9.2.1 20190827 (Red Hat 9.2.1-1)
REM options -cpp -mtune=generic -march=x86-64 -g -O0 -fpre-include=/usr/include/finclude/math-vector-fortran.h
REM seed -442842155 2006866274 -548275770 1964384605 -422380882 993929599 -609131538 940254608 46378026 1946297814 -1905266670 -356204373 826346382 98009623 54342306 832210012 24416832 -1388015184 -746059176 -504001017 2035249751 -1496484728 -1529373067 -433052308 -421362431 1437765956 99210392 362390726 -1973267015 -491308463 1079989889 121435946 2135340748
REM
CELL 1.54180   50.00000   50.00000   50.00000   90.00000   90.00000   90.00000
LATT -1
SFAC C  
C      1  0.5067930000000  0.4543210000000  0.5543510000000 1.0
C      1  0.5174760000000  0.4576420000000  0.4196660000000 1.0
C      1  0.4063100000000  0.4630640000000  0.4660740000000 1.0
C      1  0.5566750000000  0.4917030000000  0.4133100000000 1.0
C      1  0.4860110000000  0.5802250000000  0.4654260000000 1.0
C      1  0.4265990000000  0.4432400000000  0.4682030000000 1.0
C      1  0.5623270000000  0.4343340000000  0.5267050000000 1.0
C      1  0.5107000000000  0.5493070000000  0.5342220000000 1.0
C      1  0.4701870000000  0.5515010000000  0.5984950000000 1.0
C      1  0.4700100000000  0.5846640000000  0.5414090000000 1.0
C      1  0.4776930000000  0.4927620000000  0.5116150000000 1.0
C      1  0.5283200000000  0.5185770000000  0.5783630000000 1.0
C      1  0.4917960000000  0.4783550000000  0.5679570000000 1.0
C      1  0.4615760000000  0.5294670000000  0.4270410000000 1.0
C      1  0.4790690000000  0.5037310000000  0.4407610000000 1.0
C      1  0.4963340000000  0.5207850000000  0.5056250000000 1.0
C      1  0.5005150000000  0.5586510000000  0.6005660000000 1.0
C      1  0.5276520000000  0.4536660000000  0.5812110000000 1.0
C      1  0.5406680000000  0.5697020000000  0.4008550000000 1.0
C      1  0.5177730000000  0.5959400000000  0.4476490000000 1.0
C      1  0.4050930000000  0.5659060000000  0.5054520000000 1.0
C      1  0.5809910000000  0.5799620000000  0.5048840000000 1.0
C      1  0.4825670000000  0.4467700000000  0.3965300000000 1.0
C      1  0.5551420000000  0.4329860000000  0.4607440000000 1.0
C      1  0.4886960000000  0.4097790000000  0.5471500000000 1.0
C      1  0.4319110000000  0.5128820000000  0.4260550000000 1.0
C      1  0.4753480000000  0.5338430000000  0.4873000000000 1.0
C      1  0.5185700000000  0.4764690000000  0.4442300000000 1.0
C      1  0.5651500000000  0.5281110000000  0.4784680000000 1.0
C      1  0.5245470000000  0.4182080000000  0.4620980000000 1.0
C      1  0.5285520000000  0.5198780000000  0.5138890000000 1.0
C      1  0.4351390000000  0.5041230000000  0.4817090000000 1.0
C      1  0.4878880000000  0.5469260000000  0.4587540000000 1.0
C      1  0.5623960000000  0.5294280000000  0.4445720000000 1.0
C      1  0.4248700000000  0.5036590000000  0.5144090000000 1.0
C      1  0.5669220000000  0.4238500000000  0.4915910000000 1.0
C      1  0.4769280000000  0.4678070000000  0.3848870000000 1.0
C      1  0.5510450000000  0.5584500000000  0.4566020000000 1.0
C      1  0.4246110000000  0.5130760000000  0.5470820000000 1.0
C      1  0.5263420000000  0.5024900000000  0.6065710000000 1.0
C      1  0.5616920000000  0.5138830000000  0.5092020000000 1.0
C      1  0.3956550000000  0.5213820000000  0.4815110000000 1.0
C      1  0.4112380000000  0.5280300000000  0.4390980000000 1.0
C      1  0.5096370000000  0.5511420000000  0.4976340000000 1.0
C      1  0.5427690000000  0.5174220000000  0.4221860000000 1.0
C      1  0.5215810000000  0.4071040000000  0.5465230000000 1.0
C      1  0.5163800000000  0.5619760000000  0.4468780000000 1.0
C      1  0.5127070000000  0.5237040000000  0.4574320000000 1.0
C      1  0.3987560000000  0.4985910000000  0.4970520000000 1.0
C      1  0.4270270000000  0.4717180000000  0.5565950000000 1.0
C      1  0.4791940000000  0.4979360000000  0.6117860000000 1.0
C      1  0.5029720000000  0.5843660000000  0.4946480000000 1.0
C      1  0.4821890000000  0.4669650000000  0.4310270000000 1.0
C      1  0.4573150000000  0.5524250000000  0.5744070000000 1.0
C      1  0.5022380000000  0.4153320000000  0.4454910000000 1.0
C      1  0.5439780000000  0.4671280000000  0.5401240000000 1.0
C      1  0.5068600000000  0.4694370000000  0.5253670000000 1.0
C      1  0.5077960000000  0.5385200000000  0.3941470000000 1.0
C      1  0.4965000000000  0.5273280000000  0.5487000000000 1.0
C      1  0.5327120000000  0.4576670000000  0.4669320000000 1.0
C      1  0.4451480000000  0.5389250000000  0.5251870000000 1.0
C      1  0.4740280000000  0.4076640000000  0.4843620000000 1.0
C      1  0.4155200000000  0.4768920000000  0.5314150000000 1.0
C      1  0.4548160000000  0.4639140000000  0.5538200000000 1.0
C      1  0.5419030000000  0.5482400000000  0.5270560000000 1.0
C      1  0.5896530000000  0.4714680000000  0.4826020000000 1.0
C      1  0.5330890000000  0.6084780000000  0.4655470000000 1.0
C      1  0.5079160000000  0.4003640000000  0.5042750000000 1.0
C      1  0.4402010000000  0.4550000000000  0.4203090000000 1.0
C      1  0.5994470000000  0.5179020000000  0.5484310000000 1.0
C      1  0.4947800000000  0.4359460000000  0.4250300000000 1.0
C      1  0.5113880000000  0.5067690000000  0.4305770000000 1.0
C      1  0.5657860000000  0.5234180000000  0.5905960000000 1.0
C      1  0.5615240000000  0.4956660000000  0.5830590000000 1.0
C      1  0.5609000000000  0.5527510000000  0.5014340000000 1.0
C      1  0.4768080000000  0.4506340000000  0.5920950000000 1.0
C      1  0.4807500000000  0.4589820000000  0.5091080000000 1.0
C      1  0.5753750000000  0.4836110000000  0.4322350000000 1.0
C      1  0.5496960000000  0.5909980000000  0.5116890000000 1.0
C      1  0.5457060000000  0.5477690000000  0.5769140000000 1.0
C      1  0.4706140000000  0.4973060000000  0.3933880000000 1.0
C      1  0.4625140000000  0.5798970000000  0.5093070000000 1.0
C      1  0.5403530000000  0.5090150000000  0.4707130000000 1.0
C      1  0.4438610000000  0.4449580000000  0.4463710000000 1.0
C      1  0.4204030000000  0.4946970000000  0.5762910000000 1.0
C      1  0.4886320000000  0.5861800000000  0.4319650000000 1.0
C      1  0.5167670000000  0.4238260000000  0.5888920000000 1.0
C      1  0.4795480000000  0.4059820000000  0.5179040000000 1.0
C      1  0.4809700000000  0.4026410000000  0.4594310000000 1.0
C      1  0.4970150000000  0.5137920000000  0.4017870000000 1.0
C      1  0.4659900000000  0.4867050000000  0.5386130000000 1.0
C      1  0.5042300000000  0.4592900000000  0.6023360000000 1.0
C      1  0.5573720000000  0.5600490000000  0.5508460000000 1.0
C      1  0.5183930000000  0.4536780000000  0.4975150000000 1.0
C      1  0.6029840000000  0.4907010000000  0.5521320000000 1.0
C      1  0.5781950000000  0.5657060000000  0.4749860000000 1.0
C      1  0.5334510000000  0.5972460000000  0.4916850000000 1.0
C      1  0.5172550000000  0.4213130000000  0.4893700000000 1.0
C      1  0.5743970000000  0.4586360000000  0.5087560000000 1.0
C      1  0.5887250000000  0.5470830000000  0.4525400000000 1.0
C      1  0.4570120000000  0.4818380000000  0.4869230000000 1.0
C      1  0.4605280000000  0.5527040000000  0.5037650000000 1.0
C      1  0.5327850000000  0.4351770000000  0.5436490000000 1.0
C      1  0.5141610000000  0.5003210000000  0.5376940000000 1.0
C      1  0.4651960000000  0.5942410000000  0.4864120000000 1.0
C      1  0.4960970000000  0.6167050000000  0.4979150000000 1.0
C      1  0.5294550000000  0.4919610000000  0.4952460000000 1.0
C      1  0.5047700000000  0.4851190000000  0.6137430000000 1.0
C      1  0.5693040000000  0.5061540000000  0.5373750000000 1.0
C      1  0.4995410000000  0.5312560000000  0.5803960000000 1.0
C      1  0.4460930000000  0.5733710000000  0.5568650000000 1.0
C      1  0.4903060000000  0.4606840000000  0.4778340000000 1.0
C      1  0.4998260000000  0.5808360000000  0.5586480000000 1.0
C      1  0.5756520000000  0.4591460000000  0.4547870000000 1.0
C      1  0.5255170000000  0.3904920000000  0.5243980000000 1.0
C      1  0.5453810000000  0.4416020000000  0.4110880000000 1.0
C      1  0.4982310000000  0.4105700000000  0.5787340000000 1.0
C      1  0.5370000000000  0.5400570000000  0.4014720000000 1.0
C      1  0.5172860000000  0.5668250000000  0.5769880000000 1.0
C      1  0.4162370000000  0.4519200000000  0.5137420000000 1.0
C      1  0.5698390000000  0.4370490000000  0.5578880000000 1.0
C      1  0.5422920000000  0.4713790000000  0.4012960000000 1.0
C      1  0.5456670000000  0.4695060000000  0.5092410000000 1.0
C      1  0.4811100000000  0.5243050000000  0.6068360000000 1.0
C      1  0.5273120000000  0.5464880000000  0.4751060000000 1.0
C      1  0.4218350000000  0.5458960000000  0.5013750000000 1.0
C      1  0.5679540000000  0.4907500000000  0.4646860000000 1.0
C      1  0.4514060000000  0.4853470000000  0.4180030000000 1.0
C      1  0.5959250000000  0.4392120000000  0.4913800000000 1.0
C      1  0.4645000000000  0.4326100000000  0.5042070000000 1.0
C      1  0.4634750000000  0.5308680000000  0.5529710000000 1.0
C      1  0.4668790000000  0.4829520000000  0.5882740000000 1.0
C      1  0.4792690000000  0.5035340000000  0.4731300000000 1.0
C      1  0.5572120000000  0.4248460000000  0.4283100000000 1.0
C      1  0.5096920000000  0.5660390000000  0.4144050000000 1.0
C      1  0.4287310000000  0.4306660000000  0.5365200000000 1.0
C      1  0.4475220000000  0.4949840000000  0.4503940000000 1.0
C      1  0.5071080000000  0.4874460000000  0.4734650000000 1.0
C      1  0.4986200000000  0.5777130000000  0.5260980000000 1.0
C      1  0.4157540000000  0.4830700000000  0.4478720000000 1.0
C      1  0.4614810000000  0.5293620000000  0.3930380000000 1.0
C      1  0.5681840000000  0.5828170000000  0.5363520000000 1.0
C      1  0.4666360000000  0.5630360000000  0.4291400000000 1.0
C      1  0.4248340000000  0.5341720000000  0.4695900000000 1.0
C      1  0.4539890000000  0.5457140000000  0.4559390000000 1.0
C      1  0.4644100000000  0.4663470000000  0.4575670000000 1.0
C      1  0.5749110000000  0.4756360000000  0.5513910000000 1.0
C      1  0.4256270000000  0.5468310000000  0.5511200000000 1.0
C      1  0.4515250000000  0.5021680000000  0.5647850000000 1.0
C      1  0.4421660000000  0.4517150000000  0.4943590000000 1.0
C      1  0.3981070000000  0.4708740000000  0.4920440000000 1.0
C      1  0.4469150000000  0.4247990000000  0.5529220000000 1.0
C      1  0.5418270000000  0.4974280000000  0.5554110000000 1.0
C      1  0.4769990000000  0.4389330000000  0.5601690000000 1.0
C      1  0.5574220000000  0.4621340000000  0.5772470000000 1.0
END
