TITL C-2848504-8560-338 0.0282566591412536 125000 -811.114822496548 0 0 150 (C1) n - 1
REM
REM in /home/bkarasulu/work/CARBON/AIRSS/Generating-Clusters/AIREBO/with-SteepDescent/Only-C1/SD-CG-opt/Try1-1.4A-POS3A/HFTN-CG
REM
REM
REM
REM
REM
REM ./C.cell (11c1c37f851c82e70ff6c80c92926a4b)
REM
REM compiler GCC version 9.2.1 20190827 (Red Hat 9.2.1-1)
REM options -cpp -mtune=generic -march=x86-64 -g -O0 -fpre-include=/usr/include/finclude/math-vector-fortran.h
REM seed -1319336261 1407080458 -844040855 -1106107857 545456959 1628848710 1600696539 553910596 432833935 -1881837328 -1139857489 1658401796 -1668271563 -599140350 -704253796 1047667079 1164174824 -2073675504 1102170079 1225314821 -810452029 -1717573636 -905319949 -617209959 -1146289594 -2043814312 76246269 166289971 1617608633 -1682302799 -437811253 -811015862 1460705590
REM
CELL 1.54180   50.00000   50.00000   50.00000   90.00000   90.00000   90.00000
LATT -1
SFAC C  
C      1  0.4014750000000  0.5407750000000  0.4966650000000 1.0
C      1  0.5534890000000  0.5189100000000  0.5007970000000 1.0
C      1  0.4664650000000  0.4433010000000  0.5311730000000 1.0
C      1  0.4310410000000  0.5343030000000  0.4706380000000 1.0
C      1  0.5789060000000  0.4803480000000  0.5059750000000 1.0
C      1  0.4013380000000  0.5234660000000  0.4673580000000 1.0
C      1  0.4999940000000  0.4116440000000  0.5656650000000 1.0
C      1  0.5503340000000  0.4620440000000  0.5769620000000 1.0
C      1  0.4760300000000  0.5078110000000  0.5000760000000 1.0
C      1  0.5536360000000  0.5883790000000  0.4636320000000 1.0
C      1  0.4483830000000  0.4121450000000  0.4732870000000 1.0
C      1  0.4861560000000  0.4235240000000  0.4780660000000 1.0
C      1  0.5556570000000  0.4893160000000  0.4593410000000 1.0
C      1  0.5055410000000  0.4463220000000  0.4918060000000 1.0
C      1  0.4631010000000  0.5165980000000  0.6064540000000 1.0
C      1  0.4286670000000  0.5854450000000  0.5205870000000 1.0
C      1  0.5861140000000  0.5315810000000  0.4560480000000 1.0
C      1  0.5335560000000  0.5059510000000  0.4791440000000 1.0
C      1  0.4163990000000  0.4884410000000  0.4355070000000 1.0
C      1  0.5288530000000  0.5195090000000  0.5512900000000 1.0
C      1  0.5542920000000  0.5119600000000  0.5340440000000 1.0
C      1  0.4473870000000  0.5533760000000  0.5070710000000 1.0
C      1  0.4520890000000  0.5801210000000  0.4588250000000 1.0
C      1  0.4242970000000  0.4726170000000  0.5320160000000 1.0
C      1  0.5254160000000  0.4564590000000  0.4110290000000 1.0
C      1  0.4594840000000  0.5543450000000  0.5742360000000 1.0
C      1  0.5200230000000  0.5108290000000  0.4413550000000 1.0
C      1  0.4477660000000  0.4693980000000  0.5076170000000 1.0
C      1  0.5790630000000  0.5329360000000  0.4850130000000 1.0
C      1  0.4927500000000  0.5068450000000  0.4503220000000 1.0
C      1  0.5200250000000  0.4355920000000  0.4383700000000 1.0
C      1  0.5672130000000  0.5269440000000  0.4129720000000 1.0
C      1  0.5394120000000  0.3933700000000  0.4591560000000 1.0
C      1  0.4998950000000  0.4935320000000  0.5654070000000 1.0
C      1  0.4505930000000  0.5279450000000  0.4474100000000 1.0
C      1  0.5006690000000  0.5719890000000  0.4812880000000 1.0
C      1  0.4965990000000  0.5402580000000  0.5742650000000 1.0
C      1  0.4900250000000  0.4254000000000  0.4267140000000 1.0
C      1  0.4709850000000  0.5987680000000  0.4568620000000 1.0
C      1  0.5650970000000  0.4806850000000  0.5598960000000 1.0
C      1  0.4117820000000  0.5245170000000  0.5455940000000 1.0
C      1  0.5279170000000  0.5860470000000  0.4415930000000 1.0
C      1  0.5573160000000  0.5691900000000  0.4360440000000 1.0
C      1  0.5517770000000  0.5550270000000  0.5795860000000 1.0
C      1  0.5419180000000  0.4234550000000  0.5982720000000 1.0
C      1  0.4933220000000  0.5913690000000  0.5270580000000 1.0
C      1  0.5855680000000  0.5583360000000  0.5490750000000 1.0
C      1  0.4264430000000  0.4781390000000  0.5578750000000 1.0
C      1  0.5771330000000  0.5464710000000  0.4341250000000 1.0
C      1  0.4904470000000  0.5229550000000  0.6026630000000 1.0
C      1  0.5057530000000  0.4093090000000  0.5369220000000 1.0
C      1  0.5384760000000  0.3679400000000  0.4572280000000 1.0
C      1  0.5883250000000  0.4231660000000  0.4534880000000 1.0
C      1  0.5665560000000  0.4356230000000  0.4711410000000 1.0
C      1  0.5185940000000  0.4760020000000  0.4851120000000 1.0
C      1  0.4102300000000  0.5710150000000  0.5097110000000 1.0
C      1  0.5206260000000  0.4700660000000  0.5337080000000 1.0
C      1  0.5035570000000  0.5061070000000  0.5364780000000 1.0
C      1  0.4702850000000  0.4027630000000  0.4975690000000 1.0
C      1  0.4892010000000  0.4628460000000  0.5570330000000 1.0
C      1  0.5183450000000  0.5157740000000  0.5834130000000 1.0
C      1  0.3977970000000  0.5073380000000  0.4460840000000 1.0
C      1  0.4952360000000  0.4634070000000  0.3973860000000 1.0
C      1  0.6062880000000  0.5295640000000  0.5140760000000 1.0
C      1  0.5674830000000  0.5094070000000  0.5781270000000 1.0
C      1  0.5050340000000  0.5832170000000  0.5546300000000 1.0
C      1  0.4943990000000  0.4775980000000  0.4644230000000 1.0
C      1  0.4830760000000  0.5450130000000  0.4874500000000 1.0
C      1  0.5487330000000  0.5817670000000  0.4919430000000 1.0
C      1  0.5369600000000  0.5432620000000  0.5155830000000 1.0
C      1  0.4620330000000  0.5788600000000  0.5223610000000 1.0
C      1  0.5569320000000  0.5458000000000  0.5410840000000 1.0
C      1  0.4902600000000  0.3906260000000  0.5212980000000 1.0
C      1  0.4872490000000  0.5703120000000  0.5721120000000 1.0
C      1  0.4809900000000  0.5356320000000  0.4548300000000 1.0
C      1  0.4670930000000  0.4843840000000  0.4835550000000 1.0
C      1  0.3942220000000  0.5022730000000  0.5355990000000 1.0
C      1  0.4901980000000  0.6104800000000  0.4786620000000 1.0
C      1  0.5584320000000  0.4455770000000  0.5969690000000 1.0
C      1  0.5940690000000  0.4942530000000  0.5714110000000 1.0
C      1  0.5912800000000  0.5521600000000  0.5216140000000 1.0
C      1  0.5098170000000  0.5370000000000  0.5294530000000 1.0
C      1  0.5935160000000  0.4774260000000  0.4556650000000 1.0
C      1  0.4060590000000  0.4424990000000  0.5142240000000 1.0
C      1  0.4678560000000  0.4913540000000  0.4378490000000 1.0
C      1  0.5340200000000  0.5345750000000  0.4607900000000 1.0
C      1  0.3969780000000  0.4752880000000  0.5150840000000 1.0
C      1  0.4391810000000  0.4916260000000  0.4181490000000 1.0
C      1  0.5394390000000  0.4870640000000  0.4033290000000 1.0
C      1  0.4222380000000  0.4616200000000  0.4854440000000 1.0
C      1  0.4019360000000  0.5075150000000  0.5039910000000 1.0
C      1  0.4855870000000  0.5331630000000  0.4211880000000 1.0
C      1  0.4685120000000  0.4628450000000  0.5951780000000 1.0
C      1  0.4843450000000  0.4380840000000  0.5785780000000 1.0
C      1  0.5434760000000  0.5812710000000  0.5255860000000 1.0
C      1  0.5744760000000  0.4358380000000  0.5023140000000 1.0
C      1  0.5509740000000  0.4452780000000  0.5209190000000 1.0
C      1  0.5850990000000  0.5044800000000  0.4505870000000 1.0
C      1  0.4905090000000  0.4907000000000  0.3931940000000 1.0
C      1  0.5720750000000  0.4665840000000  0.4770810000000 1.0
C      1  0.4336190000000  0.4339440000000  0.5285830000000 1.0
C      1  0.5125690000000  0.5357090000000  0.4070880000000 1.0
C      1  0.5097270000000  0.4669200000000  0.4393250000000 1.0
C      1  0.4698340000000  0.4210320000000  0.4483440000000 1.0
C      1  0.4448040000000  0.4977810000000  0.4620160000000 1.0
C      1  0.5791910000000  0.5642960000000  0.5765470000000 1.0
C      1  0.5170540000000  0.5828490000000  0.5042460000000 1.0
C      1  0.5488570000000  0.5276630000000  0.5858270000000 1.0
C      1  0.5975650000000  0.4527470000000  0.5076840000000 1.0
C      1  0.5362650000000  0.4855930000000  0.4355780000000 1.0
C      1  0.5341630000000  0.4324100000000  0.4943000000000 1.0
C      1  0.5375940000000  0.4240350000000  0.4622550000000 1.0
C      1  0.4432720000000  0.4707450000000  0.5760370000000 1.0
C      1  0.5110250000000  0.4916020000000  0.5108070000000 1.0
C      1  0.4249270000000  0.5356740000000  0.5205820000000 1.0
C      1  0.5150620000000  0.5058940000000  0.3934290000000 1.0
C      1  0.4715470000000  0.4526750000000  0.4721190000000 1.0
C      1  0.5345480000000  0.5682610000000  0.5534140000000 1.0
C      1  0.5660110000000  0.5567340000000  0.5037670000000 1.0
C      1  0.5397350000000  0.5344950000000  0.4269500000000 1.0
C      1  0.5915130000000  0.5070950000000  0.5032810000000 1.0
C      1  0.4214250000000  0.4277060000000  0.4877450000000 1.0
C      1  0.5290610000000  0.4195140000000  0.5253460000000 1.0
C      1  0.4282630000000  0.4685090000000  0.4569390000000 1.0
C      1  0.4593860000000  0.5066720000000  0.5480590000000 1.0
C      1  0.4674310000000  0.5076160000000  0.4079900000000 1.0
C      1  0.4839140000000  0.5528450000000  0.5205530000000 1.0
C      1  0.4516110000000  0.5155530000000  0.5161990000000 1.0
C      1  0.4314490000000  0.5172910000000  0.5642800000000 1.0
C      1  0.5295000000000  0.5649350000000  0.4157810000000 1.0
C      1  0.4837500000000  0.4371390000000  0.4026260000000 1.0
C      1  0.4529120000000  0.4385850000000  0.4941800000000 1.0
C      1  0.4586920000000  0.4890170000000  0.6145720000000 1.0
C      1  0.4936830000000  0.6152280000000  0.5043540000000 1.0
C      1  0.5046520000000  0.5190900000000  0.4918340000000 1.0
C      1  0.5222220000000  0.4265300000000  0.5786000000000 1.0
C      1  0.4304350000000  0.5095580000000  0.4909470000000 1.0
C      1  0.5216740000000  0.4565070000000  0.5648730000000 1.0
C      1  0.4456310000000  0.5314530000000  0.5871120000000 1.0
C      1  0.4699050000000  0.4912430000000  0.5764790000000 1.0
C      1  0.4450470000000  0.5310220000000  0.4183810000000 1.0
C      1  0.4661400000000  0.4757750000000  0.5355280000000 1.0
C      1  0.4525180000000  0.5556130000000  0.4769340000000 1.0
C      1  0.4432710000000  0.4421400000000  0.4460800000000 1.0
C      1  0.4993060000000  0.4460180000000  0.5224750000000 1.0
C      1  0.5652180000000  0.5045880000000  0.3976680000000 1.0
C      1  0.5030670000000  0.5896270000000  0.4549570000000 1.0
C      1  0.4568800000000  0.4124410000000  0.5241210000000 1.0
C      1  0.4753150000000  0.5367280000000  0.5492460000000 1.0
C      1  0.5531150000000  0.4784680000000  0.5281340000000 1.0
END
