TITL C-2847950-6905-206 -0.00245048110247357 125000 -295.18468745991 0 0 54 (C1) n - 1
REM
REM in /home/bkarasulu/work/CARBON/AIRSS/Generating-Clusters/AIREBO/with-SteepDescent/Only-C1/SD-CG-opt/Try1-1.4A-POS3A/HFTN-CG
REM
REM
REM
REM
REM
REM ./C.cell (11c1c37f851c82e70ff6c80c92926a4b)
REM
REM compiler GCC version 9.2.1 20190827 (Red Hat 9.2.1-1)
REM options -cpp -mtune=generic -march=x86-64 -g -O0 -fpre-include=/usr/include/finclude/math-vector-fortran.h
REM seed 1375993583 1372163101 1258005960 1177430670 -833009654 7083194 -1980693346 -779506095 -2088870404 -1477298084 -1849297042 -818906831 1831889641 -1965333544 1739214203 -735698803 528305048 1790989779 -849644285 -1248638719 708664927 333136262 -886942984 -1534366923 278190906 2110336813 1874937871 -564216963 987629207 1169086064 334185953 1671239976 900704180
REM
CELL 1.54180   50.00000   50.00000   50.00000   90.00000   90.00000   90.00000
LATT -1
SFAC C  
C      1  0.5555460000000  0.5321830000000  0.4414000000000 1.0
C      1  0.5248270000000  0.5107180000000  0.4908230000000 1.0
C      1  0.5491920000000  0.5249900000000  0.5337810000000 1.0
C      1  0.5069660000000  0.5641250000000  0.4510490000000 1.0
C      1  0.4124210000000  0.4859820000000  0.4945250000000 1.0
C      1  0.4433760000000  0.5275450000000  0.5037880000000 1.0
C      1  0.5099480000000  0.4678700000000  0.5320850000000 1.0
C      1  0.5410140000000  0.5122780000000  0.5581930000000 1.0
C      1  0.5087640000000  0.5071680000000  0.4336370000000 1.0
C      1  0.5589800000000  0.4944890000000  0.4784260000000 1.0
C      1  0.4941740000000  0.4635000000000  0.5619020000000 1.0
C      1  0.4404990000000  0.4425450000000  0.5285980000000 1.0
C      1  0.5020570000000  0.4348770000000  0.4809690000000 1.0
C      1  0.4772350000000  0.5541100000000  0.4563060000000 1.0
C      1  0.5232590000000  0.4785780000000  0.4445060000000 1.0
C      1  0.4982810000000  0.4972630000000  0.5411510000000 1.0
C      1  0.4614060000000  0.4805820000000  0.4830500000000 1.0
C      1  0.5288430000000  0.5464560000000  0.4502690000000 1.0
C      1  0.5542240000000  0.4521120000000  0.4978610000000 1.0
C      1  0.4800900000000  0.4543810000000  0.5229890000000 1.0
C      1  0.5106470000000  0.5907910000000  0.4479240000000 1.0
C      1  0.4910830000000  0.5342400000000  0.5541400000000 1.0
C      1  0.5685190000000  0.5122110000000  0.4602490000000 1.0
C      1  0.5423140000000  0.5035780000000  0.4313430000000 1.0
C      1  0.5051350000000  0.4547090000000  0.4377680000000 1.0
C      1  0.5522350000000  0.5057450000000  0.5089480000000 1.0
C      1  0.5276760000000  0.4455410000000  0.4848860000000 1.0
C      1  0.5554040000000  0.4736620000000  0.5161840000000 1.0
C      1  0.4916370000000  0.5273730000000  0.4475560000000 1.0
C      1  0.5339440000000  0.4760540000000  0.4732270000000 1.0
C      1  0.4880940000000  0.4457920000000  0.4585140000000 1.0
C      1  0.5017660000000  0.5520720000000  0.5307290000000 1.0
C      1  0.4418050000000  0.5207340000000  0.5358360000000 1.0
C      1  0.5093190000000  0.5366620000000  0.5030520000000 1.0
C      1  0.4619560000000  0.4235010000000  0.5222600000000 1.0
C      1  0.4942140000000  0.5110530000000  0.5162370000000 1.0
C      1  0.5489750000000  0.4851820000000  0.5614070000000 1.0
C      1  0.5265420000000  0.5144830000000  0.4616870000000 1.0
C      1  0.4861370000000  0.4942820000000  0.4896840000000 1.0
C      1  0.5137000000000  0.4799980000000  0.5003050000000 1.0
C      1  0.4539610000000  0.5566350000000  0.5166830000000 1.0
C      1  0.4888980000000  0.5239670000000  0.4793780000000 1.0
C      1  0.5133590000000  0.5153470000000  0.5619680000000 1.0
C      1  0.4396740000000  0.4926810000000  0.5025500000000 1.0
C      1  0.4704240000000  0.4868790000000  0.5540930000000 1.0
C      1  0.4528830000000  0.4742020000000  0.5278700000000 1.0
C      1  0.5356530000000  0.5491540000000  0.5301630000000 1.0
C      1  0.4667360000000  0.5199410000000  0.5503800000000 1.0
C      1  0.4614680000000  0.5404360000000  0.4810080000000 1.0
C      1  0.4857440000000  0.4300540000000  0.5025310000000 1.0
C      1  0.4644390000000  0.4604320000000  0.4652510000000 1.0
C      1  0.5410560000000  0.4686690000000  0.5398870000000 1.0
C      1  0.4756780000000  0.5674660000000  0.5227510000000 1.0
C      1  0.4278210000000  0.4947190000000  0.5382450000000 1.0
END
