TITL C-2847955-7945-622 -0.00892054691423422 125000 -155.716527492266 0 0 29 (C1) n - 1
REM
REM in /home/bkarasulu/work/CARBON/AIRSS/Generating-Clusters/AIREBO/with-SteepDescent/Only-C1/SD-CG-opt/Try1-1.4A-POS3A/HFTN-CG
REM
REM
REM
REM
REM
REM ./C.cell (11c1c37f851c82e70ff6c80c92926a4b)
REM
REM compiler GCC version 9.2.1 20190827 (Red Hat 9.2.1-1)
REM options -cpp -mtune=generic -march=x86-64 -g -O0 -fpre-include=/usr/include/finclude/math-vector-fortran.h
REM seed 1217664737 293122580 490865243 890785083 -830232425 -1448432263 -580302689 874758711 1443845729 1358932760 -554917117 -983728461 -720030407 435067959 252621208 -987801051 1633425925 -1682659454 -471164176 1716247236 487973896 -2079358884 362021288 -788617682 1108380642 -1476354801 303225858 -1602715942 -183742763 2108775575 1339821970 742144698 -321304975
REM
CELL 1.54180   50.00000   50.00000   50.00000   90.00000   90.00000   90.00000
LATT -1
SFAC C  
C      1  0.5395720000000  0.5063930000000  0.5073080000000 1.0
C      1  0.4922250000000  0.5214980000000  0.4973440000000 1.0
C      1  0.5092320000000  0.5088630000000  0.5555860000000 1.0
C      1  0.4577820000000  0.4887800000000  0.4595760000000 1.0
C      1  0.4807980000000  0.4715690000000  0.5336780000000 1.0
C      1  0.5036660000000  0.4713430000000  0.4882200000000 1.0
C      1  0.5368440000000  0.4830040000000  0.4827790000000 1.0
C      1  0.5552970000000  0.4614230000000  0.4835130000000 1.0
C      1  0.5394230000000  0.5255460000000  0.5310620000000 1.0
C      1  0.5050880000000  0.5459180000000  0.5039990000000 1.0
C      1  0.4973290000000  0.5356670000000  0.5503060000000 1.0
C      1  0.5394840000000  0.5117710000000  0.5578820000000 1.0
C      1  0.4698220000000  0.5395750000000  0.5450950000000 1.0
C      1  0.4861860000000  0.4913550000000  0.4451590000000 1.0
C      1  0.4604240000000  0.4578470000000  0.4508540000000 1.0
C      1  0.4547790000000  0.5318050000000  0.5231410000000 1.0
C      1  0.5572870000000  0.5142890000000  0.4810280000000 1.0
C      1  0.4538370000000  0.4918580000000  0.4899200000000 1.0
C      1  0.5172610000000  0.5444750000000  0.5298440000000 1.0
C      1  0.4648420000000  0.5183080000000  0.5004830000000 1.0
C      1  0.5102760000000  0.5039450000000  0.4392450000000 1.0
C      1  0.5325030000000  0.4981050000000  0.4541550000000 1.0
C      1  0.4266310000000  0.4881100000000  0.4969260000000 1.0
C      1  0.4644680000000  0.4464430000000  0.5246160000000 1.0
C      1  0.5732010000000  0.5196800000000  0.4617620000000 1.0
C      1  0.5008690000000  0.4897470000000  0.5363330000000 1.0
C      1  0.4894700000000  0.4648630000000  0.4617050000000 1.0
C      1  0.4726140000000  0.4701200000000  0.5014200000000 1.0
C      1  0.5087910000000  0.4977000000000  0.5070610000000 1.0
END
