TITL C-2848506-1665-15 0.00118596724701466 125000 -490.039768586435 0 0 91 (C1) n - 1
REM
REM in /home/bkarasulu/work/CARBON/AIRSS/Generating-Clusters/AIREBO/with-SteepDescent/Only-C1/SD-CG-opt/Try1-1.4A-POS3A/HFTN-CG
REM
REM
REM
REM
REM
REM ./C.cell (11c1c37f851c82e70ff6c80c92926a4b)
REM
REM compiler GCC version 9.2.1 20190827 (Red Hat 9.2.1-1)
REM options -cpp -mtune=generic -march=x86-64 -g -O0 -fpre-include=/usr/include/finclude/math-vector-fortran.h
REM seed 1781379773 204148015 -1721381679 -1287533268 -403709316 -1527283804 -245198062 -948573933 2044487475 -1047301307 -1331183350 -430215728 283468420 -1616055173 -1145947119 131864116 -1242442792 -529578371 606890215 -58696187 -246297817 -8087400 -2125219402 -2056032858 1125647323 2038435916 -588083179 116432954 459210143 -748083127 -2099413729 -745678404 560147911
REM
CELL 1.54180   50.00000   50.00000   50.00000   90.00000   90.00000   90.00000
LATT -1
SFAC C  
C      1  0.5298240000000  0.5035130000000  0.5121740000000 1.0
C      1  0.5124040000000  0.4450890000000  0.5052910000000 1.0
C      1  0.4107790000000  0.5444160000000  0.5068740000000 1.0
C      1  0.4461490000000  0.5374250000000  0.4431790000000 1.0
C      1  0.5521040000000  0.4616900000000  0.5390460000000 1.0
C      1  0.4189010000000  0.4707820000000  0.4843890000000 1.0
C      1  0.5337350000000  0.5084600000000  0.4190260000000 1.0
C      1  0.5515910000000  0.5138530000000  0.5361750000000 1.0
C      1  0.4825260000000  0.4819780000000  0.5283940000000 1.0
C      1  0.4734140000000  0.4610480000000  0.5723330000000 1.0
C      1  0.4023370000000  0.5164280000000  0.5070240000000 1.0
C      1  0.4951230000000  0.5481580000000  0.4259520000000 1.0
C      1  0.5146450000000  0.4894880000000  0.4102300000000 1.0
C      1  0.5104990000000  0.5603660000000  0.4517750000000 1.0
C      1  0.4701390000000  0.5100370000000  0.4865140000000 1.0
C      1  0.4927200000000  0.5348550000000  0.5082850000000 1.0
C      1  0.6006250000000  0.5115330000000  0.4812380000000 1.0
C      1  0.5200610000000  0.4593230000000  0.4752970000000 1.0
C      1  0.4892850000000  0.5201050000000  0.5377850000000 1.0
C      1  0.5128340000000  0.5214990000000  0.5776580000000 1.0
C      1  0.5052140000000  0.5164700000000  0.4685300000000 1.0
C      1  0.5195850000000  0.4837900000000  0.5666260000000 1.0
C      1  0.5107200000000  0.3962460000000  0.5221270000000 1.0
C      1  0.4874510000000  0.4389640000000  0.5561740000000 1.0
C      1  0.4963850000000  0.5472460000000  0.4799830000000 1.0
C      1  0.4342870000000  0.4738350000000  0.5323760000000 1.0
C      1  0.5566470000000  0.4970910000000  0.4292270000000 1.0
C      1  0.4207230000000  0.5015110000000  0.4202880000000 1.0
C      1  0.4658800000000  0.5074070000000  0.5192240000000 1.0
C      1  0.5942230000000  0.4940050000000  0.5345940000000 1.0
C      1  0.5102840000000  0.4956130000000  0.5388620000000 1.0
C      1  0.4624020000000  0.4673650000000  0.5441130000000 1.0
C      1  0.5514700000000  0.4773130000000  0.5106130000000 1.0
C      1  0.4368710000000  0.5428480000000  0.5682040000000 1.0
C      1  0.4878850000000  0.5778930000000  0.4701450000000 1.0
C      1  0.4597710000000  0.5682940000000  0.4830910000000 1.0
C      1  0.5294620000000  0.4581220000000  0.5525390000000 1.0
C      1  0.4870640000000  0.5764260000000  0.5573290000000 1.0
C      1  0.5636910000000  0.4449550000000  0.4491500000000 1.0
C      1  0.5138070000000  0.5831240000000  0.5371980000000 1.0
C      1  0.4729500000000  0.5333350000000  0.4343770000000 1.0
C      1  0.5285570000000  0.5472730000000  0.5671720000000 1.0
C      1  0.5684780000000  0.4362480000000  0.4877680000000 1.0
C      1  0.5002660000000  0.4976190000000  0.4964010000000 1.0
C      1  0.5353590000000  0.5314770000000  0.4638070000000 1.0
C      1  0.5115850000000  0.4195790000000  0.4737030000000 1.0
C      1  0.4979540000000  0.4216470000000  0.4438950000000 1.0
C      1  0.4320190000000  0.5088680000000  0.4447840000000 1.0
C      1  0.6044680000000  0.4846560000000  0.4724820000000 1.0
C      1  0.4963310000000  0.4934770000000  0.5877650000000 1.0
C      1  0.4683240000000  0.4667900000000  0.4617880000000 1.0
C      1  0.4233260000000  0.4981050000000  0.5132650000000 1.0
C      1  0.4411080000000  0.5594150000000  0.4586120000000 1.0
C      1  0.5297050000000  0.4916030000000  0.4706150000000 1.0
C      1  0.5051710000000  0.4668020000000  0.4233950000000 1.0
C      1  0.4703810000000  0.4218990000000  0.5090060000000 1.0
C      1  0.4505130000000  0.5565970000000  0.5332820000000 1.0
C      1  0.4613660000000  0.5756870000000  0.5153270000000 1.0
C      1  0.4362190000000  0.4609380000000  0.5024760000000 1.0
C      1  0.4900530000000  0.4670500000000  0.5022360000000 1.0
C      1  0.4659320000000  0.4942260000000  0.5732260000000 1.0
C      1  0.5552430000000  0.4774400000000  0.4546880000000 1.0
C      1  0.5402230000000  0.5096250000000  0.5613790000000 1.0
C      1  0.4950590000000  0.4633060000000  0.4523600000000 1.0
C      1  0.4823640000000  0.5882790000000  0.5278960000000 1.0
C      1  0.4587590000000  0.4952770000000  0.4608330000000 1.0
C      1  0.5779560000000  0.5154080000000  0.5251320000000 1.0
C      1  0.4198460000000  0.4930240000000  0.4695780000000 1.0
C      1  0.4385320000000  0.5278530000000  0.5196320000000 1.0
C      1  0.4304800000000  0.5216670000000  0.5520810000000 1.0
C      1  0.4636760000000  0.4497510000000  0.4906830000000 1.0
C      1  0.5149150000000  0.4393650000000  0.4272170000000 1.0
C      1  0.4610400000000  0.5401080000000  0.4972670000000 1.0
C      1  0.4824950000000  0.5110270000000  0.4485610000000 1.0
C      1  0.4673230000000  0.5528990000000  0.5627030000000 1.0
C      1  0.5248630000000  0.5545260000000  0.5411600000000 1.0
C      1  0.4382660000000  0.4952510000000  0.5586470000000 1.0
C      1  0.4810270000000  0.4286140000000  0.4704720000000 1.0
C      1  0.5321310000000  0.6031620000000  0.5327270000000 1.0
C      1  0.6185760000000  0.5308270000000  0.4754080000000 1.0
C      1  0.4975960000000  0.4177340000000  0.5116630000000 1.0
C      1  0.5336550000000  0.4364760000000  0.4540890000000 1.0
C      1  0.5774470000000  0.5171630000000  0.4967940000000 1.0
C      1  0.5799720000000  0.4702780000000  0.5304160000000 1.0
C      1  0.5095000000000  0.4441540000000  0.5391870000000 1.0
C      1  0.5866690000000  0.4666910000000  0.4619700000000 1.0
C      1  0.5234960000000  0.5325120000000  0.4336430000000 1.0
C      1  0.4814680000000  0.5238970000000  0.5672250000000 1.0
C      1  0.5218460000000  0.5355010000000  0.5205700000000 1.0
C      1  0.5494790000000  0.5142140000000  0.4865620000000 1.0
C      1  0.5525190000000  0.4621160000000  0.4850380000000 1.0
END
