TITL C-2848505-4874-405 -671.281650139615 125000 -361.431548514562 0 0 71 (C1) n - 1
REM
REM in /home/bkarasulu/work/CARBON/AIRSS/Generating-Clusters/AIREBO/with-SteepDescent/Only-C1/SD-CG-opt/Try1-1.4A-POS3A/HFTN-CG
REM
REM
REM
REM
REM
REM ./C.cell (11c1c37f851c82e70ff6c80c92926a4b)
REM
REM compiler GCC version 9.2.1 20190827 (Red Hat 9.2.1-1)
REM options -cpp -mtune=generic -march=x86-64 -g -O0 -fpre-include=/usr/include/finclude/math-vector-fortran.h
REM seed 1152744662 -1723734561 258393265 -1358884044 1130236666 1763967172 -1571371319 462462370 1122509361 -1109610764 2120714766 -459028520 -1571989777 1017877191 -1904585639 1528059386 -1605781282 -146424460 -1005606874 1683863305 98600497 44733746 1227031105 1003482255 436880568 1767860465 419793870 1919831593 -311746037 -344947732 818724758 362624973 -1532944776
REM
CELL 1.54180   50.00000   50.00000   50.00000   90.00000   90.00000   90.00000
LATT -1
SFAC C  
C      1  0.4498560000000  0.4553810000000  0.5275630000000 1.0
C      1  0.4945710000000  0.4616610000000  0.4289840000000 1.0
C      1  0.5384450000000  0.4935800000000  0.5617740000000 1.0
C      1  0.5008450000000  0.4821560000000  0.4769230000000 1.0
C      1  0.4581080000000  0.4596380000000  0.4631660000000 1.0
C      1  0.5350910000000  0.5872020000000  0.5197760000000 1.0
C      1  0.5306890000000  0.5395780000000  0.4738300000000 1.0
C      1  0.4857000000000  0.4193150000000  0.5243390000000 1.0
C      1  0.5593980000000  0.5365810000000  0.4585670000000 1.0
C      1  0.4322910000000  0.5051130000000  0.5036240000000 1.0
C      1  0.5278460000000  0.4642680000000  0.4653730000000 1.0
C      1  0.5152280000000  0.5117980000000  0.5166140000000 1.0
C      1  0.5098280000000  0.5143670000000  0.4831160000000 1.0
C      1  0.4742470000000  0.5369450000000  0.4432960000000 1.0
C      1  0.4548230000000  0.4259850000000  0.5111890000000 1.0
C      1  0.5013700000000  0.5756510000000  0.4641490000000 1.0
C      1  0.5097140000000  0.5237610000000  0.5484930000000 1.0
C      1  0.5066650000000  0.5086590000000  0.4115460000000 1.0
C      1  0.5664000000000  0.5165320000000  0.4924500000000 1.0
C      1  0.4443150000000  0.5256000000000  0.4894280000000 1.0
C      1  0.4894040000000  0.4888360000000  0.4456100000000 1.0
C      1  0.4875150000000  0.4817090000000  0.5319390000000 1.0
C      1  0.4565550000000  0.4934950000000  0.4678010000000 1.0
C      1  0.5423150000000  0.4725110000000  0.5131630000000 1.0
C      1  0.4698280000000  0.4954030000000  0.5557560000000 1.0
C      1  0.5178530000000  0.4507800000000  0.5435410000000 1.0
C      1  0.4799130000000  0.4564340000000  0.5119540000000 1.0
C      1  0.5122470000000  0.4340840000000  0.5210710000000 1.0
C      1  0.5040040000000  0.5339310000000  0.4335320000000 1.0
C      1  0.5074990000000  0.4437300000000  0.5685870000000 1.0
C      1  0.4935810000000  0.5632140000000  0.4948260000000 1.0
C      1  0.4446060000000  0.4782000000000  0.4951780000000 1.0
C      1  0.5520300000000  0.5474380000000  0.5325210000000 1.0
C      1  0.4701210000000  0.5512380000000  0.4733060000000 1.0
C      1  0.5455790000000  0.4907540000000  0.4535360000000 1.0
C      1  0.5570930000000  0.4662470000000  0.5604130000000 1.0
C      1  0.4469200000000  0.4459050000000  0.4888690000000 1.0
C      1  0.5192490000000  0.4837790000000  0.5354660000000 1.0
C      1  0.5162450000000  0.5076490000000  0.4503140000000 1.0
C      1  0.5167580000000  0.5558210000000  0.4516450000000 1.0
C      1  0.4393680000000  0.5539930000000  0.4830280000000 1.0
C      1  0.5579140000000  0.4546630000000  0.5375410000000 1.0
C      1  0.5507730000000  0.5740440000000  0.5388950000000 1.0
C      1  0.4422120000000  0.4820220000000  0.5423930000000 1.0
C      1  0.4671620000000  0.4340060000000  0.5472750000000 1.0
C      1  0.5420600000000  0.5226790000000  0.5445600000000 1.0
C      1  0.4060150000000  0.5150620000000  0.5436670000000 1.0
C      1  0.5583020000000  0.4571760000000  0.4799650000000 1.0
C      1  0.4759120000000  0.5836750000000  0.5160960000000 1.0
C      1  0.5410450000000  0.4771420000000  0.4231380000000 1.0
C      1  0.5630050000000  0.5159910000000  0.4441120000000 1.0
C      1  0.5573630000000  0.4956430000000  0.5330320000000 1.0
C      1  0.4649400000000  0.5086000000000  0.4414530000000 1.0
C      1  0.4762830000000  0.5189340000000  0.4788320000000 1.0
C      1  0.5490120000000  0.5426700000000  0.5011730000000 1.0
C      1  0.4784460000000  0.5588090000000  0.5315870000000 1.0
C      1  0.5266730000000  0.5683840000000  0.5010730000000 1.0
C      1  0.4839360000000  0.4504160000000  0.4550410000000 1.0
C      1  0.5138910000000  0.4810100000000  0.4150350000000 1.0
C      1  0.4198480000000  0.5723160000000  0.4821460000000 1.0
C      1  0.4250080000000  0.5013380000000  0.5306170000000 1.0
C      1  0.5293390000000  0.4470720000000  0.4946790000000 1.0
C      1  0.4688640000000  0.4704350000000  0.5788140000000 1.0
C      1  0.4962040000000  0.5090930000000  0.5722870000000 1.0
C      1  0.4931470000000  0.5351950000000  0.5140890000000 1.0
C      1  0.4763750000000  0.5264020000000  0.5423310000000 1.0
C      1  0.4967070000000  0.4494920000000  0.4854220000000 1.0
C      1  0.5754020000000  0.4835890000000  0.4902590000000 1.0
C      1  0.4769300000000  0.4860950000000  0.5009150000000 1.0
C      1  0.4793820000000  0.4454830000000  0.5699530000000 1.0
C      1  0.5437320000000  0.4936440000000  0.4873630000000 1.0
END
