TITL C-2847948-6138-653 0.00317436691610929 125000 -711.17994934779 0 0 129 (C1) n - 1
REM
REM in /home/bkarasulu/work/CARBON/AIRSS/Generating-Clusters/AIREBO/with-SteepDescent/Only-C1/SD-CG-opt/Try1-1.4A-POS3A/HFTN-CG
REM
REM
REM
REM
REM
REM ./C.cell (11c1c37f851c82e70ff6c80c92926a4b)
REM
REM compiler GCC version 9.2.1 20190827 (Red Hat 9.2.1-1)
REM options -cpp -mtune=generic -march=x86-64 -g -O0 -fpre-include=/usr/include/finclude/math-vector-fortran.h
REM seed 1754501603 -1407771170 1940227639 1705568949 1151760410 1272964308 -590990584 -773016373 122002470 -46721566 -1908533249 -519294161 -1571542584 617715600 -1721042050 -241827457 -1334352600 -349733176 2111000483 1926942382 -782945681 -412424615 475210269 -1765539550 510138343 60845004 573929940 639713674 -1645818882 -1631039750 -1568284620 -2094262384 -1969782237
REM
CELL 1.54180   50.00000   50.00000   50.00000   90.00000   90.00000   90.00000
LATT -1
SFAC C  
C      1  0.4503900000000  0.4711180000000  0.4417530000000 1.0
C      1  0.5752220000000  0.5591090000000  0.5091700000000 1.0
C      1  0.4714240000000  0.4395810000000  0.5239900000000 1.0
C      1  0.5895440000000  0.4749230000000  0.5130820000000 1.0
C      1  0.4715900000000  0.5912580000000  0.4999800000000 1.0
C      1  0.4879910000000  0.5702750000000  0.5707590000000 1.0
C      1  0.4599210000000  0.5615870000000  0.5735390000000 1.0
C      1  0.4518620000000  0.5588040000000  0.4665060000000 1.0
C      1  0.5868520000000  0.5296510000000  0.4848230000000 1.0
C      1  0.5776660000000  0.4445110000000  0.4709440000000 1.0
C      1  0.5503750000000  0.4449730000000  0.5121360000000 1.0
C      1  0.4249000000000  0.4620290000000  0.5395140000000 1.0
C      1  0.4926150000000  0.5176870000000  0.5987960000000 1.0
C      1  0.5505370000000  0.4598580000000  0.4261500000000 1.0
C      1  0.5092860000000  0.4464340000000  0.4076210000000 1.0
C      1  0.4137380000000  0.5626330000000  0.4974610000000 1.0
C      1  0.4711390000000  0.4679540000000  0.5051490000000 1.0
C      1  0.4712150000000  0.5638340000000  0.5353140000000 1.0
C      1  0.5698110000000  0.5267300000000  0.5791540000000 1.0
C      1  0.4251780000000  0.4926000000000  0.4424020000000 1.0
C      1  0.4102860000000  0.4900770000000  0.4697270000000 1.0
C      1  0.4873250000000  0.5294770000000  0.5664100000000 1.0
C      1  0.4749920000000  0.4381460000000  0.5804350000000 1.0
C      1  0.5456090000000  0.5271950000000  0.5296980000000 1.0
C      1  0.4812740000000  0.5527110000000  0.4520900000000 1.0
C      1  0.4628080000000  0.5293150000000  0.4175030000000 1.0
C      1  0.5638780000000  0.4687390000000  0.5646780000000 1.0
C      1  0.3911300000000  0.4925620000000  0.4897970000000 1.0
C      1  0.5103210000000  0.6155580000000  0.5118520000000 1.0
C      1  0.5100640000000  0.4279800000000  0.4325110000000 1.0
C      1  0.5302720000000  0.4668990000000  0.4077040000000 1.0
C      1  0.5057690000000  0.3995310000000  0.4487160000000 1.0
C      1  0.5697170000000  0.5182840000000  0.5499310000000 1.0
C      1  0.5194390000000  0.5990620000000  0.4904920000000 1.0
C      1  0.4419480000000  0.4265260000000  0.5365330000000 1.0
C      1  0.5119000000000  0.4582240000000  0.5300800000000 1.0
C      1  0.4609680000000  0.4849310000000  0.5750460000000 1.0
C      1  0.4997440000000  0.4845340000000  0.5129340000000 1.0
C      1  0.4695640000000  0.4906260000000  0.4611940000000 1.0
C      1  0.4811980000000  0.6030860000000  0.4552950000000 1.0
C      1  0.5090470000000  0.4586250000000  0.5758720000000 1.0
C      1  0.4185670000000  0.4198130000000  0.4713320000000 1.0
C      1  0.4983770000000  0.5527200000000  0.5213030000000 1.0
C      1  0.4516560000000  0.5288290000000  0.5340670000000 1.0
C      1  0.4182890000000  0.5244100000000  0.4485770000000 1.0
C      1  0.4202230000000  0.4943950000000  0.5326570000000 1.0
C      1  0.4580940000000  0.5522580000000  0.4992890000000 1.0
C      1  0.5177500000000  0.5102620000000  0.4344930000000 1.0
C      1  0.4619880000000  0.4969320000000  0.4898770000000 1.0
C      1  0.5166800000000  0.5257010000000  0.4893660000000 1.0
C      1  0.5589880000000  0.4812630000000  0.5169800000000 1.0
C      1  0.5200430000000  0.5266190000000  0.4062800000000 1.0
C      1  0.4007140000000  0.5050850000000  0.5116640000000 1.0
C      1  0.4907230000000  0.5717430000000  0.4874190000000 1.0
C      1  0.5208730000000  0.4536680000000  0.4995920000000 1.0
C      1  0.5971130000000  0.4766310000000  0.4413690000000 1.0
C      1  0.4733990000000  0.5229080000000  0.5011200000000 1.0
C      1  0.4263290000000  0.5271130000000  0.5108660000000 1.0
C      1  0.4640980000000  0.5134490000000  0.5848710000000 1.0
C      1  0.4340520000000  0.4450270000000  0.5114940000000 1.0
C      1  0.5536340000000  0.4913870000000  0.5456100000000 1.0
C      1  0.5209600000000  0.5668860000000  0.5000430000000 1.0
C      1  0.5544160000000  0.5384330000000  0.4636160000000 1.0
C      1  0.5156220000000  0.5133370000000  0.5215690000000 1.0
C      1  0.5023480000000  0.4030750000000  0.5250280000000 1.0
C      1  0.5577170000000  0.5241770000000  0.5008430000000 1.0
C      1  0.5155450000000  0.4557500000000  0.4605340000000 1.0
C      1  0.4912640000000  0.4520650000000  0.4827920000000 1.0
C      1  0.5133380000000  0.5476100000000  0.5693900000000 1.0
C      1  0.5245280000000  0.5014550000000  0.5521680000000 1.0
C      1  0.4930940000000  0.4904340000000  0.4293660000000 1.0
C      1  0.5382630000000  0.4386760000000  0.4456310000000 1.0
C      1  0.4913510000000  0.5407400000000  0.4807410000000 1.0
C      1  0.4696440000000  0.4154770000000  0.4835350000000 1.0
C      1  0.4210190000000  0.5125650000000  0.5606710000000 1.0
C      1  0.4271920000000  0.5377470000000  0.4785740000000 1.0
C      1  0.5531270000000  0.3968990000000  0.4633720000000 1.0
C      1  0.4824020000000  0.4155400000000  0.5089000000000 1.0
C      1  0.4200850000000  0.5399380000000  0.5401000000000 1.0
C      1  0.5251800000000  0.4354900000000  0.5682920000000 1.0
C      1  0.4513020000000  0.4810170000000  0.5292990000000 1.0
C      1  0.4855160000000  0.6056330000000  0.5220510000000 1.0
C      1  0.4852570000000  0.5235790000000  0.5329880000000 1.0
C      1  0.6022060000000  0.5504500000000  0.4385690000000 1.0
C      1  0.5474590000000  0.4293570000000  0.5360700000000 1.0
C      1  0.4624820000000  0.4493300000000  0.4648920000000 1.0
C      1  0.4303290000000  0.5514140000000  0.4412430000000 1.0
C      1  0.5863210000000  0.5410650000000  0.4579900000000 1.0
C      1  0.4816580000000  0.5491040000000  0.4243770000000 1.0
C      1  0.5301350000000  0.5173210000000  0.4592350000000 1.0
C      1  0.5279330000000  0.3870200000000  0.4570570000000 1.0
C      1  0.5956450000000  0.5449030000000  0.5207260000000 1.0
C      1  0.4476060000000  0.5325940000000  0.5676180000000 1.0
C      1  0.4710970000000  0.4705440000000  0.4172660000000 1.0
C      1  0.5189680000000  0.4181790000000  0.5419630000000 1.0
C      1  0.5027460000000  0.4799570000000  0.5523660000000 1.0
C      1  0.4807470000000  0.4679000000000  0.5907650000000 1.0
C      1  0.4347830000000  0.5046020000000  0.4790780000000 1.0
C      1  0.5075110000000  0.6037100000000  0.4649870000000 1.0
C      1  0.4867190000000  0.5890560000000  0.5455840000000 1.0
C      1  0.5133990000000  0.4938720000000  0.4867870000000 1.0
C      1  0.4314300000000  0.4809010000000  0.5674560000000 1.0
C      1  0.4400980000000  0.5651880000000  0.5459830000000 1.0
C      1  0.5607260000000  0.5044490000000  0.4600860000000 1.0
C      1  0.5471910000000  0.5547970000000  0.4915980000000 1.0
C      1  0.5084690000000  0.4879930000000  0.5930090000000 1.0
C      1  0.5436290000000  0.4641970000000  0.4771650000000 1.0
C      1  0.5219860000000  0.5170790000000  0.5816650000000 1.0
C      1  0.5256530000000  0.4942010000000  0.4065580000000 1.0
C      1  0.5041010000000  0.5495770000000  0.4066820000000 1.0
C      1  0.5502970000000  0.5216660000000  0.5941870000000 1.0
C      1  0.5767720000000  0.4507780000000  0.4987680000000 1.0
C      1  0.5242160000000  0.5481870000000  0.5403210000000 1.0
C      1  0.5469090000000  0.4954480000000  0.4891730000000 1.0
C      1  0.6053220000000  0.4950490000000  0.5252530000000 1.0
C      1  0.4741590000000  0.4939300000000  0.5454500000000 1.0
C      1  0.4646750000000  0.4335190000000  0.5567580000000 1.0
C      1  0.4829770000000  0.4534150000000  0.4001410000000 1.0
C      1  0.4841200000000  0.4250730000000  0.4546320000000 1.0
C      1  0.4601150000000  0.5914410000000  0.4713240000000 1.0
C      1  0.5549920000000  0.4422320000000  0.5632790000000 1.0
C      1  0.5013840000000  0.4837230000000  0.4606690000000 1.0
C      1  0.6194680000000  0.4819810000000  0.4302860000000 1.0
C      1  0.5952400000000  0.5201300000000  0.5344880000000 1.0
C      1  0.4373400000000  0.5654010000000  0.5141670000000 1.0
C      1  0.4650340000000  0.5067450000000  0.4314810000000 1.0
C      1  0.5595620000000  0.4241670000000  0.4609190000000 1.0
C      1  0.4400860000000  0.4322900000000  0.4839800000000 1.0
C      1  0.5670320000000  0.4716890000000  0.4534790000000 1.0
END
