TITL C-2847954-6904-357 -0.000752558304116479 125000 -209.788025166076 0 0 37 (C1) n - 1
REM
REM in /home/bkarasulu/work/CARBON/AIRSS/Generating-Clusters/AIREBO/with-SteepDescent/Only-C1/SD-CG-opt/Try1-1.4A-POS3A/HFTN-CG
REM
REM
REM
REM
REM
REM ./C.cell (11c1c37f851c82e70ff6c80c92926a4b)
REM
REM compiler GCC version 9.2.1 20190827 (Red Hat 9.2.1-1)
REM options -cpp -mtune=generic -march=x86-64 -g -O0 -fpre-include=/usr/include/finclude/math-vector-fortran.h
REM seed -1699924973 220735325 -495730614 -206062779 -655964419 -1203307730 -985122639 -328338033 655146197 1385741371 -1342499545 -792493191 -2046333836 -640713656 -300667499 890821651 -1265812373 1698670220 -1548374355 2045604893 -1235273910 6961652 -1988429615 -566550321 -1928458282 -197041760 1314989603 1849453132 -414120044 -309881979 1088948957 1836721037 1541280274
REM
CELL 1.54180   50.00000   50.00000   50.00000   90.00000   90.00000   90.00000
LATT -1
SFAC C  
C      1  0.5286910000000  0.5270820000000  0.5646750000000 1.0
C      1  0.5308770000000  0.5071280000000  0.5155460000000 1.0
C      1  0.5343200000000  0.5314370000000  0.4970290000000 1.0
C      1  0.4984410000000  0.4789230000000  0.4539490000000 1.0
C      1  0.4642800000000  0.5495410000000  0.5325760000000 1.0
C      1  0.4979270000000  0.5089240000000  0.5162830000000 1.0
C      1  0.5221360000000  0.5223600000000  0.4521010000000 1.0
C      1  0.5536590000000  0.4642000000000  0.5202970000000 1.0
C      1  0.5116740000000  0.5327760000000  0.4798570000000 1.0
C      1  0.4471940000000  0.5354860000000  0.5116210000000 1.0
C      1  0.4762730000000  0.5146660000000  0.5653550000000 1.0
C      1  0.4596610000000  0.5361590000000  0.4868480000000 1.0
C      1  0.5577610000000  0.5352300000000  0.4808510000000 1.0
C      1  0.4910820000000  0.5354730000000  0.5345940000000 1.0
C      1  0.4785600000000  0.4345160000000  0.5318290000000 1.0
C      1  0.5432210000000  0.4816850000000  0.5035270000000 1.0
C      1  0.4852860000000  0.4843890000000  0.5310850000000 1.0
C      1  0.5450080000000  0.4754570000000  0.4737510000000 1.0
C      1  0.4826140000000  0.4881880000000  0.5580820000000 1.0
C      1  0.4490110000000  0.4836540000000  0.5143420000000 1.0
C      1  0.5011510000000  0.5322300000000  0.5627810000000 1.0
C      1  0.4658280000000  0.4494240000000  0.4707660000000 1.0
C      1  0.4712580000000  0.4586200000000  0.5212840000000 1.0
C      1  0.4917690000000  0.4525480000000  0.4602450000000 1.0
C      1  0.5396280000000  0.4451330000000  0.4672270000000 1.0
C      1  0.4855240000000  0.5175900000000  0.4864560000000 1.0
C      1  0.4708860000000  0.5454690000000  0.4603590000000 1.0
C      1  0.4806060000000  0.4993000000000  0.4592270000000 1.0
C      1  0.4541410000000  0.5245330000000  0.5493430000000 1.0
C      1  0.5142410000000  0.4355830000000  0.4623460000000 1.0
C      1  0.5410830000000  0.5126980000000  0.5447960000000 1.0
C      1  0.4542560000000  0.4595970000000  0.4936200000000 1.0
C      1  0.4410520000000  0.5073670000000  0.5249680000000 1.0
C      1  0.4886970000000  0.5268810000000  0.4477230000000 1.0
C      1  0.5544190000000  0.5209700000000  0.4552340000000 1.0
C      1  0.5636510000000  0.4950290000000  0.4554840000000 1.0
C      1  0.5241350000000  0.4897550000000  0.4539420000000 1.0
END
