TITL C-2847947-6848-713 0.00183893607780009 125000 -960.997057163353 0 0 179 (C1) n - 1
REM
REM in /home/bkarasulu/work/CARBON/AIRSS/Generating-Clusters/AIREBO/with-SteepDescent/Only-C1/SD-CG-opt/Try1-1.4A-POS3A/HFTN-CG
REM
REM
REM
REM
REM
REM ./C.cell (11c1c37f851c82e70ff6c80c92926a4b)
REM
REM compiler GCC version 9.2.1 20190827 (Red Hat 9.2.1-1)
REM options -cpp -mtune=generic -march=x86-64 -g -O0 -fpre-include=/usr/include/finclude/math-vector-fortran.h
REM seed 81832979 1710737937 -1256758833 -918532964 -1485207715 -1725266729 -1398785027 -2012429570 612857506 -463188319 -203307971 757596633 616173862 -1477278627 60244387 -1341665208 976644194 319017480 1909819756 -777051896 -1448722527 1707851874 -1748470171 -1643478820 2013706549 -521116044 -1148872553 -1192014879 1495879410 -131559953 -1865757319 -1955617212 -2080885974
REM
CELL 1.54180   50.00000   50.00000   50.00000   90.00000   90.00000   90.00000
LATT -1
SFAC C  
C      1  0.5196730000000  0.5731370000000  0.5669830000000 1.0
C      1  0.5249250000000  0.4336340000000  0.4867760000000 1.0
C      1  0.3950750000000  0.5244730000000  0.5418280000000 1.0
C      1  0.4349130000000  0.4380050000000  0.5623310000000 1.0
C      1  0.4911280000000  0.4606820000000  0.5499450000000 1.0
C      1  0.5438650000000  0.5098970000000  0.6082960000000 1.0
C      1  0.5328080000000  0.4380360000000  0.5377520000000 1.0
C      1  0.4871100000000  0.5489960000000  0.4139970000000 1.0
C      1  0.5838440000000  0.5162400000000  0.4419780000000 1.0
C      1  0.5517050000000  0.4898390000000  0.4752690000000 1.0
C      1  0.4879350000000  0.4738510000000  0.3850760000000 1.0
C      1  0.4880950000000  0.4306440000000  0.4063170000000 1.0
C      1  0.5251170000000  0.4876000000000  0.5699130000000 1.0
C      1  0.5063580000000  0.5528120000000  0.5509240000000 1.0
C      1  0.5212390000000  0.5511260000000  0.4791560000000 1.0
C      1  0.5218890000000  0.4735210000000  0.4743300000000 1.0
C      1  0.4103500000000  0.5475980000000  0.5403390000000 1.0
C      1  0.4500720000000  0.5182420000000  0.6031080000000 1.0
C      1  0.5490740000000  0.5964420000000  0.5408520000000 1.0
C      1  0.5566670000000  0.4720420000000  0.5423260000000 1.0
C      1  0.5319800000000  0.5192020000000  0.4051770000000 1.0
C      1  0.5192010000000  0.5876500000000  0.5362360000000 1.0
C      1  0.4898350000000  0.4953800000000  0.4194380000000 1.0
C      1  0.5340490000000  0.5983760000000  0.4945000000000 1.0
C      1  0.6063320000000  0.4923790000000  0.5417680000000 1.0
C      1  0.5173530000000  0.5712230000000  0.5063360000000 1.0
C      1  0.5696820000000  0.5488970000000  0.5456400000000 1.0
C      1  0.5389110000000  0.5321290000000  0.5867140000000 1.0
C      1  0.4579420000000  0.5244610000000  0.5412160000000 1.0
C      1  0.4990280000000  0.5066070000000  0.6240180000000 1.0
C      1  0.4750310000000  0.5082430000000  0.4985290000000 1.0
C      1  0.5039440000000  0.4999170000000  0.4731540000000 1.0
C      1  0.5689420000000  0.5305330000000  0.4960340000000 1.0
C      1  0.5344050000000  0.5033690000000  0.5083390000000 1.0
C      1  0.6057150000000  0.5001900000000  0.5681400000000 1.0
C      1  0.4498670000000  0.5455190000000  0.5840620000000 1.0
C      1  0.5724300000000  0.4417630000000  0.5411730000000 1.0
C      1  0.4460340000000  0.4054860000000  0.4344040000000 1.0
C      1  0.4109980000000  0.4803380000000  0.4268670000000 1.0
C      1  0.4104190000000  0.5275560000000  0.4694630000000 1.0
C      1  0.4624160000000  0.5095430000000  0.4493210000000 1.0
C      1  0.4543910000000  0.5002710000000  0.5648630000000 1.0
C      1  0.4503470000000  0.5397070000000  0.4544040000000 1.0
C      1  0.4996340000000  0.4110640000000  0.4260340000000 1.0
C      1  0.4890040000000  0.5961150000000  0.4780820000000 1.0
C      1  0.5675170000000  0.4664810000000  0.4074470000000 1.0
C      1  0.5978270000000  0.5099650000000  0.4659550000000 1.0
C      1  0.4699380000000  0.5489480000000  0.5105490000000 1.0
C      1  0.5041780000000  0.5509360000000  0.4426460000000 1.0
C      1  0.4111640000000  0.4519790000000  0.5647510000000 1.0
C      1  0.5466070000000  0.5045270000000  0.4500060000000 1.0
C      1  0.5617740000000  0.4621490000000  0.5737540000000 1.0
C      1  0.4706320000000  0.4639900000000  0.4740790000000 1.0
C      1  0.5840780000000  0.5070280000000  0.5828150000000 1.0
C      1  0.5132570000000  0.5212240000000  0.4932430000000 1.0
C      1  0.4776120000000  0.4482830000000  0.5021050000000 1.0
C      1  0.4196290000000  0.4547110000000  0.5146670000000 1.0
C      1  0.4969170000000  0.6000730000000  0.4450220000000 1.0
C      1  0.5369020000000  0.4904730000000  0.4144230000000 1.0
C      1  0.4867120000000  0.4591670000000  0.5894690000000 1.0
C      1  0.4474650000000  0.5735070000000  0.5175050000000 1.0
C      1  0.5139330000000  0.4012210000000  0.5166880000000 1.0
C      1  0.5237850000000  0.4215340000000  0.5622570000000 1.0
C      1  0.4508090000000  0.4763820000000  0.5871870000000 1.0
C      1  0.4865390000000  0.5944100000000  0.5312400000000 1.0
C      1  0.5640060000000  0.5090180000000  0.5484250000000 1.0
C      1  0.4208700000000  0.5697470000000  0.4573690000000 1.0
C      1  0.5008620000000  0.4494860000000  0.4696450000000 1.0
C      1  0.5861540000000  0.4433630000000  0.4932370000000 1.0
C      1  0.5203240000000  0.5463390000000  0.5251300000000 1.0
C      1  0.4080100000000  0.4080090000000  0.4636650000000 1.0
C      1  0.5394250000000  0.3927560000000  0.4483860000000 1.0
C      1  0.4015580000000  0.4828000000000  0.4927190000000 1.0
C      1  0.4918850000000  0.5638710000000  0.4676670000000 1.0
C      1  0.5013580000000  0.5228030000000  0.4029430000000 1.0
C      1  0.4853330000000  0.4872760000000  0.5703500000000 1.0
C      1  0.4299440000000  0.5186320000000  0.5765790000000 1.0
C      1  0.3973260000000  0.4949580000000  0.5247540000000 1.0
C      1  0.4562620000000  0.6047080000000  0.4749030000000 1.0
C      1  0.5682970000000  0.4938620000000  0.4260760000000 1.0
C      1  0.4552540000000  0.5467500000000  0.4155440000000 1.0
C      1  0.4135090000000  0.4777550000000  0.4610410000000 1.0
C      1  0.4990460000000  0.5810540000000  0.4170750000000 1.0
C      1  0.5606590000000  0.5486330000000  0.4712040000000 1.0
C      1  0.4454820000000  0.5759840000000  0.4760430000000 1.0
C      1  0.4579920000000  0.4571660000000  0.4432560000000 1.0
C      1  0.5237300000000  0.5278210000000  0.4536060000000 1.0
C      1  0.4410740000000  0.4329810000000  0.5299260000000 1.0
C      1  0.5128500000000  0.4530010000000  0.5999130000000 1.0
C      1  0.5208840000000  0.4754700000000  0.4403950000000 1.0
C      1  0.4643880000000  0.4082750000000  0.5284280000000 1.0
C      1  0.5255120000000  0.4492330000000  0.4229250000000 1.0
C      1  0.4528100000000  0.5719550000000  0.5794620000000 1.0
C      1  0.4897200000000  0.4642800000000  0.4332580000000 1.0
C      1  0.5496530000000  0.4724330000000  0.5030620000000 1.0
C      1  0.6008290000000  0.5442750000000  0.5329520000000 1.0
C      1  0.4574140000000  0.4259000000000  0.4566770000000 1.0
C      1  0.5124680000000  0.5191250000000  0.5713840000000 1.0
C      1  0.5166760000000  0.4760100000000  0.5082820000000 1.0
C      1  0.4716740000000  0.4084040000000  0.4821090000000 1.0
C      1  0.5664090000000  0.5311860000000  0.5717430000000 1.0
C      1  0.5791450000000  0.5773960000000  0.5077580000000 1.0
C      1  0.5104690000000  0.3921680000000  0.4437780000000 1.0
C      1  0.4625730000000  0.4917230000000  0.3992930000000 1.0
C      1  0.4638770000000  0.4943710000000  0.5265190000000 1.0
C      1  0.5483970000000  0.5422370000000  0.4152240000000 1.0
C      1  0.4942590000000  0.5124860000000  0.4462060000000 1.0
C      1  0.5252330000000  0.5603250000000  0.4176520000000 1.0
C      1  0.3884390000000  0.5510260000000  0.4747950000000 1.0
C      1  0.4792120000000  0.5008460000000  0.6009560000000 1.0
C      1  0.4933310000000  0.5262210000000  0.5203430000000 1.0
C      1  0.4365990000000  0.4976900000000  0.4114560000000 1.0
C      1  0.5500810000000  0.5364680000000  0.5237430000000 1.0
C      1  0.4482980000000  0.5689210000000  0.4370850000000 1.0
C      1  0.4868690000000  0.5060110000000  0.3810540000000 1.0
C      1  0.5384130000000  0.4670110000000  0.3898570000000 1.0
C      1  0.5392670000000  0.5739300000000  0.4635320000000 1.0
C      1  0.4411660000000  0.4838370000000  0.4421770000000 1.0
C      1  0.4086470000000  0.5136840000000  0.5004710000000 1.0
C      1  0.5679580000000  0.4288470000000  0.5707720000000 1.0
C      1  0.6250400000000  0.5115050000000  0.4689880000000 1.0
C      1  0.4845700000000  0.5350760000000  0.5601020000000 1.0
C      1  0.5202620000000  0.3928070000000  0.4894230000000 1.0
C      1  0.4077340000000  0.5725700000000  0.4884660000000 1.0
C      1  0.5314300000000  0.5627300000000  0.5889230000000 1.0
C      1  0.5938810000000  0.4686540000000  0.4836330000000 1.0
C      1  0.4569970000000  0.4485340000000  0.5777100000000 1.0
C      1  0.5235030000000  0.5103090000000  0.6289340000000 1.0
C      1  0.6188100000000  0.4709310000000  0.4718400000000 1.0
C      1  0.5093180000000  0.4001360000000  0.5433730000000 1.0
C      1  0.5227600000000  0.4696080000000  0.5411290000000 1.0
C      1  0.5575970000000  0.4267140000000  0.4866880000000 1.0
C      1  0.4163170000000  0.4534620000000  0.4839020000000 1.0
C      1  0.5520430000000  0.4433350000000  0.4190080000000 1.0
C      1  0.4514910000000  0.4872720000000  0.6154510000000 1.0
C      1  0.5522720000000  0.4442720000000  0.5139070000000 1.0
C      1  0.5381470000000  0.4394530000000  0.5832200000000 1.0
C      1  0.5794530000000  0.4982840000000  0.4920760000000 1.0
C      1  0.5688160000000  0.5794590000000  0.5340420000000 1.0
C      1  0.5707230000000  0.5439210000000  0.4390610000000 1.0
C      1  0.5778130000000  0.5732380000000  0.4551820000000 1.0
C      1  0.4434540000000  0.5550320000000  0.5446930000000 1.0
C      1  0.4980590000000  0.3915870000000  0.4707550000000 1.0
C      1  0.4872090000000  0.4788670000000  0.5072310000000 1.0
C      1  0.4397460000000  0.4745190000000  0.5309850000000 1.0
C      1  0.4587500000000  0.4921400000000  0.4770080000000 1.0
C      1  0.5443350000000  0.4004400000000  0.4758080000000 1.0
C      1  0.4913500000000  0.4301800000000  0.5623460000000 1.0
C      1  0.5786800000000  0.4917280000000  0.5254490000000 1.0
C      1  0.5256090000000  0.5845170000000  0.4400130000000 1.0
C      1  0.4340090000000  0.5273090000000  0.4182270000000 1.0
C      1  0.4650380000000  0.5938320000000  0.4461690000000 1.0
C      1  0.4851980000000  0.5758910000000  0.5051690000000 1.0
C      1  0.5075610000000  0.4535400000000  0.3955590000000 1.0
C      1  0.5003520000000  0.5028690000000  0.5440880000000 1.0
C      1  0.5323640000000  0.4766440000000  0.5964300000000 1.0
C      1  0.5649380000000  0.4862510000000  0.5959230000000 1.0
C      1  0.5048590000000  0.6097020000000  0.5049540000000 1.0
C      1  0.5903640000000  0.5514670000000  0.5068460000000 1.0
C      1  0.4268100000000  0.5945030000000  0.5057440000000 1.0
C      1  0.4661820000000  0.5528530000000  0.4789150000000 1.0
C      1  0.5637770000000  0.5865110000000  0.4834570000000 1.0
C      1  0.4066340000000  0.5062220000000  0.5619300000000 1.0
C      1  0.5329230000000  0.5109390000000  0.5382650000000 1.0
C      1  0.4627250000000  0.4396290000000  0.4144970000000 1.0
C      1  0.4374400000000  0.5259400000000  0.5140860000000 1.0
C      1  0.4631980000000  0.5816280000000  0.5526080000000 1.0
C      1  0.4670700000000  0.4548090000000  0.5314550000000 1.0
C      1  0.5946360000000  0.4372750000000  0.5195420000000 1.0
C      1  0.4444150000000  0.4146010000000  0.5014910000000 1.0
C      1  0.4417790000000  0.5213390000000  0.4811080000000 1.0
C      1  0.4210380000000  0.5556260000000  0.5116930000000 1.0
C      1  0.6205190000000  0.4327940000000  0.5271890000000 1.0
C      1  0.4954950000000  0.4227800000000  0.4986830000000 1.0
C      1  0.4890560000000  0.4325370000000  0.4461130000000 1.0
C      1  0.4288350000000  0.4272820000000  0.4753350000000 1.0
C      1  0.4807180000000  0.4040390000000  0.5492920000000 1.0
C      1  0.4120490000000  0.4779620000000  0.5482570000000 1.0
C      1  0.4149660000000  0.5317080000000  0.4376100000000 1.0
END
