TITL C-2848503-6230-49 -0.0035925473376284 125000 -1050.27142832894 0 0 194 (C1) n - 1
REM
REM in /home/bkarasulu/work/CARBON/AIRSS/Generating-Clusters/AIREBO/with-SteepDescent/Only-C1/SD-CG-opt/Try1-1.4A-POS3A/HFTN-CG
REM
REM
REM
REM
REM
REM ./C.cell (11c1c37f851c82e70ff6c80c92926a4b)
REM
REM compiler GCC version 9.2.1 20190827 (Red Hat 9.2.1-1)
REM options -cpp -mtune=generic -march=x86-64 -g -O0 -fpre-include=/usr/include/finclude/math-vector-fortran.h
REM seed 1645428303 -2132780866 1284815494 1464534191 -1806785529 -1700664136 1920103178 997965926 1711346906 1699926710 -1673691080 1252697301 -959413872 -1821724833 801483095 -239179965 -1840841828 394413245 1058131572 1041227951 -1724382084 616159642 1832115588 -869414554 1408129437 -2001085814 -2075415478 1021506424 1944246796 -2039497384 -496147888 1583275723 -243844080
REM
CELL 1.54180   50.00000   50.00000   50.00000   90.00000   90.00000   90.00000
LATT -1
SFAC C  
C      1  0.4528560000000  0.5200670000000  0.3917200000000 1.0
C      1  0.5346220000000  0.4008100000000  0.5449360000000 1.0
C      1  0.5667910000000  0.5148610000000  0.5855020000000 1.0
C      1  0.5444260000000  0.5507420000000  0.4850040000000 1.0
C      1  0.5335730000000  0.4448590000000  0.4363640000000 1.0
C      1  0.4644200000000  0.5878410000000  0.5629380000000 1.0
C      1  0.4540000000000  0.6032940000000  0.5356430000000 1.0
C      1  0.5783580000000  0.4260390000000  0.5131220000000 1.0
C      1  0.5218770000000  0.5897890000000  0.5230600000000 1.0
C      1  0.4210890000000  0.4764240000000  0.5221370000000 1.0
C      1  0.4732300000000  0.4638970000000  0.5002720000000 1.0
C      1  0.4528590000000  0.5667850000000  0.4163980000000 1.0
C      1  0.4533250000000  0.4128520000000  0.4770990000000 1.0
C      1  0.5378110000000  0.5225940000000  0.6015490000000 1.0
C      1  0.5277450000000  0.4756640000000  0.5624730000000 1.0
C      1  0.4875580000000  0.3864280000000  0.5180820000000 1.0
C      1  0.3893310000000  0.4860060000000  0.4726600000000 1.0
C      1  0.4267540000000  0.5884040000000  0.5467320000000 1.0
C      1  0.4523380000000  0.4326020000000  0.4488400000000 1.0
C      1  0.5335970000000  0.4982420000000  0.4899560000000 1.0
C      1  0.5001210000000  0.3892700000000  0.4673150000000 1.0
C      1  0.4225450000000  0.4746000000000  0.4368020000000 1.0
C      1  0.4727310000000  0.5025320000000  0.4099510000000 1.0
C      1  0.4818810000000  0.4151690000000  0.5604550000000 1.0
C      1  0.3880980000000  0.4832340000000  0.5436240000000 1.0
C      1  0.4201400000000  0.4678000000000  0.5613720000000 1.0
C      1  0.4956680000000  0.5576930000000  0.5389630000000 1.0
C      1  0.3982700000000  0.4657630000000  0.4560880000000 1.0
C      1  0.5919260000000  0.5585750000000  0.5012110000000 1.0
C      1  0.5219320000000  0.5322910000000  0.5229820000000 1.0
C      1  0.4829250000000  0.5088170000000  0.5638410000000 1.0
C      1  0.4832760000000  0.4645510000000  0.4155230000000 1.0
C      1  0.5750550000000  0.5596960000000  0.5671350000000 1.0
C      1  0.4898170000000  0.4815810000000  0.5241280000000 1.0
C      1  0.5198900000000  0.6207710000000  0.4951290000000 1.0
C      1  0.5285800000000  0.4365130000000  0.4045190000000 1.0
C      1  0.4978450000000  0.4123950000000  0.4453130000000 1.0
C      1  0.4732300000000  0.5119220000000  0.6048110000000 1.0
C      1  0.5057700000000  0.5410580000000  0.4817330000000 1.0
C      1  0.4469380000000  0.4930700000000  0.5076050000000 1.0
C      1  0.5222270000000  0.5905540000000  0.4641120000000 1.0
C      1  0.5275590000000  0.4317500000000  0.5767680000000 1.0
C      1  0.5352030000000  0.5709840000000  0.4406000000000 1.0
C      1  0.5351860000000  0.4536900000000  0.4893840000000 1.0
C      1  0.4242230000000  0.5691220000000  0.4765990000000 1.0
C      1  0.4174370000000  0.4392300000000  0.4801970000000 1.0
C      1  0.5609010000000  0.5458420000000  0.5918740000000 1.0
C      1  0.4960070000000  0.4404060000000  0.4580280000000 1.0
C      1  0.4975130000000  0.5483550000000  0.4042710000000 1.0
C      1  0.4290340000000  0.5496010000000  0.4256320000000 1.0
C      1  0.4289940000000  0.5491730000000  0.4998600000000 1.0
C      1  0.4867440000000  0.5242960000000  0.3885380000000 1.0
C      1  0.4501150000000  0.4622680000000  0.5328580000000 1.0
C      1  0.6054850000000  0.5360180000000  0.5235600000000 1.0
C      1  0.4751350000000  0.5355610000000  0.4479230000000 1.0
C      1  0.3943710000000  0.5805490000000  0.4644460000000 1.0
C      1  0.4886310000000  0.4816610000000  0.6029450000000 1.0
C      1  0.5238700000000  0.5091740000000  0.4178350000000 1.0
C      1  0.5787190000000  0.5654140000000  0.4705750000000 1.0
C      1  0.4675600000000  0.4051830000000  0.5365630000000 1.0
C      1  0.4018000000000  0.4527160000000  0.5370380000000 1.0
C      1  0.4840860000000  0.6130850000000  0.5495260000000 1.0
C      1  0.5198610000000  0.4693870000000  0.5138510000000 1.0
C      1  0.5178550000000  0.4361080000000  0.6015880000000 1.0
C      1  0.5163280000000  0.4012770000000  0.4946870000000 1.0
C      1  0.5516340000000  0.5511230000000  0.4557980000000 1.0
C      1  0.4774860000000  0.4633770000000  0.4448820000000 1.0
C      1  0.5295790000000  0.5012100000000  0.5208760000000 1.0
C      1  0.4942770000000  0.5792690000000  0.4792610000000 1.0
C      1  0.5117960000000  0.3717280000000  0.5211990000000 1.0
C      1  0.5608300000000  0.5514970000000  0.4169690000000 1.0
C      1  0.5959740000000  0.4727890000000  0.5049570000000 1.0
C      1  0.4078540000000  0.4329800000000  0.5124080000000 1.0
C      1  0.5614360000000  0.4083210000000  0.4765240000000 1.0
C      1  0.5773890000000  0.4256030000000  0.4391120000000 1.0
C      1  0.5513080000000  0.5501900000000  0.5239590000000 1.0
C      1  0.5480350000000  0.5001020000000  0.5680300000000 1.0
C      1  0.5538490000000  0.5206940000000  0.4065110000000 1.0
C      1  0.5691240000000  0.4794610000000  0.4323780000000 1.0
C      1  0.4359160000000  0.4121510000000  0.5359410000000 1.0
C      1  0.4768690000000  0.4432940000000  0.5238810000000 1.0
C      1  0.5618690000000  0.5224130000000  0.4499940000000 1.0
C      1  0.5682430000000  0.4543950000000  0.4973110000000 1.0
C      1  0.5970610000000  0.5068300000000  0.5720780000000 1.0
C      1  0.4671400000000  0.4793780000000  0.5571260000000 1.0
C      1  0.5072010000000  0.5095220000000  0.6089120000000 1.0
C      1  0.4683000000000  0.5429080000000  0.5963990000000 1.0
C      1  0.4311150000000  0.4842070000000  0.5875020000000 1.0
C      1  0.4619970000000  0.4995260000000  0.4376040000000 1.0
C      1  0.5093870000000  0.4190850000000  0.3986360000000 1.0
C      1  0.4430610000000  0.5253950000000  0.4442900000000 1.0
C      1  0.4235730000000  0.4434730000000  0.4504450000000 1.0
C      1  0.5503650000000  0.4605810000000  0.4112040000000 1.0
C      1  0.4607910000000  0.5542940000000  0.5671250000000 1.0
C      1  0.5015240000000  0.4895140000000  0.4084190000000 1.0
C      1  0.4192840000000  0.5019780000000  0.4226060000000 1.0
C      1  0.4747500000000  0.3922190000000  0.4878930000000 1.0
C      1  0.4730690000000  0.6052270000000  0.4823630000000 1.0
C      1  0.5079900000000  0.4418800000000  0.5299530000000 1.0
C      1  0.4545050000000  0.5291800000000  0.4930330000000 1.0
C      1  0.5421150000000  0.4610430000000  0.5382180000000 1.0
C      1  0.6088810000000  0.5241980000000  0.4728090000000 1.0
C      1  0.4191220000000  0.5291480000000  0.5641940000000 1.0
C      1  0.4923350000000  0.5155890000000  0.5217090000000 1.0
C      1  0.4960870000000  0.5744050000000  0.5121830000000 1.0
C      1  0.5820960000000  0.4793820000000  0.5755670000000 1.0
C      1  0.4457410000000  0.5149820000000  0.5331970000000 1.0
C      1  0.5956890000000  0.4852960000000  0.5288690000000 1.0
C      1  0.4250060000000  0.4093050000000  0.4950400000000 1.0
C      1  0.5116300000000  0.5149090000000  0.3730370000000 1.0
C      1  0.5382260000000  0.3912980000000  0.5156820000000 1.0
C      1  0.5022710000000  0.6171080000000  0.4708880000000 1.0
C      1  0.4301390000000  0.5613600000000  0.5646220000000 1.0
C      1  0.5144180000000  0.5982760000000  0.5536250000000 1.0
C      1  0.4025740000000  0.6055990000000  0.5498040000000 1.0
C      1  0.5669980000000  0.4833000000000  0.5453510000000 1.0
C      1  0.5216580000000  0.4574240000000  0.4621310000000 1.0
C      1  0.5646070000000  0.4615740000000  0.5896840000000 1.0
C      1  0.5808620000000  0.4493080000000  0.4218860000000 1.0
C      1  0.5044310000000  0.4902940000000  0.5499470000000 1.0
C      1  0.6026750000000  0.4341280000000  0.4981870000000 1.0
C      1  0.4647660000000  0.5664450000000  0.5042500000000 1.0
C      1  0.5152330000000  0.4885640000000  0.4559160000000 1.0
C      1  0.5794720000000  0.5097930000000  0.4764330000000 1.0
C      1  0.3830430000000  0.4971960000000  0.5206440000000 1.0
C      1  0.5426330000000  0.4984100000000  0.4421690000000 1.0
C      1  0.4741490000000  0.5016740000000  0.4890810000000 1.0
C      1  0.5796520000000  0.5064810000000  0.4179310000000 1.0
C      1  0.4488960000000  0.3924910000000  0.5111320000000 1.0
C      1  0.6041350000000  0.5101270000000  0.5430680000000 1.0
C      1  0.4521700000000  0.5813200000000  0.4793630000000 1.0
C      1  0.5193870000000  0.5308620000000  0.4436660000000 1.0
C      1  0.4049790000000  0.4929910000000  0.4980860000000 1.0
C      1  0.4837920000000  0.5384960000000  0.5004470000000 1.0
C      1  0.5000800000000  0.5573230000000  0.4539340000000 1.0
C      1  0.4281000000000  0.5111700000000  0.4845020000000 1.0
C      1  0.5866800000000  0.5555520000000  0.4386600000000 1.0
C      1  0.5443940000000  0.5761890000000  0.5065510000000 1.0
C      1  0.5368160000000  0.4697870000000  0.5915760000000 1.0
C      1  0.5042820000000  0.4853430000000  0.4879450000000 1.0
C      1  0.4960600000000  0.5575860000000  0.5883400000000 1.0
C      1  0.4711660000000  0.6146970000000  0.5118140000000 1.0
C      1  0.4855380000000  0.5049520000000  0.4587630000000 1.0
C      1  0.5828610000000  0.5576370000000  0.5339750000000 1.0
C      1  0.4704570000000  0.4403510000000  0.4765640000000 1.0
C      1  0.4891210000000  0.4147470000000  0.4182120000000 1.0
C      1  0.3812070000000  0.5107800000000  0.4591070000000 1.0
C      1  0.4726190000000  0.5333840000000  0.5429430000000 1.0
C      1  0.4742660000000  0.4621000000000  0.5812750000000 1.0
C      1  0.4407690000000  0.5667380000000  0.5264890000000 1.0
C      1  0.5551310000000  0.5365560000000  0.5536200000000 1.0
C      1  0.5232980000000  0.5477460000000  0.5523280000000 1.0
C      1  0.6215240000000  0.5323690000000  0.4953590000000 1.0
C      1  0.5581360000000  0.5116510000000  0.5306310000000 1.0
C      1  0.5221180000000  0.5151660000000  0.5600290000000 1.0
C      1  0.5114450000000  0.4202710000000  0.5531170000000 1.0
C      1  0.4445740000000  0.4991710000000  0.5600890000000 1.0
C      1  0.5636910000000  0.4037210000000  0.5043800000000 1.0
C      1  0.6006000000000  0.4584280000000  0.4744850000000 1.0
C      1  0.5306320000000  0.5230010000000  0.4747750000000 1.0
C      1  0.5141870000000  0.4644370000000  0.6094130000000 1.0
C      1  0.5556700000000  0.5884480000000  0.4702500000000 1.0
C      1  0.5475500000000  0.4179880000000  0.4413250000000 1.0
C      1  0.4471900000000  0.5204130000000  0.5832230000000 1.0
C      1  0.4143380000000  0.5116330000000  0.4548530000000 1.0
C      1  0.3829380000000  0.6211920000000  0.5545530000000 1.0
C      1  0.5583910000000  0.4096300000000  0.5563100000000 1.0
C      1  0.5355140000000  0.5156240000000  0.3801540000000 1.0
C      1  0.4256680000000  0.5387910000000  0.5322100000000 1.0
C      1  0.4050970000000  0.4981480000000  0.5645950000000 1.0
C      1  0.4372160000000  0.4391300000000  0.5541750000000 1.0
C      1  0.5027850000000  0.5274550000000  0.5829460000000 1.0
C      1  0.4943430000000  0.5759370000000  0.5652200000000 1.0
C      1  0.5861200000000  0.4452170000000  0.5525650000000 1.0
C      1  0.4287430000000  0.5234820000000  0.4070420000000 1.0
C      1  0.4495300000000  0.4736690000000  0.4540640000000 1.0
C      1  0.4683190000000  0.4347460000000  0.4192820000000 1.0
C      1  0.5879270000000  0.4822470000000  0.4583680000000 1.0
C      1  0.4128920000000  0.5638350000000  0.4455200000000 1.0
C      1  0.5058400000000  0.5801960000000  0.4294380000000 1.0
C      1  0.4946130000000  0.4185270000000  0.5104120000000 1.0
C      1  0.5017570000000  0.6160120000000  0.5206200000000 1.0
C      1  0.5314870000000  0.4023200000000  0.4642690000000 1.0
C      1  0.5948210000000  0.5240440000000  0.4423710000000 1.0
C      1  0.5269130000000  0.5490010000000  0.4160230000000 1.0
C      1  0.4445670000000  0.4696700000000  0.4830450000000 1.0
C      1  0.5737130000000  0.4387810000000  0.4676070000000 1.0
C      1  0.4763650000000  0.5547690000000  0.4219030000000 1.0
C      1  0.4650290000000  0.4358420000000  0.5725470000000 1.0
C      1  0.5436290000000  0.6063700000000  0.4939320000000 1.0
C      1  0.4389580000000  0.4449940000000  0.5057620000000 1.0
C      1  0.5566300000000  0.4424370000000  0.5627350000000 1.0
C      1  0.5593940000000  0.4852490000000  0.4860820000000 1.0
C      1  0.5638060000000  0.5278770000000  0.5010790000000 1.0
END
