TITL C-2848509-3138-504 -0.000442882881206498 125000 -694.809709645939 0 0 126 (C1) n - 1
REM
REM in /home/bkarasulu/work/CARBON/AIRSS/Generating-Clusters/AIREBO/with-SteepDescent/Only-C1/SD-CG-opt/Try1-1.4A-POS3A/HFTN-CG
REM
REM
REM
REM
REM
REM ./C.cell (11c1c37f851c82e70ff6c80c92926a4b)
REM
REM compiler GCC version 9.2.1 20190827 (Red Hat 9.2.1-1)
REM options -cpp -mtune=generic -march=x86-64 -g -O0 -fpre-include=/usr/include/finclude/math-vector-fortran.h
REM seed -599607335 969471646 -1977053640 -534145602 1648837871 -1806075625 934338717 -1870942011 391103190 2108614743 480475593 -69098117 929353869 1748790256 892334517 -351598802 1598073298 -41697883 -492178094 605833428 -807587480 -1865097629 1841743094 -736016747 -727925571 -405579566 713803523 -1967261217 -1414389320 -1327796298 -607514392 1698457572 -1408281423
REM
CELL 1.54180   50.00000   50.00000   50.00000   90.00000   90.00000   90.00000
LATT -1
SFAC C  
C      1  0.4023550000000  0.5102100000000  0.4512250000000 1.0
C      1  0.5681390000000  0.5442090000000  0.5165910000000 1.0
C      1  0.5601480000000  0.4408260000000  0.4430420000000 1.0
C      1  0.4467100000000  0.5212460000000  0.5702760000000 1.0
C      1  0.5085680000000  0.4558530000000  0.4241920000000 1.0
C      1  0.4486470000000  0.4262340000000  0.5498130000000 1.0
C      1  0.5576240000000  0.5286450000000  0.4813160000000 1.0
C      1  0.5407980000000  0.5857680000000  0.4874790000000 1.0
C      1  0.4684290000000  0.5811130000000  0.4691900000000 1.0
C      1  0.5402960000000  0.4428580000000  0.5405890000000 1.0
C      1  0.5611400000000  0.5222550000000  0.5383220000000 1.0
C      1  0.5243680000000  0.5268280000000  0.5614050000000 1.0
C      1  0.4749160000000  0.4858130000000  0.5868330000000 1.0
C      1  0.5026460000000  0.5597450000000  0.5249020000000 1.0
C      1  0.5039170000000  0.5584030000000  0.4746310000000 1.0
C      1  0.5349290000000  0.4486570000000  0.4338960000000 1.0
C      1  0.4829640000000  0.4829000000000  0.4527770000000 1.0
C      1  0.5113900000000  0.5211330000000  0.5304580000000 1.0
C      1  0.4272920000000  0.4611970000000  0.4865120000000 1.0
C      1  0.4615680000000  0.5229290000000  0.4817400000000 1.0
C      1  0.5160600000000  0.5999180000000  0.4878000000000 1.0
C      1  0.4356570000000  0.4757850000000  0.3796440000000 1.0
C      1  0.5564870000000  0.4710830000000  0.5306740000000 1.0
C      1  0.5559150000000  0.5431190000000  0.5807010000000 1.0
C      1  0.4924820000000  0.4197090000000  0.5230930000000 1.0
C      1  0.4128320000000  0.5070980000000  0.5041760000000 1.0
C      1  0.4204780000000  0.4842710000000  0.4637930000000 1.0
C      1  0.4787960000000  0.4019530000000  0.4830930000000 1.0
C      1  0.4969470000000  0.4626250000000  0.4718990000000 1.0
C      1  0.4895040000000  0.5163790000000  0.4338080000000 1.0
C      1  0.4885700000000  0.5927960000000  0.4870610000000 1.0
C      1  0.4174740000000  0.5650790000000  0.5168490000000 1.0
C      1  0.5965170000000  0.4712960000000  0.4824620000000 1.0
C      1  0.4510410000000  0.5519170000000  0.4697590000000 1.0
C      1  0.5187370000000  0.5700530000000  0.4536270000000 1.0
C      1  0.4647920000000  0.4484270000000  0.4429850000000 1.0
C      1  0.6047250000000  0.4898270000000  0.5097700000000 1.0
C      1  0.5151950000000  0.5613720000000  0.4285250000000 1.0
C      1  0.5338360000000  0.4738170000000  0.5839410000000 1.0
C      1  0.5086570000000  0.5305200000000  0.5913410000000 1.0
C      1  0.5284690000000  0.5443120000000  0.5111930000000 1.0
C      1  0.5138370000000  0.5285190000000  0.4848740000000 1.0
C      1  0.4694610000000  0.5835290000000  0.5497000000000 1.0
C      1  0.5771810000000  0.4866400000000  0.4510620000000 1.0
C      1  0.4701260000000  0.5375450000000  0.4254640000000 1.0
C      1  0.5230700000000  0.5306180000000  0.4178820000000 1.0
C      1  0.4887490000000  0.5028650000000  0.5124280000000 1.0
C      1  0.5498890000000  0.4528600000000  0.5728000000000 1.0
C      1  0.4389000000000  0.5723130000000  0.4941350000000 1.0
C      1  0.5199430000000  0.5032410000000  0.4059200000000 1.0
C      1  0.4375130000000  0.4146460000000  0.4608340000000 1.0
C      1  0.5378680000000  0.5076270000000  0.4968470000000 1.0
C      1  0.5103630000000  0.4286220000000  0.5493080000000 1.0
C      1  0.5515160000000  0.4169300000000  0.5216550000000 1.0
C      1  0.4069780000000  0.4871200000000  0.5517630000000 1.0
C      1  0.4907940000000  0.4364030000000  0.4335400000000 1.0
C      1  0.5552450000000  0.5745200000000  0.5081520000000 1.0
C      1  0.5631270000000  0.4649020000000  0.4813890000000 1.0
C      1  0.4469660000000  0.4595320000000  0.5104560000000 1.0
C      1  0.5443820000000  0.5597500000000  0.5355920000000 1.0
C      1  0.5404310000000  0.5277870000000  0.5980240000000 1.0
C      1  0.5794210000000  0.4606160000000  0.4400910000000 1.0
C      1  0.4665860000000  0.4540780000000  0.4766370000000 1.0
C      1  0.4230990000000  0.4368240000000  0.5455440000000 1.0
C      1  0.4265360000000  0.5227670000000  0.4370470000000 1.0
C      1  0.4344560000000  0.4982580000000  0.5251290000000 1.0
C      1  0.4608040000000  0.4766700000000  0.4302000000000 1.0
C      1  0.4388830000000  0.4964020000000  0.5582100000000 1.0
C      1  0.5297100000000  0.4004640000000  0.4545800000000 1.0
C      1  0.4383320000000  0.4994680000000  0.4854150000000 1.0
C      1  0.5071090000000  0.4649970000000  0.5763480000000 1.0
C      1  0.5075330000000  0.4818720000000  0.4936530000000 1.0
C      1  0.4956830000000  0.5032220000000  0.5757660000000 1.0
C      1  0.4822090000000  0.5519580000000  0.5913700000000 1.0
C      1  0.4596900000000  0.4207810000000  0.4775030000000 1.0
C      1  0.5374640000000  0.4992910000000  0.5299310000000 1.0
C      1  0.5295950000000  0.4954980000000  0.3829930000000 1.0
C      1  0.5189680000000  0.4949520000000  0.4643740000000 1.0
C      1  0.5349340000000  0.5016260000000  0.5831620000000 1.0
C      1  0.4670930000000  0.4368820000000  0.5259640000000 1.0
C      1  0.4587410000000  0.4737840000000  0.5628650000000 1.0
C      1  0.5168710000000  0.5831050000000  0.5646500000000 1.0
C      1  0.4868300000000  0.5395840000000  0.5436630000000 1.0
C      1  0.4667430000000  0.4425960000000  0.5671720000000 1.0
C      1  0.4551580000000  0.5498170000000  0.5137820000000 1.0
C      1  0.5504880000000  0.4911220000000  0.4699190000000 1.0
C      1  0.4467580000000  0.5407010000000  0.4407760000000 1.0
C      1  0.4839630000000  0.5625230000000  0.5009110000000 1.0
C      1  0.4774570000000  0.4647990000000  0.5359400000000 1.0
C      1  0.5491530000000  0.5743270000000  0.4600300000000 1.0
C      1  0.4974930000000  0.5823460000000  0.5454870000000 1.0
C      1  0.5716840000000  0.5274750000000  0.5629510000000 1.0
C      1  0.5721780000000  0.4608150000000  0.5566620000000 1.0
C      1  0.4311850000000  0.5518440000000  0.5380800000000 1.0
C      1  0.3900600000000  0.5184830000000  0.5024120000000 1.0
C      1  0.5065210000000  0.4700660000000  0.5255230000000 1.0
C      1  0.4937960000000  0.5487130000000  0.4108950000000 1.0
C      1  0.4998070000000  0.4857030000000  0.4233690000000 1.0
C      1  0.5625740000000  0.4131760000000  0.4975990000000 1.0
C      1  0.6021730000000  0.4982780000000  0.4621990000000 1.0
C      1  0.5240830000000  0.4085840000000  0.5278690000000 1.0
C      1  0.4539620000000  0.5820030000000  0.5246980000000 1.0
C      1  0.4584170000000  0.5167910000000  0.5150340000000 1.0
C      1  0.5839420000000  0.5317280000000  0.4933550000000 1.0
C      1  0.4395410000000  0.4301330000000  0.4377920000000 1.0
C      1  0.5177750000000  0.4451920000000  0.4616240000000 1.0
C      1  0.4947510000000  0.4415530000000  0.5700000000000 1.0
C      1  0.5171050000000  0.5262080000000  0.4510850000000 1.0
C      1  0.5358750000000  0.5589470000000  0.5633520000000 1.0
C      1  0.5540170000000  0.4180550000000  0.4660550000000 1.0
C      1  0.5686710000000  0.5874920000000  0.4457860000000 1.0
C      1  0.5767710000000  0.4711600000000  0.5100960000000 1.0
C      1  0.4880760000000  0.5097140000000  0.4730720000000 1.0
C      1  0.5143240000000  0.4876010000000  0.5519760000000 1.0
C      1  0.4279620000000  0.4662110000000  0.5350740000000 1.0
C      1  0.4407590000000  0.4796510000000  0.4040910000000 1.0
C      1  0.5414310000000  0.4441600000000  0.4838470000000 1.0
C      1  0.5069960000000  0.4163230000000  0.4507570000000 1.0
C      1  0.5461240000000  0.5416880000000  0.4597230000000 1.0
C      1  0.4400050000000  0.5483050000000  0.5638810000000 1.0
C      1  0.4764210000000  0.5284230000000  0.5684990000000 1.0
C      1  0.4663780000000  0.4827760000000  0.4949840000000 1.0
C      1  0.4322340000000  0.4903290000000  0.4343540000000 1.0
C      1  0.5265830000000  0.4493200000000  0.5101480000000 1.0
C      1  0.6024210000000  0.5116700000000  0.4892580000000 1.0
C      1  0.4612890000000  0.5659530000000  0.5715830000000 1.0
END
