TITL C-2847955-7945-157 -0.00484356841471159 125000 -816.59482886319 0 0 151 (C1) n - 1
REM
REM in /home/bkarasulu/work/CARBON/AIRSS/Generating-Clusters/AIREBO/with-SteepDescent/Only-C1/SD-CG-opt/Try1-1.4A-POS3A/HFTN-CG
REM
REM
REM
REM
REM
REM ./C.cell (11c1c37f851c82e70ff6c80c92926a4b)
REM
REM compiler GCC version 9.2.1 20190827 (Red Hat 9.2.1-1)
REM options -cpp -mtune=generic -march=x86-64 -g -O0 -fpre-include=/usr/include/finclude/math-vector-fortran.h
REM seed -726109914 -1187417971 344473932 267214144 323408465 2050688377 584481590 321041198 -1461226227 1545530067 410468536 1553713252 1304882419 868088742 1804131122 469538650 1046119241 572137457 -1649990842 1672113569 -457528640 -431453234 1446911113 509649535 360509578 -1439851527 60143833 211846954 -2073816364 696548422 -787257326 -1245347792 -1124951848
REM
CELL 1.54180   50.00000   50.00000   50.00000   90.00000   90.00000   90.00000
LATT -1
SFAC C  
C      1  0.5856390000000  0.4608500000000  0.4522060000000 1.0
C      1  0.4879450000000  0.5575640000000  0.4392070000000 1.0
C      1  0.5170150000000  0.4065870000000  0.4564090000000 1.0
C      1  0.4424170000000  0.4690810000000  0.4726380000000 1.0
C      1  0.4739870000000  0.4929430000000  0.4835010000000 1.0
C      1  0.4395650000000  0.5349640000000  0.5001340000000 1.0
C      1  0.5269400000000  0.5391120000000  0.5524360000000 1.0
C      1  0.4209520000000  0.5277850000000  0.4357480000000 1.0
C      1  0.5313680000000  0.4663340000000  0.4715810000000 1.0
C      1  0.5479840000000  0.4682050000000  0.4116050000000 1.0
C      1  0.5049970000000  0.5990100000000  0.4535620000000 1.0
C      1  0.5708000000000  0.4514910000000  0.5877050000000 1.0
C      1  0.4700320000000  0.4265460000000  0.5158510000000 1.0
C      1  0.4387670000000  0.5620460000000  0.5460020000000 1.0
C      1  0.5445860000000  0.5042740000000  0.5414510000000 1.0
C      1  0.4876960000000  0.4415270000000  0.5829960000000 1.0
C      1  0.4762570000000  0.5069870000000  0.5143830000000 1.0
C      1  0.4467400000000  0.5112780000000  0.5643170000000 1.0
C      1  0.5071000000000  0.4624770000000  0.5860340000000 1.0
C      1  0.4847490000000  0.4951700000000  0.4450770000000 1.0
C      1  0.4603820000000  0.4251670000000  0.5547730000000 1.0
C      1  0.5467550000000  0.4708070000000  0.5132620000000 1.0
C      1  0.5441640000000  0.4972000000000  0.4953480000000 1.0
C      1  0.5420240000000  0.5459400000000  0.5240820000000 1.0
C      1  0.4513440000000  0.4785590000000  0.5015520000000 1.0
C      1  0.4730190000000  0.5793710000000  0.5033900000000 1.0
C      1  0.4620160000000  0.5884660000000  0.4725220000000 1.0
C      1  0.5926280000000  0.4816040000000  0.4708500000000 1.0
C      1  0.5756270000000  0.4689800000000  0.5407490000000 1.0
C      1  0.4636090000000  0.5307830000000  0.5841620000000 1.0
C      1  0.5532010000000  0.5743510000000  0.5316070000000 1.0
C      1  0.3766740000000  0.4395400000000  0.4588470000000 1.0
C      1  0.4314770000000  0.5407890000000  0.5626550000000 1.0
C      1  0.5801250000000  0.5313310000000  0.4930100000000 1.0
C      1  0.5607070000000  0.4612990000000  0.5642460000000 1.0
C      1  0.5312050000000  0.4968590000000  0.4038650000000 1.0
C      1  0.4634250000000  0.4943880000000  0.6185890000000 1.0
C      1  0.4787440000000  0.5499140000000  0.5687740000000 1.0
C      1  0.4604870000000  0.4326950000000  0.4367200000000 1.0
C      1  0.5694570000000  0.5384980000000  0.4548500000000 1.0
C      1  0.5274140000000  0.4601440000000  0.5588670000000 1.0
C      1  0.4644880000000  0.4592340000000  0.5236740000000 1.0
C      1  0.5464640000000  0.5814570000000  0.4603060000000 1.0
C      1  0.4963100000000  0.5331790000000  0.5486850000000 1.0
C      1  0.4813730000000  0.4674800000000  0.4645080000000 1.0
C      1  0.5678710000000  0.5057650000000  0.4457810000000 1.0
C      1  0.5395660000000  0.4977760000000  0.4368100000000 1.0
C      1  0.5706000000000  0.5057080000000  0.4790710000000 1.0
C      1  0.4790340000000  0.6080970000000  0.5522350000000 1.0
C      1  0.4969600000000  0.5727240000000  0.5541600000000 1.0
C      1  0.5810590000000  0.5123350000000  0.5772000000000 1.0
C      1  0.5854170000000  0.4770500000000  0.5026750000000 1.0
C      1  0.4989080000000  0.4986710000000  0.4143630000000 1.0
C      1  0.4627190000000  0.4011760000000  0.5372830000000 1.0
C      1  0.4853940000000  0.4251790000000  0.4855430000000 1.0
C      1  0.4999540000000  0.5349650000000  0.4853750000000 1.0
C      1  0.5430210000000  0.5518830000000  0.4638540000000 1.0
C      1  0.4278690000000  0.4961750000000  0.4318360000000 1.0
C      1  0.4849830000000  0.4003110000000  0.4623430000000 1.0
C      1  0.5121650000000  0.5978530000000  0.4853020000000 1.0
C      1  0.4268660000000  0.4429030000000  0.5143180000000 1.0
C      1  0.5039830000000  0.5012970000000  0.5495480000000 1.0
C      1  0.4618110000000  0.4428780000000  0.4685620000000 1.0
C      1  0.5663820000000  0.5378440000000  0.4219940000000 1.0
C      1  0.4998650000000  0.5695920000000  0.5218250000000 1.0
C      1  0.5196250000000  0.5132940000000  0.5232400000000 1.0
C      1  0.5301660000000  0.5941480000000  0.4407810000000 1.0
C      1  0.4951810000000  0.5685140000000  0.4824810000000 1.0
C      1  0.4823880000000  0.5837990000000  0.4480650000000 1.0
C      1  0.4406410000000  0.4215130000000  0.4995210000000 1.0
C      1  0.4803700000000  0.5240150000000  0.4043590000000 1.0
C      1  0.3988580000000  0.5471870000000  0.5215310000000 1.0
C      1  0.5677110000000  0.4461630000000  0.5206470000000 1.0
C      1  0.4153040000000  0.4638120000000  0.4926480000000 1.0
C      1  0.5292830000000  0.4670020000000  0.4399790000000 1.0
C      1  0.4091790000000  0.5623430000000  0.4690110000000 1.0
C      1  0.4572700000000  0.4067590000000  0.4524980000000 1.0
C      1  0.5099040000000  0.4484500000000  0.4850600000000 1.0
C      1  0.5114960000000  0.4930000000000  0.4644990000000 1.0
C      1  0.4282060000000  0.4981490000000  0.5087950000000 1.0
C      1  0.5840050000000  0.4972880000000  0.5268280000000 1.0
C      1  0.5001900000000  0.4590920000000  0.4391210000000 1.0
C      1  0.5903250000000  0.5217820000000  0.5475010000000 1.0
C      1  0.5628110000000  0.5886290000000  0.5050610000000 1.0
C      1  0.5912290000000  0.5553660000000  0.4746550000000 1.0
C      1  0.4617350000000  0.5552150000000  0.4743340000000 1.0
C      1  0.5297030000000  0.4232790000000  0.4814340000000 1.0
C      1  0.4595170000000  0.5504740000000  0.5141120000000 1.0
C      1  0.5208780000000  0.4631360000000  0.5256280000000 1.0
C      1  0.4428870000000  0.6079850000000  0.4693690000000 1.0
C      1  0.5316090000000  0.5438670000000  0.4940260000000 1.0
C      1  0.3940750000000  0.4492860000000  0.4747690000000 1.0
C      1  0.4073940000000  0.5353060000000  0.4613960000000 1.0
C      1  0.5006300000000  0.6074250000000  0.5346250000000 1.0
C      1  0.5882150000000  0.4438290000000  0.4959700000000 1.0
C      1  0.4075030000000  0.4756540000000  0.5345820000000 1.0
C      1  0.4535060000000  0.5237060000000  0.4442950000000 1.0
C      1  0.4592080000000  0.4511080000000  0.5737190000000 1.0
C      1  0.5249700000000  0.5842180000000  0.5396270000000 1.0
C      1  0.5605010000000  0.4623060000000  0.4848220000000 1.0
C      1  0.5780790000000  0.5526210000000  0.5399010000000 1.0
C      1  0.4361040000000  0.4423480000000  0.5460130000000 1.0
C      1  0.5015270000000  0.6154710000000  0.5085280000000 1.0
C      1  0.5532200000000  0.4233050000000  0.5371850000000 1.0
C      1  0.4801160000000  0.4812030000000  0.5444210000000 1.0
C      1  0.4994700000000  0.4184230000000  0.5308140000000 1.0
C      1  0.5120770000000  0.5416380000000  0.4541710000000 1.0
C      1  0.5718800000000  0.4750870000000  0.4316220000000 1.0
C      1  0.4992740000000  0.4190880000000  0.5704690000000 1.0
C      1  0.5836480000000  0.4357060000000  0.4660000000000 1.0
C      1  0.4883520000000  0.5375010000000  0.5172630000000 1.0
C      1  0.4787340000000  0.4477750000000  0.4209430000000 1.0
C      1  0.5174610000000  0.5212590000000  0.4321290000000 1.0
C      1  0.4876180000000  0.3959410000000  0.5551150000000 1.0
C      1  0.5249220000000  0.4269990000000  0.5517050000000 1.0
C      1  0.4226900000000  0.5640830000000  0.5214280000000 1.0
C      1  0.5821440000000  0.5615180000000  0.5073230000000 1.0
C      1  0.3968300000000  0.4888200000000  0.5064680000000 1.0
C      1  0.4711310000000  0.5226070000000  0.4722000000000 1.0
C      1  0.5588270000000  0.5577150000000  0.5674980000000 1.0
C      1  0.4393550000000  0.4076090000000  0.4750270000000 1.0
C      1  0.5737660000000  0.4090110000000  0.4647800000000 1.0
C      1  0.5513860000000  0.3998240000000  0.4794980000000 1.0
C      1  0.4371580000000  0.4731430000000  0.5383840000000 1.0
C      1  0.5108590000000  0.5039590000000  0.4941780000000 1.0
C      1  0.4515040000000  0.4901770000000  0.4505830000000 1.0
C      1  0.5439260000000  0.5943760000000  0.4856730000000 1.0
C      1  0.4496250000000  0.5038310000000  0.5324450000000 1.0
C      1  0.5586300000000  0.4933080000000  0.5881390000000 1.0
C      1  0.4129220000000  0.5414720000000  0.4129100000000 1.0
C      1  0.5602910000000  0.5188870000000  0.5155410000000 1.0
C      1  0.5270780000000  0.3849080000000  0.4918210000000 1.0
C      1  0.5346990000000  0.4532400000000  0.3872470000000 1.0
C      1  0.5543370000000  0.5244070000000  0.5639460000000 1.0
C      1  0.4164080000000  0.5176890000000  0.4841310000000 1.0
C      1  0.5043830000000  0.4988510000000  0.5902080000000 1.0
C      1  0.5385100000000  0.5514300000000  0.5885960000000 1.0
C      1  0.5021840000000  0.3963020000000  0.4919710000000 1.0
C      1  0.3970190000000  0.5226000000000  0.5108400000000 1.0
C      1  0.5303520000000  0.4924020000000  0.5692170000000 1.0
C      1  0.4731020000000  0.5011320000000  0.5927970000000 1.0
C      1  0.4978980000000  0.4807820000000  0.5154410000000 1.0
C      1  0.5201010000000  0.5281260000000  0.5839010000000 1.0
C      1  0.5082060000000  0.4589270000000  0.3820680000000 1.0
C      1  0.4613510000000  0.4810220000000  0.5691870000000 1.0
C      1  0.5433990000000  0.5278120000000  0.4109040000000 1.0
C      1  0.4634180000000  0.5785130000000  0.5585910000000 1.0
C      1  0.4331220000000  0.5663930000000  0.4890920000000 1.0
C      1  0.4902450000000  0.4686200000000  0.4016980000000 1.0
C      1  0.4714370000000  0.5390810000000  0.4255570000000 1.0
C      1  0.5196640000000  0.4335100000000  0.5126220000000 1.0
END
