TITL C-2847948-6138-512 -0.00277594652074871 125000 -570.075983763502 0 0 109 (C1) n - 1
REM
REM in /home/bkarasulu/work/CARBON/AIRSS/Generating-Clusters/AIREBO/with-SteepDescent/Only-C1/SD-CG-opt/Try1-1.4A-POS3A/HFTN-CG
REM
REM
REM
REM
REM
REM ./C.cell (11c1c37f851c82e70ff6c80c92926a4b)
REM
REM compiler GCC version 9.2.1 20190827 (Red Hat 9.2.1-1)
REM options -cpp -mtune=generic -march=x86-64 -g -O0 -fpre-include=/usr/include/finclude/math-vector-fortran.h
REM seed 2143483362 -809710015 1781341274 197386720 -546498386 -506532604 1010552123 -111074580 -1182579243 1224616642 -464980884 -74135274 -1700212224 1813163280 -1724394937 -2013371453 1132094216 634619186 690472159 -710857235 -713758168 -1749079213 813299491 1394458436 -956146128 -183816969 976472210 -389987433 74462124 -1483493822 743332389 1971340811 -619566730
REM
CELL 1.54180   50.00000   50.00000   50.00000   90.00000   90.00000   90.00000
LATT -1
SFAC C  
C      1  0.5822710000000  0.4723280000000  0.4906980000000 1.0
C      1  0.5111400000000  0.5628510000000  0.5550740000000 1.0
C      1  0.5080040000000  0.3954430000000  0.5431780000000 1.0
C      1  0.4417240000000  0.4602870000000  0.5420830000000 1.0
C      1  0.4216570000000  0.5050210000000  0.5191300000000 1.0
C      1  0.5423340000000  0.4815350000000  0.5634350000000 1.0
C      1  0.5534100000000  0.4410870000000  0.4454350000000 1.0
C      1  0.4538090000000  0.5828570000000  0.4781750000000 1.0
C      1  0.5064780000000  0.5419900000000  0.4185330000000 1.0
C      1  0.4600870000000  0.4898030000000  0.4303570000000 1.0
C      1  0.4629030000000  0.5209200000000  0.5274180000000 1.0
C      1  0.5022700000000  0.5273510000000  0.5296360000000 1.0
C      1  0.5212130000000  0.5922810000000  0.4743530000000 1.0
C      1  0.5018390000000  0.4828060000000  0.5409430000000 1.0
C      1  0.4588030000000  0.5516890000000  0.5164150000000 1.0
C      1  0.5208010000000  0.5008140000000  0.5192020000000 1.0
C      1  0.4650970000000  0.5662730000000  0.5449720000000 1.0
C      1  0.5498600000000  0.4506040000000  0.5601910000000 1.0
C      1  0.5453330000000  0.4799330000000  0.5082490000000 1.0
C      1  0.5698340000000  0.4765690000000  0.4531920000000 1.0
C      1  0.5617880000000  0.4989340000000  0.4853090000000 1.0
C      1  0.4993910000000  0.5322050000000  0.5613300000000 1.0
C      1  0.4781940000000  0.4804010000000  0.5730850000000 1.0
C      1  0.4901700000000  0.5458340000000  0.5053770000000 1.0
C      1  0.4732410000000  0.5863940000000  0.4393240000000 1.0
C      1  0.4888670000000  0.4613550000000  0.5099870000000 1.0
C      1  0.4888610000000  0.5802820000000  0.5439180000000 1.0
C      1  0.4299640000000  0.4921690000000  0.5435340000000 1.0
C      1  0.4904600000000  0.5671240000000  0.4788470000000 1.0
C      1  0.4958560000000  0.4554660000000  0.4309320000000 1.0
C      1  0.5559540000000  0.4476280000000  0.5069050000000 1.0
C      1  0.4474870000000  0.5495660000000  0.4745890000000 1.0
C      1  0.4286990000000  0.5579300000000  0.5083450000000 1.0
C      1  0.4691650000000  0.4444630000000  0.5297220000000 1.0
C      1  0.4529390000000  0.5403050000000  0.5538060000000 1.0
C      1  0.4711350000000  0.5576520000000  0.4525140000000 1.0
C      1  0.4856140000000  0.4408890000000  0.4838260000000 1.0
C      1  0.5384330000000  0.4399670000000  0.5328840000000 1.0
C      1  0.5046010000000  0.5792010000000  0.4503160000000 1.0
C      1  0.4355750000000  0.4461250000000  0.4981630000000 1.0
C      1  0.4705940000000  0.4123890000000  0.4947050000000 1.0
C      1  0.4339300000000  0.5275200000000  0.4966550000000 1.0
C      1  0.4633120000000  0.5201120000000  0.4684000000000 1.0
C      1  0.5100270000000  0.4879220000000  0.5724330000000 1.0
C      1  0.4870130000000  0.4288400000000  0.5496740000000 1.0
C      1  0.5841310000000  0.4848690000000  0.5184730000000 1.0
C      1  0.4656690000000  0.5293080000000  0.6076020000000 1.0
C      1  0.4882160000000  0.4044370000000  0.4683770000000 1.0
C      1  0.5396180000000  0.5237280000000  0.4924350000000 1.0
C      1  0.5079570000000  0.4509700000000  0.5362390000000 1.0
C      1  0.4780150000000  0.5073230000000  0.4169470000000 1.0
C      1  0.5615090000000  0.4815750000000  0.5378590000000 1.0
C      1  0.5454540000000  0.4336520000000  0.4776470000000 1.0
C      1  0.5175740000000  0.4148710000000  0.4722140000000 1.0
C      1  0.5514760000000  0.5726370000000  0.5170180000000 1.0
C      1  0.4472110000000  0.4172090000000  0.5076770000000 1.0
C      1  0.4342020000000  0.4647410000000  0.4510880000000 1.0
C      1  0.5441480000000  0.4704450000000  0.4317710000000 1.0
C      1  0.5231230000000  0.5485290000000  0.5030330000000 1.0
C      1  0.5446440000000  0.5095810000000  0.4236330000000 1.0
C      1  0.5379730000000  0.4737750000000  0.4650400000000 1.0
C      1  0.4475940000000  0.5341640000000  0.5820000000000 1.0
C      1  0.5169840000000  0.5134670000000  0.5918350000000 1.0
C      1  0.4708320000000  0.4788260000000  0.4790500000000 1.0
C      1  0.5551820000000  0.5072500000000  0.4529850000000 1.0
C      1  0.4263780000000  0.4332700000000  0.5282710000000 1.0
C      1  0.4781940000000  0.5201390000000  0.5772010000000 1.0
C      1  0.4706560000000  0.4887470000000  0.5330190000000 1.0
C      1  0.5165650000000  0.4275840000000  0.5018370000000 1.0
C      1  0.4222470000000  0.4884440000000  0.4926210000000 1.0
C      1  0.4470610000000  0.4751290000000  0.5116980000000 1.0
C      1  0.5206910000000  0.5626220000000  0.4312760000000 1.0
C      1  0.5731310000000  0.5557680000000  0.5115120000000 1.0
C      1  0.4397070000000  0.4418070000000  0.4681430000000 1.0
C      1  0.5754390000000  0.4484360000000  0.4714450000000 1.0
C      1  0.5266150000000  0.5432120000000  0.5784690000000 1.0
C      1  0.5223590000000  0.4984570000000  0.4789680000000 1.0
C      1  0.4953100000000  0.4845740000000  0.4485030000000 1.0
C      1  0.4965650000000  0.4918640000000  0.4970780000000 1.0
C      1  0.5086180000000  0.4604060000000  0.4683800000000 1.0
C      1  0.5116100000000  0.5083670000000  0.4195900000000 1.0
C      1  0.4764420000000  0.5906190000000  0.4964900000000 1.0
C      1  0.5904790000000  0.5124500000000  0.5156070000000 1.0
C      1  0.5498750000000  0.5440230000000  0.4671520000000 1.0
C      1  0.4443780000000  0.5040370000000  0.4501240000000 1.0
C      1  0.5198970000000  0.4133970000000  0.5284370000000 1.0
C      1  0.5461170000000  0.5576120000000  0.4390350000000 1.0
C      1  0.4681020000000  0.4626670000000  0.4492410000000 1.0
C      1  0.5335850000000  0.5796180000000  0.4939820000000 1.0
C      1  0.4563710000000  0.5012040000000  0.5612480000000 1.0
C      1  0.4595680000000  0.4577520000000  0.5712410000000 1.0
C      1  0.5738460000000  0.5321950000000  0.5290640000000 1.0
C      1  0.5759980000000  0.5462120000000  0.4846430000000 1.0
C      1  0.5391110000000  0.5142810000000  0.5657000000000 1.0
C      1  0.4803970000000  0.5351850000000  0.4356260000000 1.0
C      1  0.5328050000000  0.5542860000000  0.5348500000000 1.0
C      1  0.5881350000000  0.5203870000000  0.4866800000000 1.0
C      1  0.4585690000000  0.5041360000000  0.4981650000000 1.0
C      1  0.4113640000000  0.5766050000000  0.5070860000000 1.0
C      1  0.4939170000000  0.5131640000000  0.4551090000000 1.0
C      1  0.4877850000000  0.5979510000000  0.5214180000000 1.0
C      1  0.5200070000000  0.4370410000000  0.4470000000000 1.0
C      1  0.4241320000000  0.4886690000000  0.4648350000000 1.0
C      1  0.5252690000000  0.5231830000000  0.4558090000000 1.0
C      1  0.5198690000000  0.4595710000000  0.4991140000000 1.0
C      1  0.5422380000000  0.5216100000000  0.5355020000000 1.0
C      1  0.4673230000000  0.4297240000000  0.4589250000000 1.0
C      1  0.5188270000000  0.4765340000000  0.4175100000000 1.0
C      1  0.4727990000000  0.4325880000000  0.5742160000000 1.0
END
