TITL C-2847957-7266-421 0.000733943963203409 125000 -891.432756483163 0 0 169 (C1) n - 1
REM
REM in /home/bkarasulu/work/CARBON/AIRSS/Generating-Clusters/AIREBO/with-SteepDescent/Only-C1/SD-CG-opt/Try1-1.4A-POS3A/HFTN-CG
REM
REM
REM
REM
REM
REM ./C.cell (11c1c37f851c82e70ff6c80c92926a4b)
REM
REM compiler GCC version 9.2.1 20190827 (Red Hat 9.2.1-1)
REM options -cpp -mtune=generic -march=x86-64 -g -O0 -fpre-include=/usr/include/finclude/math-vector-fortran.h
REM seed -1566949954 1443419768 -59714120 1362536011 373502196 1987412324 1915344030 -1471500402 -1206736643 -1688276768 1191927821 239360425 -833840553 720954616 -665382405 393329312 -541583240 -1483041251 -422532989 -1096304437 76351597 -958649462 -2009285116 1199297424 -891784304 335894005 -925997352 2098213633 635953754 -1167459601 -422781307 -855996917 -1032718135
REM
CELL 1.54180   50.00000   50.00000   50.00000   90.00000   90.00000   90.00000
LATT -1
SFAC C  
C      1  0.5391220000000  0.3970340000000  0.4848150000000 1.0
C      1  0.5489360000000  0.5396460000000  0.5621570000000 1.0
C      1  0.5185780000000  0.5169890000000  0.4690450000000 1.0
C      1  0.5773130000000  0.5513150000000  0.4596050000000 1.0
C      1  0.4547520000000  0.4636780000000  0.4037960000000 1.0
C      1  0.5063630000000  0.4755740000000  0.5654250000000 1.0
C      1  0.5559680000000  0.5890460000000  0.5562030000000 1.0
C      1  0.5242450000000  0.3786440000000  0.4998310000000 1.0
C      1  0.4911770000000  0.5900280000000  0.5599280000000 1.0
C      1  0.5366380000000  0.5584110000000  0.4214600000000 1.0
C      1  0.5873900000000  0.4892670000000  0.4731210000000 1.0
C      1  0.4376140000000  0.5354580000000  0.5803130000000 1.0
C      1  0.5433450000000  0.5529060000000  0.4593520000000 1.0
C      1  0.5060340000000  0.4929500000000  0.4895740000000 1.0
C      1  0.4482340000000  0.4497350000000  0.4329680000000 1.0
C      1  0.4584750000000  0.4955170000000  0.4497200000000 1.0
C      1  0.4718540000000  0.4327940000000  0.5271690000000 1.0
C      1  0.4709230000000  0.4834980000000  0.3949780000000 1.0
C      1  0.4966500000000  0.4246850000000  0.4106000000000 1.0
C      1  0.5220810000000  0.5499000000000  0.5433580000000 1.0
C      1  0.5757650000000  0.4271190000000  0.5025560000000 1.0
C      1  0.5444460000000  0.4488250000000  0.4839770000000 1.0
C      1  0.5102480000000  0.4542220000000  0.4491630000000 1.0
C      1  0.4725620000000  0.4443390000000  0.5588630000000 1.0
C      1  0.4802800000000  0.4954640000000  0.5575540000000 1.0
C      1  0.5644300000000  0.4715710000000  0.5437140000000 1.0
C      1  0.4310870000000  0.4096170000000  0.4342790000000 1.0
C      1  0.5664900000000  0.4842110000000  0.4068550000000 1.0
C      1  0.4477450000000  0.5816950000000  0.5180310000000 1.0
C      1  0.4611520000000  0.5749900000000  0.5654460000000 1.0
C      1  0.4858410000000  0.4659720000000  0.4941470000000 1.0
C      1  0.4725950000000  0.5140870000000  0.6189660000000 1.0
C      1  0.4513480000000  0.4076490000000  0.5169990000000 1.0
C      1  0.5251800000000  0.5700220000000  0.5161040000000 1.0
C      1  0.4812080000000  0.4235420000000  0.4957890000000 1.0
C      1  0.3842870000000  0.5660480000000  0.4763700000000 1.0
C      1  0.5528900000000  0.4377120000000  0.5786780000000 1.0
C      1  0.5250710000000  0.5879580000000  0.5583560000000 1.0
C      1  0.5246480000000  0.4222470000000  0.4763470000000 1.0
C      1  0.4562610000000  0.4860970000000  0.6107550000000 1.0
C      1  0.6045410000000  0.4672810000000  0.5137950000000 1.0
C      1  0.6083360000000  0.4911280000000  0.5323850000000 1.0
C      1  0.6135010000000  0.5269570000000  0.5037030000000 1.0
C      1  0.4491720000000  0.5522460000000  0.5010880000000 1.0
C      1  0.4855120000000  0.4140820000000  0.4346740000000 1.0
C      1  0.5814820000000  0.5594930000000  0.5067420000000 1.0
C      1  0.5698030000000  0.4699240000000  0.4310740000000 1.0
C      1  0.5011340000000  0.4377730000000  0.5539400000000 1.0
C      1  0.4231690000000  0.5561680000000  0.5394620000000 1.0
C      1  0.6095490000000  0.4810380000000  0.5626370000000 1.0
C      1  0.5302520000000  0.5011630000000  0.5120070000000 1.0
C      1  0.4517850000000  0.5644090000000  0.4261480000000 1.0
C      1  0.5136390000000  0.5004450000000  0.4331290000000 1.0
C      1  0.4493100000000  0.5077420000000  0.5644580000000 1.0
C      1  0.5636030000000  0.4475080000000  0.4559080000000 1.0
C      1  0.4090730000000  0.4494430000000  0.4669810000000 1.0
C      1  0.4361590000000  0.5583670000000  0.5651400000000 1.0
C      1  0.5410560000000  0.4304490000000  0.5475930000000 1.0
C      1  0.4235360000000  0.4776710000000  0.5581750000000 1.0
C      1  0.5656430000000  0.4880540000000  0.4537080000000 1.0
C      1  0.4838070000000  0.3971660000000  0.5161810000000 1.0
C      1  0.4831310000000  0.5253130000000  0.4275930000000 1.0
C      1  0.4962650000000  0.4742280000000  0.3905990000000 1.0
C      1  0.5843180000000  0.4505530000000  0.5256810000000 1.0
C      1  0.4399690000000  0.5065260000000  0.4761920000000 1.0
C      1  0.4967310000000  0.5351710000000  0.3980290000000 1.0
C      1  0.4654730000000  0.4696940000000  0.5411140000000 1.0
C      1  0.4355160000000  0.4992390000000  0.5086070000000 1.0
C      1  0.4542150000000  0.5996980000000  0.4665460000000 1.0
C      1  0.5657110000000  0.3998500000000  0.4907100000000 1.0
C      1  0.4894870000000  0.5932760000000  0.4684870000000 1.0
C      1  0.5682360000000  0.5262650000000  0.4437140000000 1.0
C      1  0.4831820000000  0.5624190000000  0.4132520000000 1.0
C      1  0.4695370000000  0.4989350000000  0.6457850000000 1.0
C      1  0.5233770000000  0.4700950000000  0.4720870000000 1.0
C      1  0.5481070000000  0.4371160000000  0.5165480000000 1.0
C      1  0.5152840000000  0.5294550000000  0.5201720000000 1.0
C      1  0.5532120000000  0.5314060000000  0.4197330000000 1.0
C      1  0.3926080000000  0.5066510000000  0.5007640000000 1.0
C      1  0.5615880000000  0.5079900000000  0.4972270000000 1.0
C      1  0.5500560000000  0.5864750000000  0.4777240000000 1.0
C      1  0.4286810000000  0.4752000000000  0.4774050000000 1.0
C      1  0.4175210000000  0.5727490000000  0.5142090000000 1.0
C      1  0.4936600000000  0.4290960000000  0.4640770000000 1.0
C      1  0.4816740000000  0.5161060000000  0.4843830000000 1.0
C      1  0.5634410000000  0.4758040000000  0.4921980000000 1.0
C      1  0.5522290000000  0.4913680000000  0.5976060000000 1.0
C      1  0.5154770000000  0.5370950000000  0.5910920000000 1.0
C      1  0.5111870000000  0.5497740000000  0.4631420000000 1.0
C      1  0.4706330000000  0.5893250000000  0.4404030000000 1.0
C      1  0.5435030000000  0.5055830000000  0.5422420000000 1.0
C      1  0.4852710000000  0.5599790000000  0.4471110000000 1.0
C      1  0.4545600000000  0.4731850000000  0.6395950000000 1.0
C      1  0.4400610000000  0.4368210000000  0.5036620000000 1.0
C      1  0.4443250000000  0.4807780000000  0.5847110000000 1.0
C      1  0.6261060000000  0.5119350000000  0.5196580000000 1.0
C      1  0.4945230000000  0.5190800000000  0.5718060000000 1.0
C      1  0.4268010000000  0.5911870000000  0.4667970000000 1.0
C      1  0.5600060000000  0.5174300000000  0.5855510000000 1.0
C      1  0.4178130000000  0.4374790000000  0.4419340000000 1.0
C      1  0.5526020000000  0.5885450000000  0.5082710000000 1.0
C      1  0.4725650000000  0.5762130000000  0.5350510000000 1.0
C      1  0.4187150000000  0.4614120000000  0.4204350000000 1.0
C      1  0.4330220000000  0.5272180000000  0.5277670000000 1.0
C      1  0.4896580000000  0.4781770000000  0.5229300000000 1.0
C      1  0.4088180000000  0.5285280000000  0.5039120000000 1.0
C      1  0.4920780000000  0.5086370000000  0.5281540000000 1.0
C      1  0.4473270000000  0.5481480000000  0.4515600000000 1.0
C      1  0.5083500000000  0.4410550000000  0.4992210000000 1.0
C      1  0.4683600000000  0.5878350000000  0.4945660000000 1.0
C      1  0.4890630000000  0.4807230000000  0.4467830000000 1.0
C      1  0.5773920000000  0.5029460000000  0.5411510000000 1.0
C      1  0.5511150000000  0.5251640000000  0.4745880000000 1.0
C      1  0.5096330000000  0.3879880000000  0.5221270000000 1.0
C      1  0.5256780000000  0.5166070000000  0.5657270000000 1.0
C      1  0.4978250000000  0.4454390000000  0.3922690000000 1.0
C      1  0.3739480000000  0.4677980000000  0.4844710000000 1.0
C      1  0.5037180000000  0.4024650000000  0.5878900000000 1.0
C      1  0.5136220000000  0.4566570000000  0.5285540000000 1.0
C      1  0.5072820000000  0.5952090000000  0.5303000000000 1.0
C      1  0.5249800000000  0.4008190000000  0.5427360000000 1.0
C      1  0.5721180000000  0.5364000000000  0.5377450000000 1.0
C      1  0.5762540000000  0.5701930000000  0.4817880000000 1.0
C      1  0.4628370000000  0.5313850000000  0.5435830000000 1.0
C      1  0.4874650000000  0.5577150000000  0.5152290000000 1.0
C      1  0.5667920000000  0.5699660000000  0.5330730000000 1.0
C      1  0.5617570000000  0.4651810000000  0.5865670000000 1.0
C      1  0.5477900000000  0.5083010000000  0.4044950000000 1.0
C      1  0.4206190000000  0.4876670000000  0.4162770000000 1.0
C      1  0.4412560000000  0.4583750000000  0.5280340000000 1.0
C      1  0.5090550000000  0.4134280000000  0.5640820000000 1.0
C      1  0.5131960000000  0.5167500000000  0.3865610000000 1.0
C      1  0.5367370000000  0.4926210000000  0.4564940000000 1.0
C      1  0.5333220000000  0.4625810000000  0.5556270000000 1.0
C      1  0.4180180000000  0.5086140000000  0.5511780000000 1.0
C      1  0.5857370000000  0.4709430000000  0.5702030000000 1.0
C      1  0.5154340000000  0.5344340000000  0.4330820000000 1.0
C      1  0.5847670000000  0.5127310000000  0.5722180000000 1.0
C      1  0.4012540000000  0.4739340000000  0.4974660000000 1.0
C      1  0.5406900000000  0.4514090000000  0.4108380000000 1.0
C      1  0.4857230000000  0.5346080000000  0.6074970000000 1.0
C      1  0.5322010000000  0.5430600000000  0.4964620000000 1.0
C      1  0.5824050000000  0.5272770000000  0.5081960000000 1.0
C      1  0.4415940000000  0.4513680000000  0.5673500000000 1.0
C      1  0.5384710000000  0.4456630000000  0.4361580000000 1.0
C      1  0.4904750000000  0.5471190000000  0.5556380000000 1.0
C      1  0.4098720000000  0.4404240000000  0.4974940000000 1.0
C      1  0.4636920000000  0.5131520000000  0.4027700000000 1.0
C      1  0.4116260000000  0.5676850000000  0.4831870000000 1.0
C      1  0.4671340000000  0.5598910000000  0.4750600000000 1.0
C      1  0.4902380000000  0.6080090000000  0.5106630000000 1.0
C      1  0.4707520000000  0.4531680000000  0.4546810000000 1.0
C      1  0.4569740000000  0.4575160000000  0.4833070000000 1.0
C      1  0.4703010000000  0.5243120000000  0.4571680000000 1.0
C      1  0.4403040000000  0.4280990000000  0.5425500000000 1.0
C      1  0.5162960000000  0.5682190000000  0.5815620000000 1.0
C      1  0.4837720000000  0.5605030000000  0.5857860000000 1.0
C      1  0.5866440000000  0.4427220000000  0.4775230000000 1.0
C      1  0.4579570000000  0.4109810000000  0.4344860000000 1.0
C      1  0.4282270000000  0.5384590000000  0.4779670000000 1.0
C      1  0.5212030000000  0.4877920000000  0.4024840000000 1.0
C      1  0.5427440000000  0.4703630000000  0.5175450000000 1.0
C      1  0.4718220000000  0.5297580000000  0.5109910000000 1.0
C      1  0.4182550000000  0.4780450000000  0.5255760000000 1.0
C      1  0.4579340000000  0.5438490000000  0.3999200000000 1.0
C      1  0.6015110000000  0.4659400000000  0.4854890000000 1.0
C      1  0.5460580000000  0.5827220000000  0.4438340000000 1.0
C      1  0.4440240000000  0.4990910000000  0.4228590000000 1.0
C      1  0.5041790000000  0.5706970000000  0.4893400000000 1.0
END
