TITL C-2847956-8218-181 0.00207864584178108 125000 -659.438382626779 0 0 118 (C1) n - 1
REM
REM in /home/bkarasulu/work/CARBON/AIRSS/Generating-Clusters/AIREBO/with-SteepDescent/Only-C1/SD-CG-opt/Try1-1.4A-POS3A/HFTN-CG
REM
REM
REM
REM
REM
REM ./C.cell (11c1c37f851c82e70ff6c80c92926a4b)
REM
REM compiler GCC version 9.2.1 20190827 (Red Hat 9.2.1-1)
REM options -cpp -mtune=generic -march=x86-64 -g -O0 -fpre-include=/usr/include/finclude/math-vector-fortran.h
REM seed -1216171995 -1748674879 116966110 -719951719 -1676456428 542354878 -1696809234 343031056 356775108 1727471979 -987677201 -266072157 438377192 -884204335 -1249524 -569648126 1614092277 -799851515 1311492620 -389389958 -352472241 1829900769 2130638019 1328832194 -630111615 -1354811181 -291525748 -407557880 -1628285983 1121307374 -424913582 -2134953817 -525137867
REM
CELL 1.54180   50.00000   50.00000   50.00000   90.00000   90.00000   90.00000
LATT -1
SFAC C  
C      1  0.4910850000000  0.4840240000000  0.4110190000000 1.0
C      1  0.5652330000000  0.4459980000000  0.5270610000000 1.0
C      1  0.5527920000000  0.4857900000000  0.4641740000000 1.0
C      1  0.5401490000000  0.5089690000000  0.4942160000000 1.0
C      1  0.4682150000000  0.5758760000000  0.5183780000000 1.0
C      1  0.5017480000000  0.4310790000000  0.4307420000000 1.0
C      1  0.4506910000000  0.4961950000000  0.5441040000000 1.0
C      1  0.4358500000000  0.5061150000000  0.4124150000000 1.0
C      1  0.5289720000000  0.5926030000000  0.4620700000000 1.0
C      1  0.5291090000000  0.4777740000000  0.5020290000000 1.0
C      1  0.5644350000000  0.5758400000000  0.4897560000000 1.0
C      1  0.4842590000000  0.5508550000000  0.4156720000000 1.0
C      1  0.5209530000000  0.5162220000000  0.5528740000000 1.0
C      1  0.5255020000000  0.5162770000000  0.4688270000000 1.0
C      1  0.5558590000000  0.4303040000000  0.5044740000000 1.0
C      1  0.4958270000000  0.5563230000000  0.4721210000000 1.0
C      1  0.4027430000000  0.4609340000000  0.4801800000000 1.0
C      1  0.4711930000000  0.5324890000000  0.5464460000000 1.0
C      1  0.5036670000000  0.4965310000000  0.4600240000000 1.0
C      1  0.5423450000000  0.4981530000000  0.5335520000000 1.0
C      1  0.5439610000000  0.5297400000000  0.5210580000000 1.0
C      1  0.5215660000000  0.4581520000000  0.4214740000000 1.0
C      1  0.4204050000000  0.4668110000000  0.5153870000000 1.0
C      1  0.4307420000000  0.4417120000000  0.5332960000000 1.0
C      1  0.4894990000000  0.4757880000000  0.5064510000000 1.0
C      1  0.5115030000000  0.4970050000000  0.5192450000000 1.0
C      1  0.4420770000000  0.5275330000000  0.4743980000000 1.0
C      1  0.5404160000000  0.5934490000000  0.4869300000000 1.0
C      1  0.4520090000000  0.5018170000000  0.4920240000000 1.0
C      1  0.4476700000000  0.4865490000000  0.4315550000000 1.0
C      1  0.5817480000000  0.5083030000000  0.4538530000000 1.0
C      1  0.5130570000000  0.5814860000000  0.5592240000000 1.0
C      1  0.4124500000000  0.4383910000000  0.4984900000000 1.0
C      1  0.5618100000000  0.4757020000000  0.4929440000000 1.0
C      1  0.4588270000000  0.5815760000000  0.5477450000000 1.0
C      1  0.5019690000000  0.4160310000000  0.5379490000000 1.0
C      1  0.4774880000000  0.4290500000000  0.5527150000000 1.0
C      1  0.5099100000000  0.5627970000000  0.5026580000000 1.0
C      1  0.4581160000000  0.5495590000000  0.5127270000000 1.0
C      1  0.5436200000000  0.5131370000000  0.5856350000000 1.0
C      1  0.4705230000000  0.4664220000000  0.5265540000000 1.0
C      1  0.5461980000000  0.5312440000000  0.5622590000000 1.0
C      1  0.5506520000000  0.4685550000000  0.5480170000000 1.0
C      1  0.4742840000000  0.4747240000000  0.5559490000000 1.0
C      1  0.4271700000000  0.4545910000000  0.4337980000000 1.0
C      1  0.4471520000000  0.4247370000000  0.4692720000000 1.0
C      1  0.4115510000000  0.5244790000000  0.5236750000000 1.0
C      1  0.5917960000000  0.4410640000000  0.5344000000000 1.0
C      1  0.4274090000000  0.4178960000000  0.4862220000000 1.0
C      1  0.4713510000000  0.4736970000000  0.4523530000000 1.0
C      1  0.5161690000000  0.4475820000000  0.4975490000000 1.0
C      1  0.4880630000000  0.4522080000000  0.4818900000000 1.0
C      1  0.4943890000000  0.5474790000000  0.5287530000000 1.0
C      1  0.4955390000000  0.5254160000000  0.5662640000000 1.0
C      1  0.4926900000000  0.5069170000000  0.4335160000000 1.0
C      1  0.4952720000000  0.4531580000000  0.5700480000000 1.0
C      1  0.5813580000000  0.5394230000000  0.5465010000000 1.0
C      1  0.4606280000000  0.5161500000000  0.5185600000000 1.0
C      1  0.5266390000000  0.5237380000000  0.6057280000000 1.0
C      1  0.4880730000000  0.5695820000000  0.5522900000000 1.0
C      1  0.5726990000000  0.5133550000000  0.4855160000000 1.0
C      1  0.5507600000000  0.4278710000000  0.4541880000000 1.0
C      1  0.5385760000000  0.4814420000000  0.5771000000000 1.0
C      1  0.6173270000000  0.4383610000000  0.5396600000000 1.0
C      1  0.4882240000000  0.5950540000000  0.5102290000000 1.0
C      1  0.4316260000000  0.5708320000000  0.5336590000000 1.0
C      1  0.4527500000000  0.5075790000000  0.5746050000000 1.0
C      1  0.5329590000000  0.5798660000000  0.5399700000000 1.0
C      1  0.5327720000000  0.5449260000000  0.4271630000000 1.0
C      1  0.5613440000000  0.5444830000000  0.4794920000000 1.0
C      1  0.5838130000000  0.5113760000000  0.5641500000000 1.0
C      1  0.5165030000000  0.4320510000000  0.5586310000000 1.0
C      1  0.4688420000000  0.4685740000000  0.4128900000000 1.0
C      1  0.5442860000000  0.4359520000000  0.4294410000000 1.0
C      1  0.4239460000000  0.4819490000000  0.4537420000000 1.0
C      1  0.4780060000000  0.5326820000000  0.4353980000000 1.0
C      1  0.5525900000000  0.5556570000000  0.5413200000000 1.0
C      1  0.5910360000000  0.5120440000000  0.5334710000000 1.0
C      1  0.4966710000000  0.4609180000000  0.4438320000000 1.0
C      1  0.4281800000000  0.5735230000000  0.5022690000000 1.0
C      1  0.4647050000000  0.5471170000000  0.4619790000000 1.0
C      1  0.5219410000000  0.4917780000000  0.4162540000000 1.0
C      1  0.4713790000000  0.4296780000000  0.4459740000000 1.0
C      1  0.5443810000000  0.4497440000000  0.4786860000000 1.0
C      1  0.5714750000000  0.4982280000000  0.5159670000000 1.0
C      1  0.4783540000000  0.4906950000000  0.4794440000000 1.0
C      1  0.4080610000000  0.5014850000000  0.4992280000000 1.0
C      1  0.5422830000000  0.4390860000000  0.5589500000000 1.0
C      1  0.4575230000000  0.4539570000000  0.4745420000000 1.0
C      1  0.5448070000000  0.4100580000000  0.4794920000000 1.0
C      1  0.4584240000000  0.4415000000000  0.5365640000000 1.0
C      1  0.4290390000000  0.5400060000000  0.5016860000000 1.0
C      1  0.5407400000000  0.5553590000000  0.5031500000000 1.0
C      1  0.5111690000000  0.4721730000000  0.5873810000000 1.0
C      1  0.4405850000000  0.5673900000000  0.4750060000000 1.0
C      1  0.4238770000000  0.5451660000000  0.5441560000000 1.0
C      1  0.5509670000000  0.5180850000000  0.3854520000000 1.0
C      1  0.5254140000000  0.4703530000000  0.4593590000000 1.0
C      1  0.5161510000000  0.5676550000000  0.4501360000000 1.0
C      1  0.5717260000000  0.4879640000000  0.5732850000000 1.0
C      1  0.4221870000000  0.4933440000000  0.5313040000000 1.0
C      1  0.5080630000000  0.5631420000000  0.4191560000000 1.0
C      1  0.5036670000000  0.5359660000000  0.5961030000000 1.0
C      1  0.5034930000000  0.5286760000000  0.4837390000000 1.0
C      1  0.5160320000000  0.4100770000000  0.4837370000000 1.0
C      1  0.4173770000000  0.5074060000000  0.4726550000000 1.0
C      1  0.5409300000000  0.5157330000000  0.4114170000000 1.0
C      1  0.4341970000000  0.4734410000000  0.4850240000000 1.0
C      1  0.4996860000000  0.4268730000000  0.4646040000000 1.0
C      1  0.4784650000000  0.5069580000000  0.5852910000000 1.0
C      1  0.4538820000000  0.4473150000000  0.4273740000000 1.0
C      1  0.5220090000000  0.5914700000000  0.5119290000000 1.0
C      1  0.4951960000000  0.4901880000000  0.6003110000000 1.0
C      1  0.5036890000000  0.5240510000000  0.5103750000000 1.0
C      1  0.4430150000000  0.5336140000000  0.5604400000000 1.0
C      1  0.5435580000000  0.5362710000000  0.4555480000000 1.0
C      1  0.5103500000000  0.4181460000000  0.5120180000000 1.0
C      1  0.5619100000000  0.5193590000000  0.4360720000000 1.0
END
