TITL C-2848507-1641-582 -0.0014696970092365 125000 -928.485509099092 0 0 174 (C1) n - 1
REM
REM in /home/bkarasulu/work/CARBON/AIRSS/Generating-Clusters/AIREBO/with-SteepDescent/Only-C1/SD-CG-opt/Try1-1.4A-POS3A/HFTN-CG
REM
REM
REM
REM
REM
REM ./C.cell (11c1c37f851c82e70ff6c80c92926a4b)
REM
REM compiler GCC version 9.2.1 20190827 (Red Hat 9.2.1-1)
REM options -cpp -mtune=generic -march=x86-64 -g -O0 -fpre-include=/usr/include/finclude/math-vector-fortran.h
REM seed 1234841464 -1108831007 1555042052 638833378 -601366818 -1244737048 2131123691 1421710854 644070636 -776324823 -600723562 1682201854 1672313497 932141339 -1714825619 1028989255 -43305963 1719714933 -794099824 66244134 1414962068 1726172419 -1354258272 -210023658 1960005672 -295065964 869780611 -1630598300 2003177201 -684998720 -1461493700 -2046257720 427793369
REM
CELL 1.54180   50.00000   50.00000   50.00000   90.00000   90.00000   90.00000
LATT -1
SFAC C  
C      1  0.5184650000000  0.4342560000000  0.4091800000000 1.0
C      1  0.4748040000000  0.4481600000000  0.5810080000000 1.0
C      1  0.4449420000000  0.4868900000000  0.4652290000000 1.0
C      1  0.4671840000000  0.3981400000000  0.5087350000000 1.0
C      1  0.5331400000000  0.5529110000000  0.5820790000000 1.0
C      1  0.4393510000000  0.5767720000000  0.4324460000000 1.0
C      1  0.3981810000000  0.4886280000000  0.4841350000000 1.0
C      1  0.3807650000000  0.5100990000000  0.4992640000000 1.0
C      1  0.4690370000000  0.4166490000000  0.5311020000000 1.0
C      1  0.5212160000000  0.5132530000000  0.4861750000000 1.0
C      1  0.4833040000000  0.5591640000000  0.5815040000000 1.0
C      1  0.4900460000000  0.5000070000000  0.4388240000000 1.0
C      1  0.4412400000000  0.4904440000000  0.5690260000000 1.0
C      1  0.4503650000000  0.4377400000000  0.4774280000000 1.0
C      1  0.5654340000000  0.5942530000000  0.5055820000000 1.0
C      1  0.5165800000000  0.4073340000000  0.5942870000000 1.0
C      1  0.6046190000000  0.4718340000000  0.5260260000000 1.0
C      1  0.5109160000000  0.5737260000000  0.5773930000000 1.0
C      1  0.5061700000000  0.4337920000000  0.4904480000000 1.0
C      1  0.5552830000000  0.5261120000000  0.5295490000000 1.0
C      1  0.4799710000000  0.4895420000000  0.5484340000000 1.0
C      1  0.5223940000000  0.4612920000000  0.5852510000000 1.0
C      1  0.5007360000000  0.4793550000000  0.4161470000000 1.0
C      1  0.4061790000000  0.4636550000000  0.5331960000000 1.0
C      1  0.4906430000000  0.5551500000000  0.5033460000000 1.0
C      1  0.5646190000000  0.5368440000000  0.4377700000000 1.0
C      1  0.4518370000000  0.4584410000000  0.4521870000000 1.0
C      1  0.4346670000000  0.5644810000000  0.5558360000000 1.0
C      1  0.5380160000000  0.3932850000000  0.4839830000000 1.0
C      1  0.4479850000000  0.4865910000000  0.3822740000000 1.0
C      1  0.6034220000000  0.4804630000000  0.4777130000000 1.0
C      1  0.5383760000000  0.5731930000000  0.4692500000000 1.0
C      1  0.4453230000000  0.4300740000000  0.5368200000000 1.0
C      1  0.5155180000000  0.4624550000000  0.5349680000000 1.0
C      1  0.3964940000000  0.4382580000000  0.4758420000000 1.0
C      1  0.5501970000000  0.5366210000000  0.4094670000000 1.0
C      1  0.4902250000000  0.4307530000000  0.4135860000000 1.0
C      1  0.5968140000000  0.4510880000000  0.4727560000000 1.0
C      1  0.3937970000000  0.4601910000000  0.5017000000000 1.0
C      1  0.5860680000000  0.4396350000000  0.4968650000000 1.0
C      1  0.4937970000000  0.6051650000000  0.5222750000000 1.0
C      1  0.5794110000000  0.5308350000000  0.5606890000000 1.0
C      1  0.5268120000000  0.4816050000000  0.4931880000000 1.0
C      1  0.5546680000000  0.4822850000000  0.4745950000000 1.0
C      1  0.5279140000000  0.5342470000000  0.4532050000000 1.0
C      1  0.4927970000000  0.4295650000000  0.5361410000000 1.0
C      1  0.4809870000000  0.4696730000000  0.4656100000000 1.0
C      1  0.4102800000000  0.4934340000000  0.5643720000000 1.0
C      1  0.4189500000000  0.5232520000000  0.5275330000000 1.0
C      1  0.4579210000000  0.5897610000000  0.4736220000000 1.0
C      1  0.5068220000000  0.4860100000000  0.5690140000000 1.0
C      1  0.5250140000000  0.5286960000000  0.4035460000000 1.0
C      1  0.4349050000000  0.5002270000000  0.5100950000000 1.0
C      1  0.4167280000000  0.4600520000000  0.5654570000000 1.0
C      1  0.5200830000000  0.6180340000000  0.5242980000000 1.0
C      1  0.5235940000000  0.5583820000000  0.5111070000000 1.0
C      1  0.4983600000000  0.3997600000000  0.4505150000000 1.0
C      1  0.5111160000000  0.4870080000000  0.6028900000000 1.0
C      1  0.5085980000000  0.4653610000000  0.4461200000000 1.0
C      1  0.4657770000000  0.5036820000000  0.4056710000000 1.0
C      1  0.4889760000000  0.5271330000000  0.5791190000000 1.0
C      1  0.5029560000000  0.5241220000000  0.5098110000000 1.0
C      1  0.5427870000000  0.4458050000000  0.5264750000000 1.0
C      1  0.5749150000000  0.4601700000000  0.4005910000000 1.0
C      1  0.4712090000000  0.4978050000000  0.4822460000000 1.0
C      1  0.4195340000000  0.4155120000000  0.5257820000000 1.0
C      1  0.4604540000000  0.5460060000000  0.5997440000000 1.0
C      1  0.5527790000000  0.4553270000000  0.5786420000000 1.0
C      1  0.4215170000000  0.5570450000000  0.4368810000000 1.0
C      1  0.3915300000000  0.5269450000000  0.5143200000000 1.0
C      1  0.4898410000000  0.5639150000000  0.4720150000000 1.0
C      1  0.5575850000000  0.5056070000000  0.5663620000000 1.0
C      1  0.4789810000000  0.5423460000000  0.5402720000000 1.0
C      1  0.4846890000000  0.5990840000000  0.4900680000000 1.0
C      1  0.4448420000000  0.5860080000000  0.5178880000000 1.0
C      1  0.4024020000000  0.5191570000000  0.5636760000000 1.0
C      1  0.4475050000000  0.4526380000000  0.4238550000000 1.0
C      1  0.4189540000000  0.4315660000000  0.4659310000000 1.0
C      1  0.4796250000000  0.4280640000000  0.4699530000000 1.0
C      1  0.3999390000000  0.5166130000000  0.4648600000000 1.0
C      1  0.4475490000000  0.5381930000000  0.4131280000000 1.0
C      1  0.4869960000000  0.4563740000000  0.5511100000000 1.0
C      1  0.4326720000000  0.5669460000000  0.4738640000000 1.0
C      1  0.5987150000000  0.4433750000000  0.5229770000000 1.0
C      1  0.5305890000000  0.5058770000000  0.6144990000000 1.0
C      1  0.5572800000000  0.4362550000000  0.5520970000000 1.0
C      1  0.4326900000000  0.5076170000000  0.4125160000000 1.0
C      1  0.5093600000000  0.3744680000000  0.5200970000000 1.0
C      1  0.5821900000000  0.5695940000000  0.5047030000000 1.0
C      1  0.4975140000000  0.5745840000000  0.4255450000000 1.0
C      1  0.5359710000000  0.4431030000000  0.4800490000000 1.0
C      1  0.5191960000000  0.4240150000000  0.5198980000000 1.0
C      1  0.4673650000000  0.4605670000000  0.4960420000000 1.0
C      1  0.5557800000000  0.5998210000000  0.4802730000000 1.0
C      1  0.5563070000000  0.5114430000000  0.5977980000000 1.0
C      1  0.6058360000000  0.5022660000000  0.5298850000000 1.0
C      1  0.5672780000000  0.5606750000000  0.4564310000000 1.0
C      1  0.4578950000000  0.5136360000000  0.5578720000000 1.0
C      1  0.5661590000000  0.5397270000000  0.5034560000000 1.0
C      1  0.4598660000000  0.4806320000000  0.5224560000000 1.0
C      1  0.4949260000000  0.5322330000000  0.4452210000000 1.0
C      1  0.4844780000000  0.5016820000000  0.5980990000000 1.0
C      1  0.5296000000000  0.3952990000000  0.5133680000000 1.0
C      1  0.5687840000000  0.4780910000000  0.5806500000000 1.0
C      1  0.4670010000000  0.4106710000000  0.4435940000000 1.0
C      1  0.4234180000000  0.5233650000000  0.4411890000000 1.0
C      1  0.4419800000000  0.4145420000000  0.5002620000000 1.0
C      1  0.5052570000000  0.4361510000000  0.5798680000000 1.0
C      1  0.5461070000000  0.5990170000000  0.5301730000000 1.0
C      1  0.5899810000000  0.5172280000000  0.4390330000000 1.0
C      1  0.5640510000000  0.4953190000000  0.5283350000000 1.0
C      1  0.5955780000000  0.4959630000000  0.4534160000000 1.0
C      1  0.5000610000000  0.4640670000000  0.5047140000000 1.0
C      1  0.4428510000000  0.5382560000000  0.4655440000000 1.0
C      1  0.5231120000000  0.5876190000000  0.5500230000000 1.0
C      1  0.5528120000000  0.4042470000000  0.4625230000000 1.0
C      1  0.5914710000000  0.5169790000000  0.5043390000000 1.0
C      1  0.5226500000000  0.5236390000000  0.5349630000000 1.0
C      1  0.4664790000000  0.5705070000000  0.5542220000000 1.0
C      1  0.5006260000000  0.4905800000000  0.3911140000000 1.0
C      1  0.5323140000000  0.4952630000000  0.5200620000000 1.0
C      1  0.5881400000000  0.5578170000000  0.4755300000000 1.0
C      1  0.4298620000000  0.4730400000000  0.4925680000000 1.0
C      1  0.5866570000000  0.4294390000000  0.5447720000000 1.0
C      1  0.4896790000000  0.3853310000000  0.5006600000000 1.0
C      1  0.5347990000000  0.4480090000000  0.4330820000000 1.0
C      1  0.5157030000000  0.4965500000000  0.4582450000000 1.0
C      1  0.5408980000000  0.4871600000000  0.4374220000000 1.0
C      1  0.4391770000000  0.4740440000000  0.4092230000000 1.0
C      1  0.4909150000000  0.5941460000000  0.5546160000000 1.0
C      1  0.4189710000000  0.5429300000000  0.5536640000000 1.0
C      1  0.4966260000000  0.5191730000000  0.5496530000000 1.0
C      1  0.5483260000000  0.5442530000000  0.5574610000000 1.0
C      1  0.5380040000000  0.5427900000000  0.4845410000000 1.0
C      1  0.4748660000000  0.5776080000000  0.5220360000000 1.0
C      1  0.4463520000000  0.4606480000000  0.5826510000000 1.0
C      1  0.4704030000000  0.5742070000000  0.4460690000000 1.0
C      1  0.6044050000000  0.5693210000000  0.5280020000000 1.0
C      1  0.4543820000000  0.4894270000000  0.5997640000000 1.0
C      1  0.5441470000000  0.4304360000000  0.4560830000000 1.0
C      1  0.4592210000000  0.4997180000000  0.4388110000000 1.0
C      1  0.4226670000000  0.4426240000000  0.5055040000000 1.0
C      1  0.4992760000000  0.4335980000000  0.4442560000000 1.0
C      1  0.5819010000000  0.4839380000000  0.5038090000000 1.0
C      1  0.5599070000000  0.4648920000000  0.4258980000000 1.0
C      1  0.5590100000000  0.4591810000000  0.4992040000000 1.0
C      1  0.5044170000000  0.5934790000000  0.4636550000000 1.0
C      1  0.6065730000000  0.5174340000000  0.5524130000000 1.0
C      1  0.4510970000000  0.5307450000000  0.5295020000000 1.0
C      1  0.5069760000000  0.4011280000000  0.4809640000000 1.0
C      1  0.4640900000000  0.5256000000000  0.5005270000000 1.0
C      1  0.5814080000000  0.5592950000000  0.5432960000000 1.0
C      1  0.5994520000000  0.5327590000000  0.4779430000000 1.0
C      1  0.4048660000000  0.5502980000000  0.4635470000000 1.0
C      1  0.4878830000000  0.4954250000000  0.5096880000000 1.0
C      1  0.5752790000000  0.4686960000000  0.4524120000000 1.0
C      1  0.4281850000000  0.5841730000000  0.4997450000000 1.0
C      1  0.5336530000000  0.4861200000000  0.5520470000000 1.0
C      1  0.5057740000000  0.4795780000000  0.3667440000000 1.0
C      1  0.5161100000000  0.5855040000000  0.4930150000000 1.0
C      1  0.5005810000000  0.5460870000000  0.4146830000000 1.0
C      1  0.4926660000000  0.5211030000000  0.3942770000000 1.0
C      1  0.4392800000000  0.4599040000000  0.5400050000000 1.0
C      1  0.4295790000000  0.5127140000000  0.4790830000000 1.0
C      1  0.5059440000000  0.5603090000000  0.5401030000000 1.0
C      1  0.4612060000000  0.4278080000000  0.4186550000000 1.0
C      1  0.4652780000000  0.5434890000000  0.4329150000000 1.0
C      1  0.5502780000000  0.5655730000000  0.5310220000000 1.0
C      1  0.4734690000000  0.5361480000000  0.4713180000000 1.0
C      1  0.5373190000000  0.4250650000000  0.5775030000000 1.0
C      1  0.5525540000000  0.5108960000000  0.4556070000000 1.0
C      1  0.4511590000000  0.5220490000000  0.5907090000000 1.0
C      1  0.5371460000000  0.5362030000000  0.6038840000000 1.0
C      1  0.5228540000000  0.5828220000000  0.4405610000000 1.0
END
