TITL C-2848495-5024-30 0.00110689357426433 125000 -394.219656137523 0 0 78 (C1) n - 1
REM
REM in /home/bkarasulu/work/CARBON/AIRSS/Generating-Clusters/AIREBO/with-SteepDescent/Only-C1/SD-CG-opt/Try1-1.4A-POS3A/HFTN-CG
REM
REM
REM
REM
REM
REM ./C.cell (11c1c37f851c82e70ff6c80c92926a4b)
REM
REM compiler GCC version 9.2.1 20190827 (Red Hat 9.2.1-1)
REM options -cpp -mtune=generic -march=x86-64 -g -O0 -fpre-include=/usr/include/finclude/math-vector-fortran.h
REM seed -204324523 1851235798 70555309 202960637 799876639 1559633853 -2146371194 -269770178 -1131205512 1151048516 681541021 1618645272 1201968021 -1509937994 -1394148371 546463838 1940185211 -891529042 32182490 -655510792 1319233990 -729828951 102801225 -1223903038 174538813 1032908299 1758569822 -1594564751 345725573 1434427099 1014296208 572500171 1319890868
REM
CELL 1.54180   50.00000   50.00000   50.00000   90.00000   90.00000   90.00000
LATT -1
SFAC C  
C      1  0.5262480000000  0.4703900000000  0.5631760000000 1.0
C      1  0.4928300000000  0.4195700000000  0.5003520000000 1.0
C      1  0.5553840000000  0.5499540000000  0.4910320000000 1.0
C      1  0.4673850000000  0.4359110000000  0.4870070000000 1.0
C      1  0.5021810000000  0.5735890000000  0.4978120000000 1.0
C      1  0.4541050000000  0.5528790000000  0.5042360000000 1.0
C      1  0.4569160000000  0.4776950000000  0.5292470000000 1.0
C      1  0.5057180000000  0.5682930000000  0.4419780000000 1.0
C      1  0.4671570000000  0.5386140000000  0.4562580000000 1.0
C      1  0.4653770000000  0.5102320000000  0.5509150000000 1.0
C      1  0.4919330000000  0.4961620000000  0.5349700000000 1.0
C      1  0.5727080000000  0.5240440000000  0.4932040000000 1.0
C      1  0.4959960000000  0.4324000000000  0.4690090000000 1.0
C      1  0.5227850000000  0.4446430000000  0.4818780000000 1.0
C      1  0.5239090000000  0.4754200000000  0.4179070000000 1.0
C      1  0.4788750000000  0.5605770000000  0.4349950000000 1.0
C      1  0.5154600000000  0.4651160000000  0.4476490000000 1.0
C      1  0.5303600000000  0.5683490000000  0.4950320000000 1.0
C      1  0.5146460000000  0.5202140000000  0.5766070000000 1.0
C      1  0.4706490000000  0.5057850000000  0.4875840000000 1.0
C      1  0.5021570000000  0.5431550000000  0.5827410000000 1.0
C      1  0.4570720000000  0.4445650000000  0.4420390000000 1.0
C      1  0.4588320000000  0.4911530000000  0.5741300000000 1.0
C      1  0.5717720000000  0.4817530000000  0.5198300000000 1.0
C      1  0.4348270000000  0.5465100000000  0.4632290000000 1.0
C      1  0.5473260000000  0.4348250000000  0.5054560000000 1.0
C      1  0.5414420000000  0.4885890000000  0.5446280000000 1.0
C      1  0.5744840000000  0.5079010000000  0.4685890000000 1.0
C      1  0.4370100000000  0.4699940000000  0.4912090000000 1.0
C      1  0.5368250000000  0.4991280000000  0.5126210000000 1.0
C      1  0.5465410000000  0.5540210000000  0.5378840000000 1.0
C      1  0.5650500000000  0.5273650000000  0.5407280000000 1.0
C      1  0.5559060000000  0.4498620000000  0.4761850000000 1.0
C      1  0.4337670000000  0.5369840000000  0.4900740000000 1.0
C      1  0.4875290000000  0.5850420000000  0.5182580000000 1.0
C      1  0.4880230000000  0.5310890000000  0.5128240000000 1.0
C      1  0.5373990000000  0.5331760000000  0.5126260000000 1.0
C      1  0.5047190000000  0.4924160000000  0.5036440000000 1.0
C      1  0.5364700000000  0.5184190000000  0.5525280000000 1.0
C      1  0.4768630000000  0.4356320000000  0.5257340000000 1.0
C      1  0.4515650000000  0.5115550000000  0.4420430000000 1.0
C      1  0.5005740000000  0.4586680000000  0.5037040000000 1.0
C      1  0.4872410000000  0.4377720000000  0.4410650000000 1.0
C      1  0.4613720000000  0.5158710000000  0.5187050000000 1.0
C      1  0.4698080000000  0.4738730000000  0.4993140000000 1.0
C      1  0.4328740000000  0.5017390000000  0.5294470000000 1.0
C      1  0.5743510000000  0.5113950000000  0.5189630000000 1.0
C      1  0.5071440000000  0.5264460000000  0.5378270000000 1.0
C      1  0.5483960000000  0.5234060000000  0.4546470000000 1.0
C      1  0.4614800000000  0.5404780000000  0.5540770000000 1.0
C      1  0.4367290000000  0.5047030000000  0.4897550000000 1.0
C      1  0.4663210000000  0.5645280000000  0.5321470000000 1.0
C      1  0.4684270000000  0.4676720000000  0.5709470000000 1.0
C      1  0.4985250000000  0.4821620000000  0.4717890000000 1.0
C      1  0.5393200000000  0.4752130000000  0.4626580000000 1.0
C      1  0.4706460000000  0.4632400000000  0.4670240000000 1.0
C      1  0.5097800000000  0.5458610000000  0.4672050000000 1.0
C      1  0.5129730000000  0.5230050000000  0.4912600000000 1.0
C      1  0.4459160000000  0.4865800000000  0.4628910000000 1.0
C      1  0.4237050000000  0.4710400000000  0.5323320000000 1.0
C      1  0.4818900000000  0.5495450000000  0.4849170000000 1.0
C      1  0.5028530000000  0.4303610000000  0.5471860000000 1.0
C      1  0.5431910000000  0.4665180000000  0.5094820000000 1.0
C      1  0.4826060000000  0.4642780000000  0.5422910000000 1.0
C      1  0.5171550000000  0.5160030000000  0.4418760000000 1.0
C      1  0.4869390000000  0.4680280000000  0.4304820000000 1.0
C      1  0.5296710000000  0.5463490000000  0.4397880000000 1.0
C      1  0.4470220000000  0.4434310000000  0.5111430000000 1.0
C      1  0.5162270000000  0.4443980000000  0.5659330000000 1.0
C      1  0.5075910000000  0.4937860000000  0.5650600000000 1.0
C      1  0.5200840000000  0.5003540000000  0.4153680000000 1.0
C      1  0.5160800000000  0.4325440000000  0.5189820000000 1.0
C      1  0.5717060000000  0.4786660000000  0.4662870000000 1.0
C      1  0.4878040000000  0.5117050000000  0.4588120000000 1.0
C      1  0.4880390000000  0.5595850000000  0.5583380000000 1.0
C      1  0.4743480000000  0.4912390000000  0.4352250000000 1.0
C      1  0.5190680000000  0.5541640000000  0.5482730000000 1.0
C      1  0.5359470000000  0.5024230000000  0.4769500000000 1.0
END
