TITL C-2847958-8115-404 0.00127491989556931 125000 -1053.74428802515 0 0 195 (C1) n - 1
REM
REM in /home/bkarasulu/work/CARBON/AIRSS/Generating-Clusters/AIREBO/with-SteepDescent/Only-C1/SD-CG-opt/Try1-1.4A-POS3A/HFTN-CG
REM
REM
REM
REM
REM
REM ./C.cell (11c1c37f851c82e70ff6c80c92926a4b)
REM
REM compiler GCC version 9.2.1 20190827 (Red Hat 9.2.1-1)
REM options -cpp -mtune=generic -march=x86-64 -g -O0 -fpre-include=/usr/include/finclude/math-vector-fortran.h
REM seed 228564879 -1396898268 -1255376039 -2118514295 -1983247923 1672344057 -1664575400 2126804477 204527584 1765180013 -515852183 -1448596103 -74692596 -1377106406 1697368455 1735845386 -684708690 1731543740 -606961468 -190887296 -191177992 720639132 -1800938499 -59348875 33923294 -1711910852 117836076 -950511492 1358628806 -1055347964 -1807979383 619213970 -1565901825
REM
CELL 1.54180   50.00000   50.00000   50.00000   90.00000   90.00000   90.00000
LATT -1
SFAC C  
C      1  0.4928840000000  0.4343820000000  0.5323920000000 1.0
C      1  0.5262110000000  0.4109770000000  0.4629680000000 1.0
C      1  0.4994250000000  0.4807140000000  0.4776110000000 1.0
C      1  0.4973880000000  0.5628170000000  0.5927070000000 1.0
C      1  0.4595880000000  0.5436860000000  0.5761200000000 1.0
C      1  0.4579710000000  0.5054470000000  0.6040920000000 1.0
C      1  0.6106910000000  0.4749420000000  0.5156730000000 1.0
C      1  0.4175710000000  0.4717370000000  0.5043350000000 1.0
C      1  0.4860680000000  0.5266630000000  0.4095070000000 1.0
C      1  0.5053390000000  0.4788490000000  0.5890460000000 1.0
C      1  0.5496160000000  0.4728440000000  0.5631600000000 1.0
C      1  0.5124620000000  0.5702720000000  0.4724120000000 1.0
C      1  0.4118660000000  0.4598360000000  0.4503610000000 1.0
C      1  0.5149040000000  0.3901080000000  0.5136260000000 1.0
C      1  0.5248650000000  0.6130230000000  0.5184650000000 1.0
C      1  0.4127820000000  0.4200650000000  0.5264270000000 1.0
C      1  0.5031890000000  0.5633450000000  0.5315470000000 1.0
C      1  0.5309010000000  0.4806810000000  0.4838310000000 1.0
C      1  0.5492290000000  0.5986160000000  0.5166220000000 1.0
C      1  0.4006240000000  0.5228800000000  0.4882730000000 1.0
C      1  0.5557990000000  0.4957370000000  0.5387830000000 1.0
C      1  0.4599330000000  0.6062090000000  0.4847000000000 1.0
C      1  0.6067030000000  0.4371510000000  0.5509620000000 1.0
C      1  0.5248610000000  0.4078750000000  0.5693210000000 1.0
C      1  0.5195210000000  0.3887740000000  0.5416540000000 1.0
C      1  0.5425560000000  0.4532350000000  0.4276200000000 1.0
C      1  0.4909430000000  0.6166370000000  0.5201770000000 1.0
C      1  0.3827900000000  0.5392820000000  0.4682580000000 1.0
C      1  0.3782420000000  0.4772570000000  0.5051350000000 1.0
C      1  0.5218740000000  0.4920350000000  0.6156770000000 1.0
C      1  0.5729550000000  0.4330040000000  0.5508720000000 1.0
C      1  0.4345520000000  0.5238860000000  0.3878200000000 1.0
C      1  0.5333330000000  0.5544970000000  0.4505960000000 1.0
C      1  0.4672780000000  0.5619260000000  0.5489510000000 1.0
C      1  0.5329260000000  0.5278370000000  0.4041780000000 1.0
C      1  0.5186210000000  0.5428440000000  0.4259430000000 1.0
C      1  0.3981740000000  0.5426620000000  0.5379730000000 1.0
C      1  0.6139230000000  0.5217900000000  0.5357490000000 1.0
C      1  0.4632560000000  0.6111590000000  0.5144170000000 1.0
C      1  0.5453700000000  0.4911200000000  0.5905840000000 1.0
C      1  0.5637670000000  0.4253200000000  0.4948180000000 1.0
C      1  0.5121370000000  0.4456190000000  0.4267930000000 1.0
C      1  0.5547090000000  0.4052040000000  0.5566410000000 1.0
C      1  0.5776840000000  0.5381910000000  0.5699600000000 1.0
C      1  0.5001590000000  0.4729940000000  0.4198370000000 1.0
C      1  0.4832590000000  0.5594850000000  0.4179650000000 1.0
C      1  0.4368100000000  0.5182180000000  0.5284740000000 1.0
C      1  0.5229340000000  0.4845530000000  0.4033780000000 1.0
C      1  0.5813870000000  0.4647350000000  0.4377380000000 1.0
C      1  0.4802840000000  0.5070270000000  0.4850420000000 1.0
C      1  0.4738540000000  0.4430180000000  0.4380780000000 1.0
C      1  0.6106070000000  0.4462050000000  0.5224570000000 1.0
C      1  0.4299540000000  0.5551170000000  0.4116080000000 1.0
C      1  0.5193860000000  0.4540150000000  0.5325410000000 1.0
C      1  0.4453660000000  0.5822210000000  0.5131600000000 1.0
C      1  0.4542960000000  0.4461670000000  0.5027710000000 1.0
C      1  0.4155160000000  0.4922720000000  0.4542520000000 1.0
C      1  0.4785650000000  0.6039840000000  0.4449100000000 1.0
C      1  0.6001580000000  0.5292090000000  0.4626620000000 1.0
C      1  0.5523450000000  0.4071790000000  0.5284680000000 1.0
C      1  0.5773760000000  0.5730730000000  0.4866900000000 1.0
C      1  0.4431760000000  0.5186210000000  0.5783800000000 1.0
C      1  0.4760210000000  0.5534820000000  0.4497200000000 1.0
C      1  0.5027140000000  0.5375050000000  0.5088230000000 1.0
C      1  0.4290300000000  0.4823210000000  0.5698530000000 1.0
C      1  0.5096630000000  0.4324290000000  0.4836390000000 1.0
C      1  0.5841730000000  0.4291870000000  0.5189070000000 1.0
C      1  0.4551190000000  0.5206780000000  0.4683350000000 1.0
C      1  0.5512370000000  0.4970830000000  0.4619330000000 1.0
C      1  0.6047830000000  0.4871760000000  0.4859920000000 1.0
C      1  0.4428630000000  0.4650110000000  0.4256490000000 1.0
C      1  0.4696230000000  0.4100460000000  0.4825460000000 1.0
C      1  0.5949490000000  0.5130210000000  0.4410720000000 1.0
C      1  0.4099460000000  0.5398240000000  0.3959840000000 1.0
C      1  0.4660820000000  0.4744970000000  0.4472910000000 1.0
C      1  0.5193620000000  0.5748280000000  0.5048240000000 1.0
C      1  0.4587290000000  0.5446550000000  0.3996770000000 1.0
C      1  0.5011100000000  0.5190040000000  0.4378090000000 1.0
C      1  0.4645830000000  0.4674740000000  0.5474010000000 1.0
C      1  0.4473300000000  0.4394140000000  0.5546380000000 1.0
C      1  0.4024630000000  0.5222720000000  0.4484100000000 1.0
C      1  0.4301540000000  0.3973740000000  0.4843380000000 1.0
C      1  0.5508710000000  0.5307070000000  0.4646370000000 1.0
C      1  0.5731140000000  0.5456970000000  0.4183420000000 1.0
C      1  0.3934080000000  0.4606510000000  0.5257600000000 1.0
C      1  0.5212590000000  0.4183560000000  0.4098720000000 1.0
C      1  0.5783400000000  0.5505320000000  0.4670750000000 1.0
C      1  0.5022710000000  0.4738700000000  0.5108690000000 1.0
C      1  0.4365120000000  0.4983420000000  0.4281690000000 1.0
C      1  0.5352350000000  0.5949530000000  0.4670650000000 1.0
C      1  0.5445330000000  0.4252170000000  0.5911750000000 1.0
C      1  0.4718840000000  0.5626290000000  0.5175470000000 1.0
C      1  0.3961880000000  0.5132810000000  0.5412050000000 1.0
C      1  0.4287980000000  0.5363610000000  0.4938020000000 1.0
C      1  0.5268310000000  0.5674400000000  0.5789440000000 1.0
C      1  0.4898180000000  0.5146540000000  0.5230890000000 1.0
C      1  0.5173170000000  0.5087910000000  0.3921340000000 1.0
C      1  0.5351220000000  0.5459600000000  0.5097620000000 1.0
C      1  0.5979020000000  0.4634630000000  0.4653240000000 1.0
C      1  0.5523690000000  0.5797980000000  0.5381770000000 1.0
C      1  0.4338910000000  0.5515290000000  0.5222760000000 1.0
C      1  0.4179370000000  0.4790980000000  0.4071620000000 1.0
C      1  0.4729630000000  0.4774010000000  0.5974890000000 1.0
C      1  0.5186940000000  0.5369630000000  0.5922420000000 1.0
C      1  0.5840300000000  0.4911320000000  0.5811290000000 1.0
C      1  0.5307390000000  0.4891240000000  0.5167750000000 1.0
C      1  0.4586310000000  0.4172110000000  0.4511570000000 1.0
C      1  0.4186090000000  0.4908370000000  0.5324460000000 1.0
C      1  0.4862710000000  0.5040000000000  0.3870650000000 1.0
C      1  0.4737690000000  0.4670630000000  0.5201640000000 1.0
C      1  0.5686550000000  0.4731280000000  0.4745600000000 1.0
C      1  0.4260880000000  0.5352040000000  0.5559090000000 1.0
C      1  0.4008240000000  0.5630940000000  0.4840620000000 1.0
C      1  0.4409350000000  0.4171360000000  0.5334350000000 1.0
C      1  0.4935340000000  0.5816060000000  0.3942610000000 1.0
C      1  0.4466160000000  0.5634080000000  0.4380500000000 1.0
C      1  0.4884950000000  0.4979330000000  0.6197020000000 1.0
C      1  0.5633690000000  0.5447540000000  0.5226720000000 1.0
C      1  0.4746990000000  0.4742940000000  0.3991150000000 1.0
C      1  0.5421970000000  0.4142520000000  0.4348560000000 1.0
C      1  0.4612390000000  0.5406890000000  0.4951790000000 1.0
C      1  0.4573340000000  0.4941130000000  0.5632730000000 1.0
C      1  0.5342610000000  0.5200500000000  0.4898240000000 1.0
C      1  0.5266720000000  0.5763060000000  0.5524480000000 1.0
C      1  0.5050980000000  0.4457860000000  0.5970270000000 1.0
C      1  0.4603640000000  0.5047120000000  0.5125020000000 1.0
C      1  0.5505780000000  0.4420780000000  0.4570420000000 1.0
C      1  0.5698600000000  0.4335480000000  0.4304350000000 1.0
C      1  0.6222810000000  0.5274950000000  0.5088360000000 1.0
C      1  0.6128510000000  0.5168360000000  0.4839720000000 1.0
C      1  0.4345940000000  0.5672530000000  0.5570470000000 1.0
C      1  0.4558850000000  0.4056680000000  0.5133510000000 1.0
C      1  0.5609840000000  0.4649940000000  0.5066730000000 1.0
C      1  0.4594760000000  0.4579330000000  0.5804520000000 1.0
C      1  0.5171180000000  0.4747420000000  0.5596190000000 1.0
C      1  0.4505280000000  0.5884500000000  0.4572660000000 1.0
C      1  0.5118190000000  0.5970400000000  0.4428350000000 1.0
C      1  0.5915880000000  0.4340200000000  0.4788470000000 1.0
C      1  0.5602590000000  0.5150490000000  0.5112140000000 1.0
C      1  0.5077730000000  0.5188940000000  0.4699930000000 1.0
C      1  0.4266420000000  0.4272830000000  0.4967750000000 1.0
C      1  0.4217060000000  0.5457390000000  0.4635270000000 1.0
C      1  0.4843130000000  0.4321290000000  0.5038210000000 1.0
C      1  0.5399690000000  0.4479770000000  0.4860400000000 1.0
C      1  0.5691440000000  0.5167610000000  0.5914390000000 1.0
C      1  0.5131920000000  0.5751420000000  0.4218740000000 1.0
C      1  0.5830180000000  0.4666550000000  0.5926890000000 1.0
C      1  0.4295260000000  0.5814330000000  0.4830760000000 1.0
C      1  0.5673830000000  0.4952860000000  0.4320230000000 1.0
C      1  0.5471960000000  0.4778530000000  0.4137120000000 1.0
C      1  0.5630550000000  0.4459330000000  0.5790210000000 1.0
C      1  0.4944740000000  0.4894050000000  0.4463080000000 1.0
C      1  0.4466800000000  0.5720460000000  0.5884690000000 1.0
C      1  0.4868810000000  0.5926520000000  0.4733350000000 1.0
C      1  0.4839230000000  0.5086010000000  0.5564630000000 1.0
C      1  0.4890390000000  0.3924980000000  0.5042700000000 1.0
C      1  0.5006660000000  0.4306920000000  0.4522540000000 1.0
C      1  0.5148120000000  0.5033940000000  0.5432130000000 1.0
C      1  0.5389860000000  0.5199870000000  0.6066130000000 1.0
C      1  0.5279400000000  0.4359560000000  0.6105840000000 1.0
C      1  0.5533230000000  0.4552500000000  0.5342670000000 1.0
C      1  0.4801350000000  0.4306890000000  0.5567700000000 1.0
C      1  0.4041270000000  0.4499380000000  0.4819570000000 1.0
C      1  0.5061460000000  0.6036110000000  0.4944240000000 1.0
C      1  0.4469570000000  0.4895340000000  0.4669360000000 1.0
C      1  0.4349750000000  0.4440540000000  0.4683910000000 1.0
C      1  0.6024760000000  0.5372750000000  0.5574030000000 1.0
C      1  0.5565270000000  0.5927970000000  0.4878280000000 1.0
C      1  0.4961200000000  0.5491220000000  0.5616120000000 1.0
C      1  0.4409050000000  0.5299800000000  0.4406340000000 1.0
C      1  0.4987710000000  0.5117960000000  0.5837160000000 1.0
C      1  0.5646100000000  0.5590470000000  0.4403460000000 1.0
C      1  0.4898870000000  0.5455440000000  0.4783700000000 1.0
C      1  0.4345440000000  0.4365670000000  0.4368080000000 1.0
C      1  0.5555660000000  0.5489500000000  0.5522410000000 1.0
C      1  0.3954480000000  0.5611110000000  0.5175990000000 1.0
C      1  0.5838880000000  0.5638510000000  0.5114580000000 1.0
C      1  0.5806100000000  0.4901880000000  0.5082390000000 1.0
C      1  0.5317080000000  0.4257640000000  0.5181760000000 1.0
C      1  0.5253900000000  0.5342550000000  0.5528110000000 1.0
C      1  0.4117660000000  0.5874740000000  0.5131670000000 1.0
C      1  0.4944240000000  0.4234170000000  0.3986650000000 1.0
C      1  0.4772330000000  0.4428880000000  0.4075070000000 1.0
C      1  0.5369570000000  0.4045550000000  0.4921200000000 1.0
C      1  0.4818010000000  0.5291710000000  0.6075540000000 1.0
C      1  0.4547740000000  0.5018470000000  0.3996940000000 1.0
C      1  0.6062830000000  0.4950870000000  0.5384930000000 1.0
C      1  0.4707890000000  0.5605020000000  0.6077550000000 1.0
C      1  0.5594300000000  0.5218440000000  0.4120990000000 1.0
C      1  0.4478830000000  0.4785910000000  0.4947400000000 1.0
C      1  0.4217610000000  0.4610720000000  0.5487140000000 1.0
C      1  0.5836760000000  0.4913760000000  0.5535170000000 1.0
C      1  0.4001290000000  0.4932190000000  0.4845790000000 1.0
C      1  0.4400100000000  0.3933980000000  0.4615460000000 1.0
C      1  0.4982960000000  0.4267810000000  0.5770450000000 1.0
END
