TITL C-2848506-1665-367 -0.000162631712363301 125000 -505.959223966945 0 0 95 (C1) n - 1
REM
REM in /home/bkarasulu/work/CARBON/AIRSS/Generating-Clusters/AIREBO/with-SteepDescent/Only-C1/SD-CG-opt/Try1-1.4A-POS3A/HFTN-CG
REM
REM
REM
REM
REM
REM ./C.cell (11c1c37f851c82e70ff6c80c92926a4b)
REM
REM compiler GCC version 9.2.1 20190827 (Red Hat 9.2.1-1)
REM options -cpp -mtune=generic -march=x86-64 -g -O0 -fpre-include=/usr/include/finclude/math-vector-fortran.h
REM seed 489026310 -1137969353 -1058418572 -1478449541 -748343032 284094149 1433923176 -658288373 -1867547082 -877867094 -86207896 425784674 -1163851589 -1464398878 1628418991 -385411382 -811217279 -3787284 429384450 1906748896 -1675083173 -1002612102 -93932053 -365866336 -930618305 1716808713 64136404 842576624 -107008779 28471761 -237514549 -1949587030 1778252934
REM
CELL 1.54180   50.00000   50.00000   50.00000   90.00000   90.00000   90.00000
LATT -1
SFAC C  
C      1  0.5257530000000  0.4578690000000  0.4231640000000 1.0
C      1  0.4124110000000  0.5310390000000  0.5378310000000 1.0
C      1  0.4156330000000  0.5486120000000  0.5168050000000 1.0
C      1  0.5509040000000  0.4859750000000  0.4348840000000 1.0
C      1  0.5021920000000  0.5006750000000  0.6094490000000 1.0
C      1  0.4310990000000  0.5753860000000  0.4635600000000 1.0
C      1  0.4929870000000  0.4673400000000  0.5386860000000 1.0
C      1  0.5214610000000  0.4952370000000  0.5359690000000 1.0
C      1  0.4205960000000  0.4795490000000  0.5607900000000 1.0
C      1  0.4827500000000  0.4356600000000  0.5317160000000 1.0
C      1  0.5103310000000  0.5807110000000  0.5300590000000 1.0
C      1  0.4927440000000  0.5746250000000  0.4946700000000 1.0
C      1  0.5295740000000  0.4790290000000  0.4587530000000 1.0
C      1  0.5184040000000  0.5171710000000  0.4198570000000 1.0
C      1  0.5245030000000  0.4618520000000  0.5922450000000 1.0
C      1  0.4211460000000  0.5268630000000  0.4578310000000 1.0
C      1  0.4862220000000  0.5432500000000  0.4895330000000 1.0
C      1  0.5103080000000  0.4850650000000  0.5883300000000 1.0
C      1  0.4698930000000  0.5457110000000  0.4598100000000 1.0
C      1  0.5816880000000  0.5191140000000  0.5008350000000 1.0
C      1  0.4344710000000  0.4735520000000  0.5243640000000 1.0
C      1  0.4845370000000  0.5187900000000  0.5597400000000 1.0
C      1  0.5201780000000  0.5335030000000  0.4710100000000 1.0
C      1  0.4535510000000  0.4975510000000  0.4078380000000 1.0
C      1  0.5727850000000  0.4475680000000  0.4616430000000 1.0
C      1  0.4152760000000  0.4951220000000  0.4990380000000 1.0
C      1  0.4957350000000  0.5277670000000  0.4410640000000 1.0
C      1  0.5603050000000  0.5276360000000  0.4555490000000 1.0
C      1  0.5183770000000  0.5274260000000  0.5267380000000 1.0
C      1  0.4688670000000  0.4604430000000  0.5616580000000 1.0
C      1  0.5523990000000  0.5156270000000  0.4860250000000 1.0
C      1  0.4754970000000  0.4436450000000  0.5832480000000 1.0
C      1  0.4820090000000  0.4924460000000  0.5185260000000 1.0
C      1  0.5015710000000  0.5568040000000  0.4546720000000 1.0
C      1  0.5481840000000  0.4439310000000  0.5062010000000 1.0
C      1  0.4861500000000  0.4136880000000  0.5065540000000 1.0
C      1  0.4363750000000  0.5104180000000  0.5409970000000 1.0
C      1  0.4659170000000  0.4374930000000  0.4478700000000 1.0
C      1  0.4423000000000  0.5433820000000  0.5018840000000 1.0
C      1  0.5241010000000  0.5712900000000  0.4370900000000 1.0
C      1  0.5105550000000  0.4122580000000  0.4945020000000 1.0
C      1  0.4195050000000  0.4948860000000  0.4660370000000 1.0
C      1  0.4430630000000  0.5134060000000  0.4919800000000 1.0
C      1  0.5376800000000  0.4887910000000  0.4865270000000 1.0
C      1  0.4240290000000  0.4644250000000  0.4556570000000 1.0
C      1  0.5084520000000  0.5031940000000  0.4610120000000 1.0
C      1  0.4606690000000  0.4910670000000  0.4330040000000 1.0
C      1  0.5005650000000  0.4918210000000  0.5610460000000 1.0
C      1  0.4559350000000  0.4089160000000  0.5010340000000 1.0
C      1  0.4523630000000  0.5023730000000  0.4611920000000 1.0
C      1  0.5001970000000  0.5421810000000  0.5591420000000 1.0
C      1  0.5697240000000  0.4584420000000  0.4884660000000 1.0
C      1  0.5007220000000  0.4746380000000  0.5003200000000 1.0
C      1  0.5496710000000  0.4473940000000  0.4447830000000 1.0
C      1  0.5320510000000  0.5350720000000  0.4994300000000 1.0
C      1  0.5255250000000  0.4329120000000  0.4869060000000 1.0
C      1  0.4485900000000  0.4856930000000  0.5699660000000 1.0
C      1  0.5792190000000  0.5434270000000  0.4770430000000 1.0
C      1  0.5341990000000  0.5389300000000  0.4405140000000 1.0
C      1  0.5965840000000  0.4376630000000  0.4536460000000 1.0
C      1  0.5598990000000  0.5512690000000  0.5347210000000 1.0
C      1  0.5459850000000  0.4816890000000  0.5187300000000 1.0
C      1  0.4805900000000  0.4743570000000  0.4461820000000 1.0
C      1  0.5824930000000  0.5099220000000  0.5488650000000 1.0
C      1  0.4881640000000  0.5622070000000  0.5395560000000 1.0
C      1  0.4804030000000  0.5117840000000  0.4779940000000 1.0
C      1  0.5607830000000  0.4490830000000  0.5363950000000 1.0
C      1  0.5745510000000  0.4858700000000  0.5007340000000 1.0
C      1  0.4404390000000  0.4548400000000  0.5467110000000 1.0
C      1  0.4552600000000  0.4376130000000  0.5116950000000 1.0
C      1  0.5506340000000  0.5922220000000  0.4840980000000 1.0
C      1  0.5205390000000  0.4591200000000  0.5190100000000 1.0
C      1  0.5791070000000  0.5299000000000  0.5296950000000 1.0
C      1  0.5223690000000  0.4894100000000  0.4210100000000 1.0
C      1  0.5698380000000  0.5047910000000  0.4377890000000 1.0
C      1  0.5663750000000  0.4799170000000  0.5458870000000 1.0
C      1  0.4873360000000  0.4192070000000  0.5547370000000 1.0
C      1  0.5676560000000  0.5674970000000  0.4858130000000 1.0
C      1  0.5451390000000  0.5610630000000  0.5079830000000 1.0
C      1  0.5341410000000  0.5183440000000  0.5559200000000 1.0
C      1  0.4650720000000  0.5457990000000  0.5232180000000 1.0
C      1  0.4081950000000  0.4934710000000  0.5323360000000 1.0
C      1  0.4743560000000  0.5934980000000  0.4923760000000 1.0
C      1  0.4465250000000  0.4502840000000  0.4628360000000 1.0
C      1  0.4598440000000  0.5234160000000  0.5470380000000 1.0
C      1  0.4799090000000  0.4778150000000  0.4765360000000 1.0
C      1  0.5272530000000  0.5556550000000  0.5434860000000 1.0
C      1  0.5225640000000  0.5845200000000  0.5010950000000 1.0
C      1  0.4548230000000  0.4871580000000  0.5061730000000 1.0
C      1  0.4559740000000  0.4588830000000  0.4908280000000 1.0
C      1  0.5573730000000  0.5056790000000  0.5661680000000 1.0
C      1  0.4968860000000  0.4480150000000  0.4385150000000 1.0
C      1  0.5215700000000  0.4472270000000  0.4609340000000 1.0
C      1  0.4885470000000  0.5230260000000  0.5167960000000 1.0
C      1  0.4409280000000  0.5491460000000  0.4694450000000 1.0
END
