TITL C-2847944-5688-334 0.00236795182009672 125000 -534.407169436534 0 0 96 (C1) n - 1
REM
REM in /home/bkarasulu/work/CARBON/AIRSS/Generating-Clusters/AIREBO/with-SteepDescent/Only-C1/SD-CG-opt/Try1-1.4A-POS3A/HFTN-CG
REM
REM
REM
REM
REM
REM ./C.cell (11c1c37f851c82e70ff6c80c92926a4b)
REM
REM compiler GCC version 9.2.1 20190827 (Red Hat 9.2.1-1)
REM options -cpp -mtune=generic -march=x86-64 -g -O0 -fpre-include=/usr/include/finclude/math-vector-fortran.h
REM seed 2014231418 827717398 988231975 -174356282 -644563932 1131568699 1646376912 -519284146 -2038826140 -1775281182 538430390 -1982910190 -181744639 1597619518 -1384623834 -1217369351 -1162131744 -1078592681 -782751023 -1293152222 1335495338 -569129853 876514611 1087753942 1022990604 -592592863 -843071585 -947501687 1891692547 1190661446 861735458 -106806184 -153204295
REM
CELL 1.54180   50.00000   50.00000   50.00000   90.00000   90.00000   90.00000
LATT -1
SFAC C  
C      1  0.4654980000000  0.4588210000000  0.5019110000000 1.0
C      1  0.5188290000000  0.4551550000000  0.4129800000000 1.0
C      1  0.5068090000000  0.4363450000000  0.4886110000000 1.0
C      1  0.5374140000000  0.4592590000000  0.4995990000000 1.0
C      1  0.4802170000000  0.4326800000000  0.4456200000000 1.0
C      1  0.4928200000000  0.4684520000000  0.3991490000000 1.0
C      1  0.4701430000000  0.5047560000000  0.5229520000000 1.0
C      1  0.4836770000000  0.5357120000000  0.5235630000000 1.0
C      1  0.5702770000000  0.4699920000000  0.4291980000000 1.0
C      1  0.5072290000000  0.4297020000000  0.4552590000000 1.0
C      1  0.5043440000000  0.4504930000000  0.5194470000000 1.0
C      1  0.4104400000000  0.5396130000000  0.4890320000000 1.0
C      1  0.4871180000000  0.5325190000000  0.5822500000000 1.0
C      1  0.5529110000000  0.5737720000000  0.5466170000000 1.0
C      1  0.4469020000000  0.4961370000000  0.5688280000000 1.0
C      1  0.4252580000000  0.4528480000000  0.5793290000000 1.0
C      1  0.5524890000000  0.4623480000000  0.5533770000000 1.0
C      1  0.4753650000000  0.5018400000000  0.5806990000000 1.0
C      1  0.4512260000000  0.5401130000000  0.4365020000000 1.0
C      1  0.5456860000000  0.4366820000000  0.5429690000000 1.0
C      1  0.4220580000000  0.4766490000000  0.4704110000000 1.0
C      1  0.5260970000000  0.4776030000000  0.5583750000000 1.0
C      1  0.5552940000000  0.4539020000000  0.4485230000000 1.0
C      1  0.5100290000000  0.5352840000000  0.4239540000000 1.0
C      1  0.4801060000000  0.5676890000000  0.4862250000000 1.0
C      1  0.5152190000000  0.4323270000000  0.5436010000000 1.0
C      1  0.5358550000000  0.4933670000000  0.4704700000000 1.0
C      1  0.4388050000000  0.4599160000000  0.5142920000000 1.0
C      1  0.5300750000000  0.5015960000000  0.5090040000000 1.0
C      1  0.4176260000000  0.4705650000000  0.4988450000000 1.0
C      1  0.4784900000000  0.4894830000000  0.4986430000000 1.0
C      1  0.5077660000000  0.5025470000000  0.4873150000000 1.0
C      1  0.4814100000000  0.4285910000000  0.5436310000000 1.0
C      1  0.5572060000000  0.5468340000000  0.4938330000000 1.0
C      1  0.4164590000000  0.5014600000000  0.4540360000000 1.0
C      1  0.5121750000000  0.5227380000000  0.5482590000000 1.0
C      1  0.5066120000000  0.5088370000000  0.5927190000000 1.0
C      1  0.5440640000000  0.5677840000000  0.4704880000000 1.0
C      1  0.4256390000000  0.5189320000000  0.5545290000000 1.0
C      1  0.4990210000000  0.5717110000000  0.5112500000000 1.0
C      1  0.4421590000000  0.4666370000000  0.5649360000000 1.0
C      1  0.5011680000000  0.5761580000000  0.5507360000000 1.0
C      1  0.5654910000000  0.5317940000000  0.4644860000000 1.0
C      1  0.4832040000000  0.5517850000000  0.4375140000000 1.0
C      1  0.5602340000000  0.5150650000000  0.5059740000000 1.0
C      1  0.4393400000000  0.5189790000000  0.4505530000000 1.0
C      1  0.5264680000000  0.5281570000000  0.5227410000000 1.0
C      1  0.5006260000000  0.4828910000000  0.4351350000000 1.0
C      1  0.3932360000000  0.5039600000000  0.4406070000000 1.0
C      1  0.4449560000000  0.4626040000000  0.4602620000000 1.0
C      1  0.4849170000000  0.5189780000000  0.4388230000000 1.0
C      1  0.5755860000000  0.5783820000000  0.5306750000000 1.0
C      1  0.4682430000000  0.4804210000000  0.4686850000000 1.0
C      1  0.5163880000000  0.4658900000000  0.4747710000000 1.0
C      1  0.5591620000000  0.4309570000000  0.5172450000000 1.0
C      1  0.5264000000000  0.5794920000000  0.5327480000000 1.0
C      1  0.5199820000000  0.5756980000000  0.4611570000000 1.0
C      1  0.5344980000000  0.5170140000000  0.4247690000000 1.0
C      1  0.4739650000000  0.5737700000000  0.5343730000000 1.0
C      1  0.4343750000000  0.5446070000000  0.5025330000000 1.0
C      1  0.4944130000000  0.4995730000000  0.5452750000000 1.0
C      1  0.4592210000000  0.5218230000000  0.5502610000000 1.0
C      1  0.4881860000000  0.5213590000000  0.4726110000000 1.0
C      1  0.4580840000000  0.4539370000000  0.5416930000000 1.0
C      1  0.4487800000000  0.5727520000000  0.4928990000000 1.0
C      1  0.4531320000000  0.4381040000000  0.4475150000000 1.0
C      1  0.4306000000000  0.5423680000000  0.5324360000000 1.0
C      1  0.5480530000000  0.5142750000000  0.4530360000000 1.0
C      1  0.5710980000000  0.4829870000000  0.5461450000000 1.0
C      1  0.5267320000000  0.4752930000000  0.5257560000000 1.0
C      1  0.5805620000000  0.5639810000000  0.5078440000000 1.0
C      1  0.4863690000000  0.4677150000000  0.5393600000000 1.0
C      1  0.4926660000000  0.4687960000000  0.4566910000000 1.0
C      1  0.5288030000000  0.5553150000000  0.5104940000000 1.0
C      1  0.5593670000000  0.4695280000000  0.4780420000000 1.0
C      1  0.5262380000000  0.4859510000000  0.4202870000000 1.0
C      1  0.5574840000000  0.4920610000000  0.4194690000000 1.0
C      1  0.4556300000000  0.5551500000000  0.5439840000000 1.0
C      1  0.5294080000000  0.5022450000000  0.5777210000000 1.0
C      1  0.4727370000000  0.4154380000000  0.5187580000000 1.0
C      1  0.4759610000000  0.4334470000000  0.4970810000000 1.0
C      1  0.4938390000000  0.5691850000000  0.4599380000000 1.0
C      1  0.4573670000000  0.5106160000000  0.4722640000000 1.0
C      1  0.3927630000000  0.4730540000000  0.5091710000000 1.0
C      1  0.5296880000000  0.4410920000000  0.4382810000000 1.0
C      1  0.5775750000000  0.4960660000000  0.4890360000000 1.0
C      1  0.5760990000000  0.4492370000000  0.4996170000000 1.0
C      1  0.5444000000000  0.5233450000000  0.5581000000000 1.0
C      1  0.5367740000000  0.4247260000000  0.4977600000000 1.0
C      1  0.4955500000000  0.4773340000000  0.5707620000000 1.0
C      1  0.6032990000000  0.4979980000000  0.4852590000000 1.0
C      1  0.5530190000000  0.5524560000000  0.5635940000000 1.0
C      1  0.4669980000000  0.5372770000000  0.4939430000000 1.0
C      1  0.5626240000000  0.5080950000000  0.5380190000000 1.0
C      1  0.4928990000000  0.5455050000000  0.5548410000000 1.0
C      1  0.4785240000000  0.4936250000000  0.4170400000000 1.0
END
