TITL C-2848499-1157-668 -0.00167575544851445 125000 -629.970237105752 0 0 122 (C1) n - 1
REM
REM in /home/bkarasulu/work/CARBON/AIRSS/Generating-Clusters/AIREBO/with-SteepDescent/Only-C1/SD-CG-opt/Try1-1.4A-POS3A/HFTN-CG
REM
REM
REM
REM
REM
REM ./C.cell (11c1c37f851c82e70ff6c80c92926a4b)
REM
REM compiler GCC version 9.2.1 20190827 (Red Hat 9.2.1-1)
REM options -cpp -mtune=generic -march=x86-64 -g -O0 -fpre-include=/usr/include/finclude/math-vector-fortran.h
REM seed -1400634186 1791925239 1750922770 257262476 2027371954 1341471432 -1526435977 1617435526 1449612513 -434598397 2116584839 -1791923887 1247297455 988016915 -468810447 -38941181 -16318821 -50072722 -761437607 -1217702657 239092648 1293641589 -165153169 -132246076 -1116409118 307951937 -1122727477 1737117324 1330405258 1950830075 523568757 1011234026 273744719
REM
CELL 1.54180   50.00000   50.00000   50.00000   90.00000   90.00000   90.00000
LATT -1
SFAC C  
C      1  0.4772540000000  0.5395820000000  0.5769500000000 1.0
C      1  0.5310910000000  0.4465270000000  0.4722460000000 1.0
C      1  0.5516360000000  0.4901170000000  0.5136490000000 1.0
C      1  0.5930890000000  0.5228560000000  0.4478660000000 1.0
C      1  0.4269860000000  0.5646990000000  0.5652670000000 1.0
C      1  0.5225720000000  0.4343250000000  0.5666980000000 1.0
C      1  0.4932800000000  0.4203790000000  0.5356140000000 1.0
C      1  0.4273000000000  0.5126860000000  0.5585130000000 1.0
C      1  0.5928440000000  0.4737640000000  0.5503620000000 1.0
C      1  0.4736420000000  0.4445180000000  0.5708650000000 1.0
C      1  0.5461740000000  0.4172870000000  0.4687810000000 1.0
C      1  0.4515590000000  0.4447940000000  0.4995630000000 1.0
C      1  0.5063270000000  0.5891940000000  0.4658360000000 1.0
C      1  0.5143880000000  0.5247110000000  0.5170700000000 1.0
C      1  0.4597460000000  0.4707190000000  0.4844490000000 1.0
C      1  0.4680580000000  0.5388520000000  0.5461130000000 1.0
C      1  0.4053760000000  0.4971030000000  0.5392730000000 1.0
C      1  0.4384810000000  0.5429090000000  0.5572430000000 1.0
C      1  0.4774220000000  0.5814810000000  0.4496720000000 1.0
C      1  0.5632730000000  0.4432340000000  0.4826120000000 1.0
C      1  0.4210750000000  0.5440820000000  0.5158900000000 1.0
C      1  0.4170400000000  0.5086400000000  0.4677460000000 1.0
C      1  0.4948500000000  0.5654300000000  0.5816810000000 1.0
C      1  0.5650620000000  0.5780320000000  0.4408230000000 1.0
C      1  0.5174950000000  0.5773970000000  0.4148480000000 1.0
C      1  0.4923010000000  0.5096880000000  0.4960120000000 1.0
C      1  0.4886320000000  0.4877550000000  0.4324060000000 1.0
C      1  0.5551440000000  0.4776470000000  0.4654020000000 1.0
C      1  0.5282240000000  0.5652570000000  0.4762020000000 1.0
C      1  0.4654710000000  0.5669540000000  0.4767040000000 1.0
C      1  0.5632910000000  0.5449310000000  0.5184110000000 1.0
C      1  0.5323440000000  0.4432950000000  0.5225980000000 1.0
C      1  0.4761010000000  0.5078640000000  0.5427600000000 1.0
C      1  0.5036090000000  0.4395800000000  0.4200770000000 1.0
C      1  0.4359890000000  0.4403300000000  0.4527860000000 1.0
C      1  0.4742640000000  0.5563400000000  0.5213440000000 1.0
C      1  0.5222430000000  0.4862880000000  0.4373570000000 1.0
C      1  0.4600440000000  0.5063950000000  0.5062610000000 1.0
C      1  0.5144410000000  0.4864110000000  0.5764250000000 1.0
C      1  0.5093490000000  0.5286960000000  0.5753930000000 1.0
C      1  0.5745730000000  0.4666980000000  0.5045070000000 1.0
C      1  0.5151590000000  0.5373790000000  0.4508840000000 1.0
C      1  0.5190980000000  0.4537670000000  0.4444910000000 1.0
C      1  0.4848330000000  0.4723800000000  0.5871980000000 1.0
C      1  0.4853870000000  0.5238880000000  0.4489460000000 1.0
C      1  0.4138330000000  0.4732430000000  0.5168200000000 1.0
C      1  0.4901520000000  0.4416680000000  0.4576150000000 1.0
C      1  0.5719690000000  0.4949000000000  0.5563800000000 1.0
C      1  0.4618870000000  0.5574890000000  0.4382590000000 1.0
C      1  0.4570760000000  0.5316900000000  0.4618680000000 1.0
C      1  0.4977590000000  0.4826430000000  0.5498940000000 1.0
C      1  0.4798520000000  0.4528110000000  0.4151260000000 1.0
C      1  0.5416840000000  0.5079180000000  0.5409880000000 1.0
C      1  0.5452820000000  0.5221020000000  0.5039270000000 1.0
C      1  0.5316040000000  0.4159240000000  0.5248290000000 1.0
C      1  0.5462750000000  0.4671320000000  0.5381280000000 1.0
C      1  0.4361180000000  0.5183590000000  0.5262450000000 1.0
C      1  0.5571440000000  0.4373210000000  0.4435400000000 1.0
C      1  0.5734800000000  0.5191500000000  0.4754820000000 1.0
C      1  0.4653950000000  0.4798160000000  0.5267960000000 1.0
C      1  0.4453360000000  0.4178760000000  0.5193840000000 1.0
C      1  0.4841260000000  0.4686140000000  0.4726650000000 1.0
C      1  0.4841380000000  0.4796330000000  0.4025460000000 1.0
C      1  0.5561750000000  0.4587970000000  0.4303940000000 1.0
C      1  0.4116370000000  0.5338650000000  0.4864330000000 1.0
C      1  0.4419500000000  0.5862870000000  0.5024880000000 1.0
C      1  0.5900280000000  0.4943600000000  0.4608530000000 1.0
C      1  0.4074700000000  0.4638240000000  0.4874690000000 1.0
C      1  0.5137300000000  0.5692450000000  0.4392990000000 1.0
C      1  0.5045400000000  0.4043240000000  0.5078220000000 1.0
C      1  0.4902440000000  0.4534500000000  0.5435680000000 1.0
C      1  0.4105760000000  0.5067100000000  0.5070640000000 1.0
C      1  0.3980380000000  0.4840450000000  0.4715530000000 1.0
C      1  0.4338480000000  0.4500290000000  0.5281160000000 1.0
C      1  0.4625010000000  0.4542240000000  0.4422700000000 1.0
C      1  0.5151100000000  0.4942370000000  0.5290100000000 1.0
C      1  0.4876750000000  0.5956450000000  0.4935450000000 1.0
C      1  0.4684950000000  0.5858020000000  0.5115940000000 1.0
C      1  0.4644640000000  0.5379730000000  0.4944560000000 1.0
C      1  0.4910710000000  0.5054320000000  0.5921780000000 1.0
C      1  0.4339590000000  0.5072100000000  0.4404750000000 1.0
C      1  0.5384350000000  0.5324920000000  0.5805970000000 1.0
C      1  0.4712940000000  0.4103230000000  0.5038050000000 1.0
C      1  0.5416040000000  0.5615250000000  0.5343780000000 1.0
C      1  0.5459990000000  0.4469050000000  0.5654630000000 1.0
C      1  0.5363850000000  0.5703950000000  0.5034920000000 1.0
C      1  0.5556070000000  0.4925400000000  0.4348400000000 1.0
C      1  0.4580950000000  0.5252750000000  0.4284930000000 1.0
C      1  0.4943310000000  0.4275930000000  0.4852050000000 1.0
C      1  0.5629880000000  0.5256850000000  0.4376710000000 1.0
C      1  0.5280660000000  0.3958480000000  0.4847650000000 1.0
C      1  0.4611580000000  0.5186980000000  0.5942280000000 1.0
C      1  0.5149460000000  0.5672640000000  0.5664290000000 1.0
C      1  0.5198100000000  0.5173700000000  0.4237840000000 1.0
C      1  0.4519780000000  0.4760710000000  0.5792640000000 1.0
C      1  0.5946670000000  0.4633370000000  0.5274960000000 1.0
C      1  0.4968670000000  0.5520800000000  0.4755030000000 1.0
C      1  0.5859990000000  0.4667560000000  0.4733250000000 1.0
C      1  0.5524590000000  0.5536160000000  0.4547820000000 1.0
C      1  0.5844480000000  0.5639980000000  0.5070490000000 1.0
C      1  0.4971100000000  0.4218950000000  0.5669180000000 1.0
C      1  0.4517790000000  0.4611820000000  0.5507690000000 1.0
C      1  0.5131940000000  0.5170200000000  0.3973840000000 1.0
C      1  0.4816330000000  0.4533280000000  0.5129690000000 1.0
C      1  0.5205710000000  0.5415250000000  0.5459730000000 1.0
C      1  0.5585700000000  0.5325640000000  0.5561340000000 1.0
C      1  0.4267760000000  0.4454900000000  0.4781850000000 1.0
C      1  0.4415930000000  0.5016040000000  0.5826280000000 1.0
C      1  0.4948340000000  0.4993300000000  0.3857160000000 1.0
C      1  0.5125660000000  0.4528510000000  0.4988370000000 1.0
C      1  0.5275230000000  0.4948860000000  0.4698280000000 1.0
C      1  0.5698520000000  0.5639250000000  0.5529700000000 1.0
C      1  0.5909500000000  0.5210280000000  0.5033100000000 1.0
C      1  0.4453760000000  0.4968970000000  0.4770860000000 1.0
C      1  0.4331280000000  0.5602390000000  0.4850380000000 1.0
C      1  0.5214940000000  0.4828470000000  0.4996920000000 1.0
C      1  0.5442040000000  0.4800260000000  0.5693820000000 1.0
C      1  0.4583280000000  0.4858220000000  0.4475450000000 1.0
C      1  0.5790080000000  0.5184800000000  0.5328930000000 1.0
C      1  0.5405130000000  0.5259140000000  0.4704780000000 1.0
C      1  0.5005920000000  0.5505200000000  0.5058970000000 1.0
C      1  0.4941280000000  0.4962530000000  0.4649220000000 1.0
END
