TITL C-2848499-1157-691 -0.000504730694418047 125000 -259.374285317948 0 0 46 (C1) n - 1
REM
REM in /home/bkarasulu/work/CARBON/AIRSS/Generating-Clusters/AIREBO/with-SteepDescent/Only-C1/SD-CG-opt/Try1-1.4A-POS3A/HFTN-CG
REM
REM
REM
REM
REM
REM ./C.cell (11c1c37f851c82e70ff6c80c92926a4b)
REM
REM compiler GCC version 9.2.1 20190827 (Red Hat 9.2.1-1)
REM options -cpp -mtune=generic -march=x86-64 -g -O0 -fpre-include=/usr/include/finclude/math-vector-fortran.h
REM seed 896357817 -2073936389 458101377 -758789275 -526314684 -220918328 334739979 1483636068 1893952592 630185368 -1410829852 -1093067627 1520040858 1913948852 -1405904491 499801429 -1245459228 -294660067 1354218359 -1633683526 -47363370 1346645833 704179727 153804114 -744774527 1708530071 -311812569 -1465445248 -284311395 -1365560590 309341882 732998883 -295788841
REM
CELL 1.54180   50.00000   50.00000   50.00000   90.00000   90.00000   90.00000
LATT -1
SFAC C  
C      1  0.4950110000000  0.4875680000000  0.5054730000000 1.0
C      1  0.4441690000000  0.5179760000000  0.4951980000000 1.0
C      1  0.5035400000000  0.4594590000000  0.5164430000000 1.0
C      1  0.5254740000000  0.5181370000000  0.5590360000000 1.0
C      1  0.5532120000000  0.4713980000000  0.5342110000000 1.0
C      1  0.5327120000000  0.4552640000000  0.5139430000000 1.0
C      1  0.5068870000000  0.4915010000000  0.4621860000000 1.0
C      1  0.5008740000000  0.4884900000000  0.5835520000000 1.0
C      1  0.5213230000000  0.5073540000000  0.5849330000000 1.0
C      1  0.5310250000000  0.5440780000000  0.5066670000000 1.0
C      1  0.4646180000000  0.4556070000000  0.5230570000000 1.0
C      1  0.5583940000000  0.4989940000000  0.5290700000000 1.0
C      1  0.4642850000000  0.4494990000000  0.4726120000000 1.0
C      1  0.4527220000000  0.4911510000000  0.4972590000000 1.0
C      1  0.5411720000000  0.4389110000000  0.4876850000000 1.0
C      1  0.5370730000000  0.5512040000000  0.4756310000000 1.0
C      1  0.5085860000000  0.5185830000000  0.5086320000000 1.0
C      1  0.5625800000000  0.5042950000000  0.4995930000000 1.0
C      1  0.4617290000000  0.5346270000000  0.5106370000000 1.0
C      1  0.4777500000000  0.4469940000000  0.4976910000000 1.0
C      1  0.5462190000000  0.4779000000000  0.4954400000000 1.0
C      1  0.5292370000000  0.5501490000000  0.4427510000000 1.0
C      1  0.4982600000000  0.5149620000000  0.5408550000000 1.0
C      1  0.4482150000000  0.5020520000000  0.4488640000000 1.0
C      1  0.5486890000000  0.5215560000000  0.5434980000000 1.0
C      1  0.5087590000000  0.5642470000000  0.4619720000000 1.0
C      1  0.5360990000000  0.4478010000000  0.4625220000000 1.0
C      1  0.5196780000000  0.4656680000000  0.4505390000000 1.0
C      1  0.4529460000000  0.5502920000000  0.4577560000000 1.0
C      1  0.4451260000000  0.4746470000000  0.5180110000000 1.0
C      1  0.4873730000000  0.4590390000000  0.5453540000000 1.0
C      1  0.4841680000000  0.5489600000000  0.4687490000000 1.0
C      1  0.5257650000000  0.5020370000000  0.4843840000000 1.0
C      1  0.4730700000000  0.5254320000000  0.4462090000000 1.0
C      1  0.4219840000000  0.4766140000000  0.5314810000000 1.0
C      1  0.4805610000000  0.4852820000000  0.4786160000000 1.0
C      1  0.4919170000000  0.4862950000000  0.5574830000000 1.0
C      1  0.5479720000000  0.5450980000000  0.5277150000000 1.0
C      1  0.4695810000000  0.5303220000000  0.5379700000000 1.0
C      1  0.4558060000000  0.4774040000000  0.4598590000000 1.0
C      1  0.5195360000000  0.5274470000000  0.4294090000000 1.0
C      1  0.4855760000000  0.5380850000000  0.4962440000000 1.0
C      1  0.5001980000000  0.5123760000000  0.4412290000000 1.0
C      1  0.5506330000000  0.5229440000000  0.4791840000000 1.0
C      1  0.4900810000000  0.4374170000000  0.5627960000000 1.0
C      1  0.4394150000000  0.5248820000000  0.4676010000000 1.0
END
