TITL C-2847948-6138-459 0.00228996864895612 125000 -1044.96962037644 0 0 193 (C1) n - 1
REM
REM in /home/bkarasulu/work/CARBON/AIRSS/Generating-Clusters/AIREBO/with-SteepDescent/Only-C1/SD-CG-opt/Try1-1.4A-POS3A/HFTN-CG
REM
REM
REM
REM
REM
REM ./C.cell (11c1c37f851c82e70ff6c80c92926a4b)
REM
REM compiler GCC version 9.2.1 20190827 (Red Hat 9.2.1-1)
REM options -cpp -mtune=generic -march=x86-64 -g -O0 -fpre-include=/usr/include/finclude/math-vector-fortran.h
REM seed 512663922 -188268276 -1323167071 178200639 10781212 -810443116 -1682882353 -1236500548 227335071 -1879698513 -1195478213 1709220671 -497190460 -199235050 1080061415 1207363895 -745726326 1309605546 -696594260 50765005 841351954 -1750341537 613761219 1538558899 -244211943 2127473701 -1688677614 1228634536 -247744481 -1140197659 -500519972 -1762656676 188977191
REM
CELL 1.54180   50.00000   50.00000   50.00000   90.00000   90.00000   90.00000
LATT -1
SFAC C  
C      1  0.5730600000000  0.4373680000000  0.5891880000000 1.0
C      1  0.4400580000000  0.6017920000000  0.4892660000000 1.0
C      1  0.3979970000000  0.4667230000000  0.5357510000000 1.0
C      1  0.5802540000000  0.4732420000000  0.5049020000000 1.0
C      1  0.5762420000000  0.5145940000000  0.4344910000000 1.0
C      1  0.5678260000000  0.4711540000000  0.5897580000000 1.0
C      1  0.4365050000000  0.4532840000000  0.4348410000000 1.0
C      1  0.4853930000000  0.6072210000000  0.5609680000000 1.0
C      1  0.5333700000000  0.5996530000000  0.4409070000000 1.0
C      1  0.5183550000000  0.5414580000000  0.5980530000000 1.0
C      1  0.5840300000000  0.5193220000000  0.4731630000000 1.0
C      1  0.5475690000000  0.5293050000000  0.4112250000000 1.0
C      1  0.4906520000000  0.4350050000000  0.3901880000000 1.0
C      1  0.5069890000000  0.4996660000000  0.5194220000000 1.0
C      1  0.4973080000000  0.5671480000000  0.4957880000000 1.0
C      1  0.5224590000000  0.5389230000000  0.4283340000000 1.0
C      1  0.6026030000000  0.4940220000000  0.4793130000000 1.0
C      1  0.5094490000000  0.4113890000000  0.5690440000000 1.0
C      1  0.4698750000000  0.4110730000000  0.4354700000000 1.0
C      1  0.4239190000000  0.5387660000000  0.4367770000000 1.0
C      1  0.5164980000000  0.5649300000000  0.5737910000000 1.0
C      1  0.3814220000000  0.5020220000000  0.5445430000000 1.0
C      1  0.4867890000000  0.3803030000000  0.5126160000000 1.0
C      1  0.4256250000000  0.4845030000000  0.4291440000000 1.0
C      1  0.5929830000000  0.4677310000000  0.5351710000000 1.0
C      1  0.4574290000000  0.4960110000000  0.5847480000000 1.0
C      1  0.6032740000000  0.4612990000000  0.4784080000000 1.0
C      1  0.4812650000000  0.5044190000000  0.5381580000000 1.0
C      1  0.4951380000000  0.4995470000000  0.6189780000000 1.0
C      1  0.5838980000000  0.4219680000000  0.5171870000000 1.0
C      1  0.5246440000000  0.4491660000000  0.5908420000000 1.0
C      1  0.4747510000000  0.4768690000000  0.5065910000000 1.0
C      1  0.4312940000000  0.4751210000000  0.5153910000000 1.0
C      1  0.4398330000000  0.4764520000000  0.4838140000000 1.0
C      1  0.4055020000000  0.5388260000000  0.4829310000000 1.0
C      1  0.5029240000000  0.5919160000000  0.4441450000000 1.0
C      1  0.5533140000000  0.5287070000000  0.5696290000000 1.0
C      1  0.5571880000000  0.4367600000000  0.4891910000000 1.0
C      1  0.5546940000000  0.4141680000000  0.5104090000000 1.0
C      1  0.5252630000000  0.6202510000000  0.5025320000000 1.0
C      1  0.4831590000000  0.4793980000000  0.5946770000000 1.0
C      1  0.6263020000000  0.5009780000000  0.5245980000000 1.0
C      1  0.4668150000000  0.4522170000000  0.5508700000000 1.0
C      1  0.4228210000000  0.5579120000000  0.5446620000000 1.0
C      1  0.4069230000000  0.4926730000000  0.4994110000000 1.0
C      1  0.5813390000000  0.4990020000000  0.5354270000000 1.0
C      1  0.5618380000000  0.5025590000000  0.5896230000000 1.0
C      1  0.5331450000000  0.4606360000000  0.4347940000000 1.0
C      1  0.5117920000000  0.5720400000000  0.4668190000000 1.0
C      1  0.5219420000000  0.4086200000000  0.4276490000000 1.0
C      1  0.4545710000000  0.5323250000000  0.4918970000000 1.0
C      1  0.5037490000000  0.5139850000000  0.5590000000000 1.0
C      1  0.5233900000000  0.4380150000000  0.4682850000000 1.0
C      1  0.5117340000000  0.3977750000000  0.4724730000000 1.0
C      1  0.5641260000000  0.4215130000000  0.5622200000000 1.0
C      1  0.5989950000000  0.5115800000000  0.5092070000000 1.0
C      1  0.4845240000000  0.4196530000000  0.5107810000000 1.0
C      1  0.3930880000000  0.5133480000000  0.5199290000000 1.0
C      1  0.5105700000000  0.5972470000000  0.5664980000000 1.0
C      1  0.5386530000000  0.5021100000000  0.4695770000000 1.0
C      1  0.4637140000000  0.4724170000000  0.4303980000000 1.0
C      1  0.4564430000000  0.5370790000000  0.5390330000000 1.0
C      1  0.3762350000000  0.5413070000000  0.4987210000000 1.0
C      1  0.5473620000000  0.5897250000000  0.4627980000000 1.0
C      1  0.4715730000000  0.5053760000000  0.3796030000000 1.0
C      1  0.4711080000000  0.4799660000000  0.4001110000000 1.0
C      1  0.4454850000000  0.4498150000000  0.5244770000000 1.0
C      1  0.4642310000000  0.4187780000000  0.5451780000000 1.0
C      1  0.5888790000000  0.5663260000000  0.5204220000000 1.0
C      1  0.5529460000000  0.4238460000000  0.4592170000000 1.0
C      1  0.5729250000000  0.5554400000000  0.5457040000000 1.0
C      1  0.5577000000000  0.5614110000000  0.4608270000000 1.0
C      1  0.4543400000000  0.5661520000000  0.4161320000000 1.0
C      1  0.5160370000000  0.4892990000000  0.4282880000000 1.0
C      1  0.5382600000000  0.4622510000000  0.4960920000000 1.0
C      1  0.4706540000000  0.5924190000000  0.5366750000000 1.0
C      1  0.5315420000000  0.4023580000000  0.4526420000000 1.0
C      1  0.4315310000000  0.4560600000000  0.5696270000000 1.0
C      1  0.4992240000000  0.5429260000000  0.4037940000000 1.0
C      1  0.4862530000000  0.5741910000000  0.4249920000000 1.0
C      1  0.5202340000000  0.4749690000000  0.5386760000000 1.0
C      1  0.4677350000000  0.3979380000000  0.4906420000000 1.0
C      1  0.4532290000000  0.5807210000000  0.4462960000000 1.0
C      1  0.4794410000000  0.4974940000000  0.4594520000000 1.0
C      1  0.4801260000000  0.5448980000000  0.4766640000000 1.0
C      1  0.5017580000000  0.5739850000000  0.3955800000000 1.0
C      1  0.4032540000000  0.4701770000000  0.4490080000000 1.0
C      1  0.4347180000000  0.5106230000000  0.4459150000000 1.0
C      1  0.5561320000000  0.5481750000000  0.5064490000000 1.0
C      1  0.5456380000000  0.5788570000000  0.5631220000000 1.0
C      1  0.4366730000000  0.5736780000000  0.4704800000000 1.0
C      1  0.5243200000000  0.5716340000000  0.5145510000000 1.0
C      1  0.5067990000000  0.5333560000000  0.5147720000000 1.0
C      1  0.5661370000000  0.4853370000000  0.4620350000000 1.0
C      1  0.4967560000000  0.4147720000000  0.5409560000000 1.0
C      1  0.4357310000000  0.5512420000000  0.5780360000000 1.0
C      1  0.5064050000000  0.5028970000000  0.4706920000000 1.0
C      1  0.4731730000000  0.5532570000000  0.4484060000000 1.0
C      1  0.4261290000000  0.5302700000000  0.5050480000000 1.0
C      1  0.4167470000000  0.5541970000000  0.4608330000000 1.0
C      1  0.4801390000000  0.4500420000000  0.5821000000000 1.0
C      1  0.5905420000000  0.5407370000000  0.5623440000000 1.0
C      1  0.4668750000000  0.5206310000000  0.4411590000000 1.0
C      1  0.5527320000000  0.6060030000000  0.5165030000000 1.0
C      1  0.4731490000000  0.5297210000000  0.3922310000000 1.0
C      1  0.5229820000000  0.4196350000000  0.5215670000000 1.0
C      1  0.4545940000000  0.5696360000000  0.5479540000000 1.0
C      1  0.5542670000000  0.5550560000000  0.5809230000000 1.0
C      1  0.4175810000000  0.4282100000000  0.4483470000000 1.0
C      1  0.5289590000000  0.5472420000000  0.4569440000000 1.0
C      1  0.5328470000000  0.5195710000000  0.5470620000000 1.0
C      1  0.4707180000000  0.4399370000000  0.4732160000000 1.0
C      1  0.4946470000000  0.5258950000000  0.6091210000000 1.0
C      1  0.5740440000000  0.4516780000000  0.5524230000000 1.0
C      1  0.5821660000000  0.5120010000000  0.5638240000000 1.0
C      1  0.5148360000000  0.3920180000000  0.5034790000000 1.0
C      1  0.4168030000000  0.4590630000000  0.4733670000000 1.0
C      1  0.5436530000000  0.4631440000000  0.4625740000000 1.0
C      1  0.4553880000000  0.4340320000000  0.5015210000000 1.0
C      1  0.5411700000000  0.3861770000000  0.5241910000000 1.0
C      1  0.4825360000000  0.4098900000000  0.4640500000000 1.0
C      1  0.5027850000000  0.4331090000000  0.5856840000000 1.0
C      1  0.4007860000000  0.5453010000000  0.5220160000000 1.0
C      1  0.4971410000000  0.5174710000000  0.4259720000000 1.0
C      1  0.5289290000000  0.5905480000000  0.4886880000000 1.0
C      1  0.4115970000000  0.4923410000000  0.5482520000000 1.0
C      1  0.5300450000000  0.5120540000000  0.5970770000000 1.0
C      1  0.4448740000000  0.4211920000000  0.4347460000000 1.0
C      1  0.5849170000000  0.5588910000000  0.4811440000000 1.0
C      1  0.4628710000000  0.3906110000000  0.5295800000000 1.0
C      1  0.4100900000000  0.4982590000000  0.4662600000000 1.0
C      1  0.4074920000000  0.4403940000000  0.5324320000000 1.0
C      1  0.5442670000000  0.5064680000000  0.4363150000000 1.0
C      1  0.4909160000000  0.4656160000000  0.5329060000000 1.0
C      1  0.5737660000000  0.4646220000000  0.4363590000000 1.0
C      1  0.4015560000000  0.4265400000000  0.5098190000000 1.0
C      1  0.4358010000000  0.4093630000000  0.4931510000000 1.0
C      1  0.5079890000000  0.5507460000000  0.5440910000000 1.0
C      1  0.5540440000000  0.4750750000000  0.5598710000000 1.0
C      1  0.4992620000000  0.4584160000000  0.4737360000000 1.0
C      1  0.5938660000000  0.4431240000000  0.5036780000000 1.0
C      1  0.4872980000000  0.6109570000000  0.4627330000000 1.0
C      1  0.5789960000000  0.4451950000000  0.4638640000000 1.0
C      1  0.3830760000000  0.5158240000000  0.4771680000000 1.0
C      1  0.4942600000000  0.6098240000000  0.4932020000000 1.0
C      1  0.5125270000000  0.4824920000000  0.4937700000000 1.0
C      1  0.5829180000000  0.5425670000000  0.4519040000000 1.0
C      1  0.4639690000000  0.5647920000000  0.5781470000000 1.0
C      1  0.5529370000000  0.4926060000000  0.4989550000000 1.0
C      1  0.5103390000000  0.4399040000000  0.4254210000000 1.0
C      1  0.6229860000000  0.4782800000000  0.5360820000000 1.0
C      1  0.5477790000000  0.4943040000000  0.5325340000000 1.0
C      1  0.5944100000000  0.4906550000000  0.4464650000000 1.0
C      1  0.6042850000000  0.5445100000000  0.5024410000000 1.0
C      1  0.4395930000000  0.5246910000000  0.5900030000000 1.0
C      1  0.5018190000000  0.5955640000000  0.5233490000000 1.0
C      1  0.5244010000000  0.4712180000000  0.5707620000000 1.0
C      1  0.4618190000000  0.6099980000000  0.4513400000000 1.0
C      1  0.4942160000000  0.4655780000000  0.4408150000000 1.0
C      1  0.5096200000000  0.5324180000000  0.4806570000000 1.0
C      1  0.4558560000000  0.5019680000000  0.4995850000000 1.0
C      1  0.5527950000000  0.4674300000000  0.4096070000000 1.0
C      1  0.4388630000000  0.3874350000000  0.5162240000000 1.0
C      1  0.5891130000000  0.4158380000000  0.5430730000000 1.0
C      1  0.4813950000000  0.5394490000000  0.5620140000000 1.0
C      1  0.4666020000000  0.5967750000000  0.5050790000000 1.0
C      1  0.4724180000000  0.5249680000000  0.5896650000000 1.0
C      1  0.5376160000000  0.4084700000000  0.5502180000000 1.0
C      1  0.4953910000000  0.4629570000000  0.3903970000000 1.0
C      1  0.5483400000000  0.4490920000000  0.6046900000000 1.0
C      1  0.4488920000000  0.4791130000000  0.5614460000000 1.0
C      1  0.4862160000000  0.4200570000000  0.4156310000000 1.0
C      1  0.4137480000000  0.4279430000000  0.4798540000000 1.0
C      1  0.5679000000000  0.5874640000000  0.5388590000000 1.0
C      1  0.4296060000000  0.5721940000000  0.5171380000000 1.0
C      1  0.4624640000000  0.4705550000000  0.4643250000000 1.0
C      1  0.4328660000000  0.4312400000000  0.5500060000000 1.0
C      1  0.4292760000000  0.5187180000000  0.5360580000000 1.0
C      1  0.5658830000000  0.5800610000000  0.4997630000000 1.0
C      1  0.4494410000000  0.5325430000000  0.4145040000000 1.0
C      1  0.5094840000000  0.4945960000000  0.5820690000000 1.0
C      1  0.3806140000000  0.4760830000000  0.5131460000000 1.0
C      1  0.5408770000000  0.5504890000000  0.5354150000000 1.0
C      1  0.5412020000000  0.5246730000000  0.3818480000000 1.0
C      1  0.5303990000000  0.6004870000000  0.5411160000000 1.0
C      1  0.5785880000000  0.5403560000000  0.4139970000000 1.0
C      1  0.4778770000000  0.5510030000000  0.5179910000000 1.0
C      1  0.4515630000000  0.4958750000000  0.5328550000000 1.0
C      1  0.4541270000000  0.5656900000000  0.4985530000000 1.0
C      1  0.4440510000000  0.4996120000000  0.4078690000000 1.0
C      1  0.4923180000000  0.4486470000000  0.5055580000000 1.0
C      1  0.5206860000000  0.4727320000000  0.3989560000000 1.0
C      1  0.5679660000000  0.5223760000000  0.5003990000000 1.0
END
