TITL C-2847953-8112-208 0.00372934688662143 125000 -1035.13834112977 0 0 191 (C1) n - 1
REM
REM in /home/bkarasulu/work/CARBON/AIRSS/Generating-Clusters/AIREBO/with-SteepDescent/Only-C1/SD-CG-opt/Try1-1.4A-POS3A/HFTN-CG
REM
REM
REM
REM
REM
REM ./C.cell (11c1c37f851c82e70ff6c80c92926a4b)
REM
REM compiler GCC version 9.2.1 20190827 (Red Hat 9.2.1-1)
REM options -cpp -mtune=generic -march=x86-64 -g -O0 -fpre-include=/usr/include/finclude/math-vector-fortran.h
REM seed 1540619173 -135601002 -618726696 -1103104298 -2073516196 -1548890487 2071007975 -1320089072 1872631161 -1123283931 1467780970 66096346 -559414547 -748597711 2080604103 1663888973 1957061005 2110184428 776608080 -1763521342 202562184 445942758 1602364156 814373441 -94962796 28462979 -1245669158 1751626336 -280873538 1540338772 -1482786473 1109673896 -1359665709
REM
CELL 1.54180   50.00000   50.00000   50.00000   90.00000   90.00000   90.00000
LATT -1
SFAC C  
C      1  0.5636620000000  0.5802290000000  0.4801280000000 1.0
C      1  0.5431190000000  0.4180540000000  0.4907810000000 1.0
C      1  0.4544480000000  0.5279620000000  0.5662820000000 1.0
C      1  0.5012660000000  0.3901970000000  0.4835310000000 1.0
C      1  0.5255940000000  0.5488780000000  0.5515540000000 1.0
C      1  0.4453490000000  0.5241300000000  0.5246410000000 1.0
C      1  0.4226300000000  0.5564460000000  0.4968610000000 1.0
C      1  0.5459110000000  0.5121940000000  0.5745520000000 1.0
C      1  0.4954340000000  0.5010150000000  0.4354810000000 1.0
C      1  0.4778010000000  0.4119300000000  0.5259710000000 1.0
C      1  0.5398100000000  0.4491470000000  0.4274680000000 1.0
C      1  0.4573570000000  0.4177860000000  0.5516100000000 1.0
C      1  0.4346970000000  0.5524700000000  0.4300450000000 1.0
C      1  0.5265300000000  0.5151750000000  0.5471270000000 1.0
C      1  0.5404980000000  0.4808700000000  0.3841470000000 1.0
C      1  0.5757340000000  0.5627100000000  0.5641930000000 1.0
C      1  0.4510340000000  0.4817750000000  0.4130170000000 1.0
C      1  0.4737340000000  0.5175890000000  0.5120190000000 1.0
C      1  0.4292970000000  0.4324460000000  0.5475950000000 1.0
C      1  0.3926820000000  0.5557160000000  0.5232050000000 1.0
C      1  0.5679000000000  0.4708980000000  0.5281130000000 1.0
C      1  0.4358240000000  0.4984700000000  0.4631560000000 1.0
C      1  0.5019260000000  0.5892840000000  0.4671990000000 1.0
C      1  0.4807300000000  0.4747970000000  0.4207420000000 1.0
C      1  0.4731290000000  0.5861590000000  0.4945180000000 1.0
C      1  0.5383780000000  0.4613640000000  0.5896110000000 1.0
C      1  0.4896070000000  0.4395710000000  0.5181650000000 1.0
C      1  0.4930310000000  0.4626120000000  0.5426160000000 1.0
C      1  0.4623730000000  0.4359100000000  0.4109140000000 1.0
C      1  0.5346380000000  0.4868830000000  0.5030680000000 1.0
C      1  0.4551480000000  0.5232780000000  0.4502160000000 1.0
C      1  0.4469380000000  0.3954070000000  0.4551620000000 1.0
C      1  0.4617660000000  0.4193090000000  0.4360590000000 1.0
C      1  0.4888120000000  0.5735110000000  0.5577680000000 1.0
C      1  0.4552600000000  0.5093020000000  0.4888670000000 1.0
C      1  0.5521010000000  0.4404610000000  0.5694660000000 1.0
C      1  0.5339240000000  0.5161540000000  0.4487480000000 1.0
C      1  0.4839330000000  0.4702890000000  0.5046720000000 1.0
C      1  0.5163170000000  0.6027680000000  0.4435420000000 1.0
C      1  0.5579370000000  0.4047780000000  0.4496600000000 1.0
C      1  0.4668710000000  0.5563390000000  0.5772700000000 1.0
C      1  0.3998100000000  0.4402610000000  0.5052100000000 1.0
C      1  0.4164890000000  0.4588590000000  0.5503500000000 1.0
C      1  0.5311500000000  0.5493520000000  0.4454560000000 1.0
C      1  0.4786800000000  0.3926430000000  0.4428900000000 1.0
C      1  0.5133200000000  0.4319180000000  0.4518840000000 1.0
C      1  0.5210480000000  0.4403550000000  0.5603510000000 1.0
C      1  0.3810130000000  0.5043740000000  0.5580770000000 1.0
C      1  0.3915810000000  0.5174490000000  0.4813240000000 1.0
C      1  0.4408480000000  0.3938020000000  0.4884750000000 1.0
C      1  0.5449770000000  0.6012670000000  0.5256200000000 1.0
C      1  0.4161190000000  0.5528650000000  0.4552460000000 1.0
C      1  0.4313280000000  0.4504720000000  0.4471630000000 1.0
C      1  0.5171280000000  0.5760540000000  0.5390430000000 1.0
C      1  0.5812000000000  0.5020680000000  0.4372640000000 1.0
C      1  0.6069820000000  0.4655910000000  0.4932310000000 1.0
C      1  0.4691720000000  0.4471490000000  0.5929890000000 1.0
C      1  0.4845060000000  0.5472050000000  0.6035460000000 1.0
C      1  0.5049740000000  0.4949320000000  0.5028980000000 1.0
C      1  0.5525170000000  0.5021380000000  0.4711940000000 1.0
C      1  0.3788430000000  0.4498270000000  0.4644320000000 1.0
C      1  0.5581180000000  0.5690760000000  0.4484530000000 1.0
C      1  0.5968270000000  0.5495750000000  0.5084770000000 1.0
C      1  0.4452210000000  0.4335140000000  0.5180510000000 1.0
C      1  0.5820880000000  0.4528070000000  0.5606040000000 1.0
C      1  0.5666010000000  0.4297710000000  0.4323250000000 1.0
C      1  0.5064530000000  0.3993020000000  0.4451020000000 1.0
C      1  0.5182920000000  0.4869360000000  0.4563590000000 1.0
C      1  0.5873250000000  0.4354400000000  0.5318260000000 1.0
C      1  0.4758780000000  0.6244300000000  0.5290740000000 1.0
C      1  0.4714840000000  0.5704830000000  0.5312500000000 1.0
C      1  0.4023880000000  0.5001130000000  0.5092300000000 1.0
C      1  0.4312120000000  0.4965620000000  0.5386500000000 1.0
C      1  0.4086750000000  0.5441060000000  0.5426630000000 1.0
C      1  0.4470000000000  0.5519990000000  0.5354600000000 1.0
C      1  0.5474430000000  0.4934330000000  0.5314410000000 1.0
C      1  0.5022340000000  0.5377300000000  0.5691630000000 1.0
C      1  0.4728970000000  0.5241350000000  0.4232070000000 1.0
C      1  0.4691170000000  0.4413880000000  0.4563190000000 1.0
C      1  0.5922240000000  0.5618750000000  0.4782620000000 1.0
C      1  0.5416080000000  0.5256670000000  0.4079340000000 1.0
C      1  0.5286600000000  0.3955410000000  0.5327580000000 1.0
C      1  0.4077390000000  0.5140610000000  0.4567840000000 1.0
C      1  0.5026970000000  0.5131470000000  0.3831680000000 1.0
C      1  0.5682230000000  0.5387100000000  0.4716780000000 1.0
C      1  0.5908290000000  0.4404630000000  0.5024240000000 1.0
C      1  0.4416780000000  0.4552620000000  0.4172990000000 1.0
C      1  0.5816520000000  0.4528780000000  0.4522220000000 1.0
C      1  0.5063940000000  0.5687130000000  0.6074320000000 1.0
C      1  0.4038150000000  0.5139700000000  0.5402990000000 1.0
C      1  0.5142820000000  0.4302360000000  0.4177230000000 1.0
C      1  0.4743070000000  0.4218410000000  0.5737370000000 1.0
C      1  0.4333090000000  0.5535320000000  0.5641820000000 1.0
C      1  0.5210820000000  0.4396830000000  0.5263550000000 1.0
C      1  0.5765850000000  0.4714250000000  0.5885270000000 1.0
C      1  0.4537930000000  0.5935720000000  0.4538580000000 1.0
C      1  0.4563270000000  0.4827600000000  0.5203230000000 1.0
C      1  0.4957370000000  0.4226390000000  0.4794700000000 1.0
C      1  0.4755780000000  0.4995780000000  0.4630530000000 1.0
C      1  0.3926680000000  0.5438610000000  0.4945140000000 1.0
C      1  0.5479120000000  0.4106470000000  0.5204740000000 1.0
C      1  0.4054040000000  0.4688270000000  0.5224530000000 1.0
C      1  0.5931280000000  0.4979570000000  0.5129940000000 1.0
C      1  0.5029520000000  0.4646570000000  0.4770440000000 1.0
C      1  0.4522970000000  0.4580070000000  0.5677610000000 1.0
C      1  0.5750740000000  0.4871420000000  0.4145000000000 1.0
C      1  0.5187710000000  0.4771610000000  0.5382460000000 1.0
C      1  0.4623650000000  0.4267420000000  0.4845020000000 1.0
C      1  0.4389900000000  0.5764630000000  0.4747710000000 1.0
C      1  0.5843560000000  0.5366820000000  0.5440710000000 1.0
C      1  0.4444650000000  0.5084000000000  0.4150320000000 1.0
C      1  0.4218290000000  0.5234380000000  0.4284130000000 1.0
C      1  0.4734660000000  0.5022160000000  0.5423490000000 1.0
C      1  0.5173090000000  0.6086730000000  0.5072930000000 1.0
C      1  0.4296320000000  0.4719120000000  0.5021880000000 1.0
C      1  0.5200180000000  0.5045290000000  0.6030550000000 1.0
C      1  0.5708140000000  0.4315070000000  0.4763590000000 1.0
C      1  0.5663930000000  0.5875040000000  0.5134010000000 1.0
C      1  0.4905740000000  0.5468740000000  0.5158950000000 1.0
C      1  0.4468430000000  0.5049080000000  0.5826240000000 1.0
C      1  0.4918230000000  0.4487460000000  0.4038110000000 1.0
C      1  0.5523470000000  0.5441930000000  0.5376620000000 1.0
C      1  0.4867170000000  0.5518090000000  0.4174570000000 1.0
C      1  0.5465040000000  0.5744110000000  0.5741160000000 1.0
C      1  0.4602110000000  0.4557840000000  0.5389210000000 1.0
C      1  0.3775340000000  0.4386310000000  0.4896700000000 1.0
C      1  0.5197940000000  0.4394570000000  0.4925570000000 1.0
C      1  0.4606520000000  0.5985940000000  0.5207850000000 1.0
C      1  0.5774890000000  0.4595910000000  0.4194940000000 1.0
C      1  0.5621490000000  0.5496270000000  0.4206060000000 1.0
C      1  0.4857100000000  0.5610610000000  0.4618870000000 1.0
C      1  0.5206220000000  0.4670940000000  0.4058780000000 1.0
C      1  0.4261080000000  0.5227710000000  0.5002070000000 1.0
C      1  0.4988970000000  0.5142700000000  0.4793640000000 1.0
C      1  0.5026860000000  0.3997890000000  0.5429710000000 1.0
C      1  0.5010020000000  0.4161120000000  0.5668290000000 1.0
C      1  0.4248110000000  0.4225690000000  0.4973340000000 1.0
C      1  0.5303970000000  0.3986000000000  0.4676500000000 1.0
C      1  0.5549200000000  0.5424700000000  0.5821830000000 1.0
C      1  0.5335610000000  0.5850710000000  0.4912610000000 1.0
C      1  0.5349390000000  0.5998370000000  0.5555770000000 1.0
C      1  0.5568800000000  0.4989650000000  0.3967320000000 1.0
C      1  0.5365210000000  0.5609820000000  0.5150810000000 1.0
C      1  0.4701080000000  0.4969140000000  0.6017410000000 1.0
C      1  0.5434860000000  0.4447200000000  0.4609820000000 1.0
C      1  0.5970870000000  0.4871190000000  0.5742670000000 1.0
C      1  0.5205490000000  0.5911510000000  0.4216720000000 1.0
C      1  0.5034680000000  0.5713750000000  0.4961280000000 1.0
C      1  0.5647050000000  0.5271160000000  0.4426780000000 1.0
C      1  0.6053070000000  0.4976880000000  0.4814470000000 1.0
C      1  0.4561320000000  0.4722660000000  0.4555620000000 1.0
C      1  0.4999760000000  0.6309090000000  0.5236790000000 1.0
C      1  0.5053810000000  0.5069840000000  0.5725370000000 1.0
C      1  0.4752850000000  0.6077230000000  0.4702060000000 1.0
C      1  0.5762480000000  0.5230730000000  0.5139820000000 1.0
C      1  0.5512040000000  0.4908970000000  0.6005610000000 1.0
C      1  0.4339630000000  0.4827640000000  0.5670770000000 1.0
C      1  0.5837180000000  0.5683810000000  0.5311370000000 1.0
C      1  0.4809870000000  0.4877220000000  0.5709180000000 1.0
C      1  0.4034130000000  0.4603990000000  0.4574120000000 1.0
C      1  0.4927680000000  0.4583710000000  0.4460130000000 1.0
C      1  0.4348230000000  0.5869510000000  0.5057750000000 1.0
C      1  0.4631900000000  0.5656240000000  0.4367130000000 1.0
C      1  0.5142270000000  0.5837490000000  0.5779600000000 1.0
C      1  0.5347180000000  0.4810280000000  0.5662560000000 1.0
C      1  0.4341550000000  0.4251460000000  0.4655680000000 1.0
C      1  0.5794510000000  0.4826630000000  0.4639770000000 1.0
C      1  0.5391420000000  0.5464090000000  0.4844550000000 1.0
C      1  0.5828360000000  0.4011940000000  0.4667030000000 1.0
C      1  0.5160030000000  0.5242630000000  0.5160940000000 1.0
C      1  0.5171940000000  0.5610890000000  0.4214450000000 1.0
C      1  0.5986870000000  0.5281830000000  0.4815100000000 1.0
C      1  0.5229270000000  0.5473110000000  0.5913100000000 1.0
C      1  0.5173340000000  0.5007270000000  0.4097310000000 1.0
C      1  0.4470840000000  0.5456270000000  0.4673070000000 1.0
C      1  0.5418210000000  0.4716450000000  0.4755920000000 1.0
C      1  0.5461870000000  0.5187800000000  0.5007410000000 1.0
C      1  0.5116440000000  0.5384760000000  0.3982190000000 1.0
C      1  0.5991090000000  0.5143500000000  0.5577630000000 1.0
C      1  0.4720800000000  0.3975480000000  0.4993510000000 1.0
C      1  0.4690590000000  0.5528570000000  0.4899090000000 1.0
C      1  0.4813310000000  0.5350100000000  0.5466880000000 1.0
C      1  0.4914230000000  0.5192580000000  0.6078990000000 1.0
C      1  0.5960280000000  0.4848280000000  0.5413540000000 1.0
C      1  0.4659640000000  0.4686220000000  0.6155230000000 1.0
C      1  0.4192660000000  0.4758050000000  0.4764810000000 1.0
C      1  0.5539010000000  0.4407170000000  0.5351900000000 1.0
C      1  0.4941750000000  0.4564940000000  0.5736830000000 1.0
C      1  0.4990820000000  0.6251330000000  0.4844230000000 1.0
C      1  0.5101620000000  0.5404770000000  0.4697390000000 1.0
C      1  0.5750930000000  0.4767210000000  0.4971450000000 1.0
END
