TITL C-2848502-4955-646 0.00380955395898473 125000 -955.797637842502 0 0 179 (C1) n - 1
REM
REM in /home/bkarasulu/work/CARBON/AIRSS/Generating-Clusters/AIREBO/with-SteepDescent/Only-C1/SD-CG-opt/Try1-1.4A-POS3A/HFTN-CG
REM
REM
REM
REM
REM
REM ./C.cell (11c1c37f851c82e70ff6c80c92926a4b)
REM
REM compiler GCC version 9.2.1 20190827 (Red Hat 9.2.1-1)
REM options -cpp -mtune=generic -march=x86-64 -g -O0 -fpre-include=/usr/include/finclude/math-vector-fortran.h
REM seed -1536043253 553297923 1920764040 -1170269265 -723889483 1701429709 440918989 1871662605 211859478 279149982 -179680059 -6632146 1112453046 1914968678 1547750526 -1642463831 152370410 -1366162570 495382015 -1842323560 2113330707 252905377 -1140748825 -1855850620 -90488833 -634813472 -967166565 -2017566590 -786949466 -674656886 1660681683 -1769732653 1281712914
REM
CELL 1.54180   50.00000   50.00000   50.00000   90.00000   90.00000   90.00000
LATT -1
SFAC C  
C      1  0.5112630000000  0.4061160000000  0.5487670000000 1.0
C      1  0.5552000000000  0.5432370000000  0.5333020000000 1.0
C      1  0.5371750000000  0.5826340000000  0.4112890000000 1.0
C      1  0.5163460000000  0.4471230000000  0.5527170000000 1.0
C      1  0.5732130000000  0.5702340000000  0.5058450000000 1.0
C      1  0.4494310000000  0.4495150000000  0.4944990000000 1.0
C      1  0.4773690000000  0.5055550000000  0.5183420000000 1.0
C      1  0.5031340000000  0.3896480000000  0.5201430000000 1.0
C      1  0.5814850000000  0.4909590000000  0.4991080000000 1.0
C      1  0.4518800000000  0.4996420000000  0.4196720000000 1.0
C      1  0.4883280000000  0.5608170000000  0.5742230000000 1.0
C      1  0.4261780000000  0.5606000000000  0.4935630000000 1.0
C      1  0.6182380000000  0.5292990000000  0.5059160000000 1.0
C      1  0.5545740000000  0.6042950000000  0.4721680000000 1.0
C      1  0.5627520000000  0.4167040000000  0.5190840000000 1.0
C      1  0.4742180000000  0.5465020000000  0.5273860000000 1.0
C      1  0.4850220000000  0.4105620000000  0.5672270000000 1.0
C      1  0.5440410000000  0.5044560000000  0.4245030000000 1.0
C      1  0.6063640000000  0.4625100000000  0.4863090000000 1.0
C      1  0.5592670000000  0.5749370000000  0.5366370000000 1.0
C      1  0.5625820000000  0.4144640000000  0.4891220000000 1.0
C      1  0.5658180000000  0.5512970000000  0.5847290000000 1.0
C      1  0.4295500000000  0.4557030000000  0.4165290000000 1.0
C      1  0.4745760000000  0.5171000000000  0.4013210000000 1.0
C      1  0.4383340000000  0.5075270000000  0.5462080000000 1.0
C      1  0.4825680000000  0.5416280000000  0.3952970000000 1.0
C      1  0.5042640000000  0.4921330000000  0.6040730000000 1.0
C      1  0.4565400000000  0.4014710000000  0.5358370000000 1.0
C      1  0.5720200000000  0.5784740000000  0.4727400000000 1.0
C      1  0.5500140000000  0.4781740000000  0.4688860000000 1.0
C      1  0.5519520000000  0.5227180000000  0.5916910000000 1.0
C      1  0.4473190000000  0.4604770000000  0.5884590000000 1.0
C      1  0.5099500000000  0.5303710000000  0.5600410000000 1.0
C      1  0.5936190000000  0.5506880000000  0.5807180000000 1.0
C      1  0.3975150000000  0.4495310000000  0.5010400000000 1.0
C      1  0.5308400000000  0.4734460000000  0.6053120000000 1.0
C      1  0.4085340000000  0.4359400000000  0.5222800000000 1.0
C      1  0.5617180000000  0.4806970000000  0.4145880000000 1.0
C      1  0.4664260000000  0.4313540000000  0.5476680000000 1.0
C      1  0.4307030000000  0.5430380000000  0.4580250000000 1.0
C      1  0.5418120000000  0.4387720000000  0.5342740000000 1.0
C      1  0.4712780000000  0.5122890000000  0.4454720000000 1.0
C      1  0.5325800000000  0.4481920000000  0.5825790000000 1.0
C      1  0.5219180000000  0.5636050000000  0.5787050000000 1.0
C      1  0.4744230000000  0.5391240000000  0.5964570000000 1.0
C      1  0.5661760000000  0.5298970000000  0.4030990000000 1.0
C      1  0.4298130000000  0.5233010000000  0.4113290000000 1.0
C      1  0.4329600000000  0.5764490000000  0.4657070000000 1.0
C      1  0.4596280000000  0.4815200000000  0.3919510000000 1.0
C      1  0.4453850000000  0.4498400000000  0.5282960000000 1.0
C      1  0.4395710000000  0.5831940000000  0.5329390000000 1.0
C      1  0.4448910000000  0.4835410000000  0.5256370000000 1.0
C      1  0.5453010000000  0.4511030000000  0.4179940000000 1.0
C      1  0.5224730000000  0.5325650000000  0.5889200000000 1.0
C      1  0.6012680000000  0.4917120000000  0.4714250000000 1.0
C      1  0.4465270000000  0.5714470000000  0.4349270000000 1.0
C      1  0.4922600000000  0.5621770000000  0.4119300000000 1.0
C      1  0.4716470000000  0.4519750000000  0.5734150000000 1.0
C      1  0.4832380000000  0.5895860000000  0.4782420000000 1.0
C      1  0.5385600000000  0.4988810000000  0.5208350000000 1.0
C      1  0.4942200000000  0.4380420000000  0.5321900000000 1.0
C      1  0.5157120000000  0.5169270000000  0.4099640000000 1.0
C      1  0.4180830000000  0.4570160000000  0.5457100000000 1.0
C      1  0.4734060000000  0.3927330000000  0.5137110000000 1.0
C      1  0.5282270000000  0.5796420000000  0.5351280000000 1.0
C      1  0.4390980000000  0.5180350000000  0.4794960000000 1.0
C      1  0.5557720000000  0.4905820000000  0.6021400000000 1.0
C      1  0.4066630000000  0.4849180000000  0.5371460000000 1.0
C      1  0.4219390000000  0.5401240000000  0.5696040000000 1.0
C      1  0.4923880000000  0.4712020000000  0.5542690000000 1.0
C      1  0.5819360000000  0.4613380000000  0.4276480000000 1.0
C      1  0.5745970000000  0.4753810000000  0.5782300000000 1.0
C      1  0.4572430000000  0.4167140000000  0.4989100000000 1.0
C      1  0.4900010000000  0.5980700000000  0.5233990000000 1.0
C      1  0.5106440000000  0.5538540000000  0.5417800000000 1.0
C      1  0.4679380000000  0.5440560000000  0.5574660000000 1.0
C      1  0.4660050000000  0.5636770000000  0.4919690000000 1.0
C      1  0.4516390000000  0.3981250000000  0.4442860000000 1.0
C      1  0.4984260000000  0.4114380000000  0.4512050000000 1.0
C      1  0.5166590000000  0.4182310000000  0.5801470000000 1.0
C      1  0.5301400000000  0.6163990000000  0.4636440000000 1.0
C      1  0.4214240000000  0.5356100000000  0.5370530000000 1.0
C      1  0.5130900000000  0.4900250000000  0.5735990000000 1.0
C      1  0.4393120000000  0.5854870000000  0.5608200000000 1.0
C      1  0.5424350000000  0.4769200000000  0.5672440000000 1.0
C      1  0.5959090000000  0.5498180000000  0.5094760000000 1.0
C      1  0.4644050000000  0.5399890000000  0.4549910000000 1.0
C      1  0.4679470000000  0.6134710000000  0.5063550000000 1.0
C      1  0.5762700000000  0.5219410000000  0.5458110000000 1.0
C      1  0.4518960000000  0.5942760000000  0.4871000000000 1.0
C      1  0.4181000000000  0.5291470000000  0.5038330000000 1.0
C      1  0.5643120000000  0.5045460000000  0.4635630000000 1.0
C      1  0.5215100000000  0.3967810000000  0.4666800000000 1.0
C      1  0.4914470000000  0.4968850000000  0.4228390000000 1.0
C      1  0.5017920000000  0.4318740000000  0.3990380000000 1.0
C      1  0.5635600000000  0.4370710000000  0.5762200000000 1.0
C      1  0.4905810000000  0.4786050000000  0.3844290000000 1.0
C      1  0.5211640000000  0.4870440000000  0.3847380000000 1.0
C      1  0.3723830000000  0.5089190000000  0.4939600000000 1.0
C      1  0.4206940000000  0.4645680000000  0.4851380000000 1.0
C      1  0.5737090000000  0.5579470000000  0.4541930000000 1.0
C      1  0.4429460000000  0.5260900000000  0.5923650000000 1.0
C      1  0.4738780000000  0.4955820000000  0.5965850000000 1.0
C      1  0.5450450000000  0.4702510000000  0.5380000000000 1.0
C      1  0.4746570000000  0.5708530000000  0.4320280000000 1.0
C      1  0.5775930000000  0.4511990000000  0.5544100000000 1.0
C      1  0.5187300000000  0.4915930000000  0.4404770000000 1.0
C      1  0.5586030000000  0.4465680000000  0.4780470000000 1.0
C      1  0.4947530000000  0.5221070000000  0.4863910000000 1.0
C      1  0.4001840000000  0.5315320000000  0.4616880000000 1.0
C      1  0.5226810000000  0.4733070000000  0.4120850000000 1.0
C      1  0.4393960000000  0.4612910000000  0.3909640000000 1.0
C      1  0.4827520000000  0.4314250000000  0.4819010000000 1.0
C      1  0.4443980000000  0.5602960000000  0.5718840000000 1.0
C      1  0.4771990000000  0.4730170000000  0.5238960000000 1.0
C      1  0.4736000000000  0.4713450000000  0.4847300000000 1.0
C      1  0.5250650000000  0.4276340000000  0.4117730000000 1.0
C      1  0.4796610000000  0.4661350000000  0.4313800000000 1.0
C      1  0.4565820000000  0.4782150000000  0.6080090000000 1.0
C      1  0.4663750000000  0.5768920000000  0.5219840000000 1.0
C      1  0.5802940000000  0.5391450000000  0.4281590000000 1.0
C      1  0.5628200000000  0.4396070000000  0.4450300000000 1.0
C      1  0.4872950000000  0.4552330000000  0.4033980000000 1.0
C      1  0.5132060000000  0.5288830000000  0.4602150000000 1.0
C      1  0.4218290000000  0.5644300000000  0.5222320000000 1.0
C      1  0.4300510000000  0.4888170000000  0.4641720000000 1.0
C      1  0.5840160000000  0.5259810000000  0.4811280000000 1.0
C      1  0.5111230000000  0.4908630000000  0.5337840000000 1.0
C      1  0.4801090000000  0.4961980000000  0.4698630000000 1.0
C      1  0.5323610000000  0.5393830000000  0.4855670000000 1.0
C      1  0.4931670000000  0.4513720000000  0.4563960000000 1.0
C      1  0.5366250000000  0.5284630000000  0.5150330000000 1.0
C      1  0.4011250000000  0.5028650000000  0.4563130000000 1.0
C      1  0.4999880000000  0.5847280000000  0.5530400000000 1.0
C      1  0.5524210000000  0.5354200000000  0.4591520000000 1.0
C      1  0.5615590000000  0.5050120000000  0.5657290000000 1.0
C      1  0.6010940000000  0.5347940000000  0.5595010000000 1.0
C      1  0.5403840000000  0.5150550000000  0.3866430000000 1.0
C      1  0.5804740000000  0.5199250000000  0.5143980000000 1.0
C      1  0.5491040000000  0.4122700000000  0.4598810000000 1.0
C      1  0.4262030000000  0.4713020000000  0.5747570000000 1.0
C      1  0.5042610000000  0.4933350000000  0.5015050000000 1.0
C      1  0.3964360000000  0.4875280000000  0.4855310000000 1.0
C      1  0.5485310000000  0.5670590000000  0.5679730000000 1.0
C      1  0.4171750000000  0.4957000000000  0.5099070000000 1.0
C      1  0.5316620000000  0.5349460000000  0.4331660000000 1.0
C      1  0.5083180000000  0.6088360000000  0.4781580000000 1.0
C      1  0.5513500000000  0.4787230000000  0.5003690000000 1.0
C      1  0.4065380000000  0.5055020000000  0.5581050000000 1.0
C      1  0.4893100000000  0.5107170000000  0.5491780000000 1.0
C      1  0.6134260000000  0.5025330000000  0.5007090000000 1.0
C      1  0.4232820000000  0.5001770000000  0.5823780000000 1.0
C      1  0.5045630000000  0.5384780000000  0.5142310000000 1.0
C      1  0.5243270000000  0.4288770000000  0.4435550000000 1.0
C      1  0.4681850000000  0.4180480000000  0.4542170000000 1.0
C      1  0.5203030000000  0.5624310000000  0.4188630000000 1.0
C      1  0.5503890000000  0.5950950000000  0.5013980000000 1.0
C      1  0.5381110000000  0.3992200000000  0.5320740000000 1.0
C      1  0.3889080000000  0.5319530000000  0.4888940000000 1.0
C      1  0.4888210000000  0.4326650000000  0.5926090000000 1.0
C      1  0.5109450000000  0.4865910000000  0.4690700000000 1.0
C      1  0.5250130000000  0.4572250000000  0.4592540000000 1.0
C      1  0.4269130000000  0.4173560000000  0.5137330000000 1.0
C      1  0.5850100000000  0.4511250000000  0.4990590000000 1.0
C      1  0.5933450000000  0.5167050000000  0.4497700000000 1.0
C      1  0.5308890000000  0.4516140000000  0.4983390000000 1.0
C      1  0.5118930000000  0.5628110000000  0.4834590000000 1.0
C      1  0.4309520000000  0.5465320000000  0.4247990000000 1.0
C      1  0.5242000000000  0.4220570000000  0.5104750000000 1.0
C      1  0.4638390000000  0.5303000000000  0.4993410000000 1.0
C      1  0.4987760000000  0.5246830000000  0.6066960000000 1.0
C      1  0.4633500000000  0.5123600000000  0.5688840000000 1.0
C      1  0.4472710000000  0.4724440000000  0.4396110000000 1.0
C      1  0.4964980000000  0.4541940000000  0.5031230000000 1.0
C      1  0.5811470000000  0.4424010000000  0.5285880000000 1.0
C      1  0.5048760000000  0.4072150000000  0.4910690000000 1.0
C      1  0.5170510000000  0.5891230000000  0.5044490000000 1.0
C      1  0.4880770000000  0.5640510000000  0.4591930000000 1.0
C      1  0.4520070000000  0.4461360000000  0.4607550000000 1.0
END
