TITL C-2848508-1660-625 0.00188548010332049 125000 -405.0136502716 0 0 74 (C1) n - 1
REM
REM in /home/bkarasulu/work/CARBON/AIRSS/Generating-Clusters/AIREBO/with-SteepDescent/Only-C1/SD-CG-opt/Try1-1.4A-POS3A/HFTN-CG
REM
REM
REM
REM
REM
REM ./C.cell (11c1c37f851c82e70ff6c80c92926a4b)
REM
REM compiler GCC version 9.2.1 20190827 (Red Hat 9.2.1-1)
REM options -cpp -mtune=generic -march=x86-64 -g -O0 -fpre-include=/usr/include/finclude/math-vector-fortran.h
REM seed -383835542 1602824240 -230659505 2025598049 155417367 -1538350733 369740149 -2021168454 -664985222 982631361 -1083151278 1875283633 -1672736138 -416186772 654305612 665561168 -796871165 -1007602634 252353648 1740378546 1609774989 880899376 889342659 802992423 588838018 -818448559 170433990 -820152756 2139013555 -947040129 880969556 635962907 -1835127292
REM
CELL 1.54180   50.00000   50.00000   50.00000   90.00000   90.00000   90.00000
LATT -1
SFAC C  
C      1  0.5448870000000  0.5181330000000  0.4676600000000 1.0
C      1  0.4993550000000  0.5224690000000  0.5342070000000 1.0
C      1  0.5258210000000  0.5002100000000  0.5142060000000 1.0
C      1  0.5326330000000  0.5323990000000  0.5077680000000 1.0
C      1  0.5509830000000  0.4837710000000  0.5772720000000 1.0
C      1  0.5673600000000  0.4859040000000  0.4633110000000 1.0
C      1  0.4541990000000  0.4933560000000  0.5164240000000 1.0
C      1  0.4839270000000  0.4676740000000  0.5646300000000 1.0
C      1  0.4990850000000  0.5612220000000  0.4485340000000 1.0
C      1  0.5020790000000  0.4918400000000  0.4654020000000 1.0
C      1  0.4644650000000  0.5147150000000  0.4347790000000 1.0
C      1  0.4787980000000  0.5756490000000  0.4656850000000 1.0
C      1  0.5276410000000  0.5038860000000  0.5697400000000 1.0
C      1  0.5093540000000  0.4824930000000  0.4942730000000 1.0
C      1  0.5325140000000  0.4497480000000  0.5487880000000 1.0
C      1  0.5003550000000  0.4957260000000  0.5546610000000 1.0
C      1  0.4568070000000  0.4474430000000  0.4728830000000 1.0
C      1  0.4277460000000  0.5309850000000  0.5131950000000 1.0
C      1  0.5473700000000  0.4934740000000  0.4892600000000 1.0
C      1  0.4528530000000  0.5567150000000  0.4707140000000 1.0
C      1  0.4894060000000  0.5852160000000  0.4903200000000 1.0
C      1  0.4695940000000  0.5192540000000  0.5232910000000 1.0
C      1  0.5213380000000  0.4678570000000  0.4590840000000 1.0
C      1  0.4347200000000  0.4979150000000  0.4818610000000 1.0
C      1  0.5693780000000  0.4610480000000  0.4800550000000 1.0
C      1  0.5605410000000  0.5212900000000  0.5236990000000 1.0
C      1  0.4418080000000  0.5017040000000  0.5638110000000 1.0
C      1  0.4932140000000  0.4256050000000  0.4905610000000 1.0
C      1  0.4945460000000  0.4741150000000  0.4303870000000 1.0
C      1  0.5547530000000  0.5018670000000  0.5492870000000 1.0
C      1  0.5406030000000  0.4502480000000  0.4797830000000 1.0
C      1  0.4420210000000  0.5264410000000  0.5409880000000 1.0
C      1  0.5206600000000  0.4884450000000  0.4249470000000 1.0
C      1  0.4686680000000  0.4850480000000  0.4375190000000 1.0
C      1  0.5159420000000  0.4747980000000  0.5328270000000 1.0
C      1  0.4716650000000  0.4724040000000  0.5027080000000 1.0
C      1  0.4820790000000  0.4462900000000  0.5455970000000 1.0
C      1  0.4214840000000  0.4894310000000  0.5085120000000 1.0
C      1  0.5529780000000  0.5665900000000  0.5100620000000 1.0
C      1  0.4982000000000  0.4535060000000  0.5042300000000 1.0
C      1  0.4961550000000  0.5132890000000  0.4436880000000 1.0
C      1  0.5444170000000  0.4574650000000  0.5760280000000 1.0
C      1  0.4451940000000  0.5274380000000  0.4862380000000 1.0
C      1  0.4726600000000  0.5137860000000  0.5626970000000 1.0
C      1  0.5344190000000  0.5569170000000  0.5312580000000 1.0
C      1  0.5123590000000  0.5496070000000  0.5467430000000 1.0
C      1  0.5461670000000  0.5627820000000  0.4551030000000 1.0
C      1  0.4546960000000  0.4767230000000  0.4651100000000 1.0
C      1  0.4443980000000  0.5654890000000  0.5024910000000 1.0
C      1  0.4640500000000  0.4482360000000  0.5242300000000 1.0
C      1  0.4886560000000  0.5666980000000  0.5116770000000 1.0
C      1  0.5305070000000  0.4526140000000  0.5093240000000 1.0
C      1  0.4805240000000  0.4339040000000  0.4664990000000 1.0
C      1  0.5253410000000  0.5526320000000  0.4403570000000 1.0
C      1  0.4868930000000  0.5372910000000  0.4588480000000 1.0
C      1  0.5807500000000  0.4550920000000  0.5044500000000 1.0
C      1  0.4318950000000  0.4878330000000  0.5393540000000 1.0
C      1  0.5630440000000  0.4876800000000  0.5192140000000 1.0
C      1  0.4782360000000  0.5287350000000  0.4855760000000 1.0
C      1  0.4497550000000  0.5355160000000  0.4443070000000 1.0
C      1  0.5467370000000  0.4814550000000  0.4427610000000 1.0
C      1  0.5496930000000  0.5474270000000  0.4821690000000 1.0
C      1  0.5572440000000  0.4566230000000  0.5269480000000 1.0
C      1  0.4927990000000  0.5591470000000  0.5639960000000 1.0
C      1  0.5056380000000  0.4162740000000  0.5166250000000 1.0
C      1  0.4663500000000  0.5461120000000  0.5524750000000 1.0
C      1  0.4993430000000  0.5389690000000  0.5055370000000 1.0
C      1  0.5006860000000  0.4444770000000  0.4458800000000 1.0
C      1  0.5065980000000  0.4338830000000  0.5390330000000 1.0
C      1  0.4629470000000  0.5626410000000  0.5231220000000 1.0
C      1  0.4745900000000  0.4972040000000  0.4823040000000 1.0
C      1  0.5301360000000  0.4298270000000  0.4546870000000 1.0
C      1  0.4476680000000  0.4406710000000  0.4993880000000 1.0
C      1  0.5276210000000  0.5186810000000  0.4389630000000 1.0
END
