TITL C-2847947-6848-40 1.29341706907957e-05 125000 -136.91326001263 0 0 25 (C1) n - 1
REM
REM in /home/bkarasulu/work/CARBON/AIRSS/Generating-Clusters/AIREBO/with-SteepDescent/Only-C1/SD-CG-opt/Try1-1.4A-POS3A/HFTN-CG
REM
REM
REM
REM
REM
REM ./C.cell (11c1c37f851c82e70ff6c80c92926a4b)
REM
REM compiler GCC version 9.2.1 20190827 (Red Hat 9.2.1-1)
REM options -cpp -mtune=generic -march=x86-64 -g -O0 -fpre-include=/usr/include/finclude/math-vector-fortran.h
REM seed -220789957 -312788796 1112470132 2133635153 1424342358 1170188896 -1366339452 -2037568863 1592816865 1403349091 628412056 -322584689 1907147939 -931718659 1535860540 1440870222 -730394848 -923626591 1247787104 -1226496091 840669286 1671075010 -736521904 1219611078 1273796208 5410234 -501198853 1787163751 892701579 -1395649376 1148505276 1992439133 -1577212460
REM
CELL 1.54180   50.00000   50.00000   50.00000   90.00000   90.00000   90.00000
LATT -1
SFAC C  
C      1  0.4534930000000  0.5199820000000  0.4734760000000 1.0
C      1  0.5386860000000  0.4698560000000  0.5630710000000 1.0
C      1  0.4920780000000  0.5613480000000  0.4970930000000 1.0
C      1  0.4905160000000  0.4792020000000  0.5082880000000 1.0
C      1  0.5064630000000  0.4945790000000  0.5295970000000 1.0
C      1  0.4885900000000  0.4506920000000  0.5135860000000 1.0
C      1  0.5062280000000  0.5247340000000  0.5269100000000 1.0
C      1  0.4874170000000  0.4871690000000  0.4559220000000 1.0
C      1  0.5236050000000  0.4821830000000  0.5455320000000 1.0
C      1  0.5200670000000  0.5590320000000  0.4948490000000 1.0
C      1  0.4818320000000  0.5375920000000  0.5095190000000 1.0
C      1  0.5281700000000  0.5338060000000  0.5057640000000 1.0
C      1  0.5066320000000  0.4860660000000  0.4342010000000 1.0
C      1  0.5403980000000  0.5125890000000  0.4923260000000 1.0
C      1  0.4627180000000  0.5004590000000  0.4562810000000 1.0
C      1  0.5082570000000  0.5386700000000  0.5540880000000 1.0
C      1  0.4631320000000  0.4944200000000  0.5120560000000 1.0
C      1  0.5290370000000  0.4932850000000  0.4755150000000 1.0
C      1  0.4783690000000  0.4215880000000  0.5035830000000 1.0
C      1  0.5325530000000  0.4897600000000  0.4469790000000 1.0
C      1  0.5017970000000  0.4854820000000  0.4808320000000 1.0
C      1  0.4837520000000  0.4266820000000  0.5348390000000 1.0
C      1  0.5121240000000  0.5492620000000  0.5769850000000 1.0
C      1  0.4623000000000  0.5201860000000  0.5003790000000 1.0
C      1  0.5017850000000  0.4813760000000  0.4083270000000 1.0
END
