TITL C-2848507-1641-488 0.00509422559300986 125000 -434.802762398326 0 0 76 (C1) n - 1
REM
REM in /home/bkarasulu/work/CARBON/AIRSS/Generating-Clusters/AIREBO/with-SteepDescent/Only-C1/SD-CG-opt/Try1-1.4A-POS3A/HFTN-CG
REM
REM
REM
REM
REM
REM ./C.cell (11c1c37f851c82e70ff6c80c92926a4b)
REM
REM compiler GCC version 9.2.1 20190827 (Red Hat 9.2.1-1)
REM options -cpp -mtune=generic -march=x86-64 -g -O0 -fpre-include=/usr/include/finclude/math-vector-fortran.h
REM seed -1879734993 -1082168247 1629397148 -2003130735 -1897062588 -1619535992 -1082310464 -1756155100 -249354442 -1960950150 1439006902 -407194072 -1247102079 -915038766 778593577 1297247496 421716661 1298917080 1412586847 1916538496 -830488525 -89480914 -137962950 -917700328 1487560261 -1569262260 -2122287922 1460374527 -1417953726 -678635212 102628024 -272819179 134331302
REM
CELL 1.54180   50.00000   50.00000   50.00000   90.00000   90.00000   90.00000
LATT -1
SFAC C  
C      1  0.5396500000000  0.4782930000000  0.5575740000000 1.0
C      1  0.4491720000000  0.4952520000000  0.5524770000000 1.0
C      1  0.4406550000000  0.5092950000000  0.4339210000000 1.0
C      1  0.4687670000000  0.5261550000000  0.5834410000000 1.0
C      1  0.4989210000000  0.5255280000000  0.4983720000000 1.0
C      1  0.4173310000000  0.5052010000000  0.4887900000000 1.0
C      1  0.4310530000000  0.5263170000000  0.4789800000000 1.0
C      1  0.4736410000000  0.5442480000000  0.4532820000000 1.0
C      1  0.5371370000000  0.4780120000000  0.3954720000000 1.0
C      1  0.4887780000000  0.5278990000000  0.5488570000000 1.0
C      1  0.4893630000000  0.5734650000000  0.4752190000000 1.0
C      1  0.4318470000000  0.4572670000000  0.4936730000000 1.0
C      1  0.4917840000000  0.4343230000000  0.5230110000000 1.0
C      1  0.5067060000000  0.5497190000000  0.4594300000000 1.0
C      1  0.5030820000000  0.5192280000000  0.4447870000000 1.0
C      1  0.4455640000000  0.4442400000000  0.5153520000000 1.0
C      1  0.4263960000000  0.5568630000000  0.4382940000000 1.0
C      1  0.4643820000000  0.5076470000000  0.4898590000000 1.0
C      1  0.5005280000000  0.4948330000000  0.4300910000000 1.0
C      1  0.4418670000000  0.5319580000000  0.4509580000000 1.0
C      1  0.5080110000000  0.4670640000000  0.5630300000000 1.0
C      1  0.4557900000000  0.5256300000000  0.5536400000000 1.0
C      1  0.5630630000000  0.4871130000000  0.5344080000000 1.0
C      1  0.5585040000000  0.5639580000000  0.5796480000000 1.0
C      1  0.4701080000000  0.5691940000000  0.4325430000000 1.0
C      1  0.5304720000000  0.4809640000000  0.4223070000000 1.0
C      1  0.5702560000000  0.5844910000000  0.5892210000000 1.0
C      1  0.5262810000000  0.4814400000000  0.4697750000000 1.0
C      1  0.5728040000000  0.5321150000000  0.5007640000000 1.0
C      1  0.4529050000000  0.4881230000000  0.5226950000000 1.0
C      1  0.5443550000000  0.5396900000000  0.5713020000000 1.0
C      1  0.5631340000000  0.5143710000000  0.4466650000000 1.0
C      1  0.4919320000000  0.4235220000000  0.4909890000000 1.0
C      1  0.5423320000000  0.4449030000000  0.5126840000000 1.0
C      1  0.5287180000000  0.4678150000000  0.5288150000000 1.0
C      1  0.5128800000000  0.4580260000000  0.4373400000000 1.0
C      1  0.5366910000000  0.5538830000000  0.4622080000000 1.0
C      1  0.5734480000000  0.5018020000000  0.4929480000000 1.0
C      1  0.5411390000000  0.5098070000000  0.4934390000000 1.0
C      1  0.5002120000000  0.4795730000000  0.4873660000000 1.0
C      1  0.4298280000000  0.4843370000000  0.5023760000000 1.0
C      1  0.5473370000000  0.5764700000000  0.4540170000000 1.0
C      1  0.4642380000000  0.4491340000000  0.5605940000000 1.0
C      1  0.5745680000000  0.4743630000000  0.4870670000000 1.0
C      1  0.5617210000000  0.5165680000000  0.5278940000000 1.0
C      1  0.5545780000000  0.5316260000000  0.4716700000000 1.0
C      1  0.4509320000000  0.5371410000000  0.5001440000000 1.0
C      1  0.5418230000000  0.5056680000000  0.5713620000000 1.0
C      1  0.5581350000000  0.4708980000000  0.4642690000000 1.0
C      1  0.4831240000000  0.4670660000000  0.4397450000000 1.0
C      1  0.5226540000000  0.4979440000000  0.5149050000000 1.0
C      1  0.4658250000000  0.4488900000000  0.4551450000000 1.0
C      1  0.5004180000000  0.4727410000000  0.5162320000000 1.0
C      1  0.5533030000000  0.4894630000000  0.4414770000000 1.0
C      1  0.4920770000000  0.4453130000000  0.5526820000000 1.0
C      1  0.5658810000000  0.4658070000000  0.5141750000000 1.0
C      1  0.4730010000000  0.4626620000000  0.5221800000000 1.0
C      1  0.4782700000000  0.4263920000000  0.4686430000000 1.0
C      1  0.5405260000000  0.5307630000000  0.5404810000000 1.0
C      1  0.4436990000000  0.5752980000000  0.4272070000000 1.0
C      1  0.4765630000000  0.4872730000000  0.4771940000000 1.0
C      1  0.5131520000000  0.5243570000000  0.5288610000000 1.0
C      1  0.5193960000000  0.4201370000000  0.5108680000000 1.0
C      1  0.4398470000000  0.4530380000000  0.4664860000000 1.0
C      1  0.4869140000000  0.5987210000000  0.4772800000000 1.0
C      1  0.5250470000000  0.4490420000000  0.4625380000000 1.0
C      1  0.4782510000000  0.5450180000000  0.4869620000000 1.0
C      1  0.4916590000000  0.5110050000000  0.5849140000000 1.0
C      1  0.4892390000000  0.4843490000000  0.5775010000000 1.0
C      1  0.5146670000000  0.5245370000000  0.5703940000000 1.0
C      1  0.5325720000000  0.4329780000000  0.4829200000000 1.0
C      1  0.4620550000000  0.4766590000000  0.5697480000000 1.0
C      1  0.5155930000000  0.5135040000000  0.4736760000000 1.0
C      1  0.4755340000000  0.5135220000000  0.5210330000000 1.0
C      1  0.4449090000000  0.4366680000000  0.5438790000000 1.0
C      1  0.4430050000000  0.5414250000000  0.5298540000000 1.0
END
