TITL C-2848500-1637-528 -0.00440679897940512 125000 -301.759930641367 0 0 53 (C1) n - 1
REM
REM in /home/bkarasulu/work/CARBON/AIRSS/Generating-Clusters/AIREBO/with-SteepDescent/Only-C1/SD-CG-opt/Try1-1.4A-POS3A/HFTN-CG
REM
REM
REM
REM
REM
REM ./C.cell (11c1c37f851c82e70ff6c80c92926a4b)
REM
REM compiler GCC version 9.2.1 20190827 (Red Hat 9.2.1-1)
REM options -cpp -mtune=generic -march=x86-64 -g -O0 -fpre-include=/usr/include/finclude/math-vector-fortran.h
REM seed -1660579234 936404510 1488247243 -976420268 -734624446 512673981 -645884475 1090813361 -1969969584 129489625 1923574555 -1566093435 1484031869 -1362697576 1186666227 989048824 929057440 -1143488386 -374847750 1138039351 1656895558 -1382629647 1630903698 1832812813 1268669384 1346548605 67019098 -669672557 -1848195631 -109788411 1438639020 1842398735 -782956589
REM
CELL 1.54180   50.00000   50.00000   50.00000   90.00000   90.00000   90.00000
LATT -1
SFAC C  
C      1  0.4577570000000  0.5561770000000  0.4490600000000 1.0
C      1  0.4693780000000  0.4401410000000  0.5056050000000 1.0
C      1  0.5054910000000  0.4798540000000  0.5829640000000 1.0
C      1  0.5291030000000  0.4232860000000  0.5136960000000 1.0
C      1  0.5573190000000  0.4503970000000  0.4847520000000 1.0
C      1  0.4461360000000  0.4614470000000  0.5070930000000 1.0
C      1  0.5352730000000  0.5233440000000  0.4056770000000 1.0
C      1  0.5730990000000  0.4693330000000  0.4986750000000 1.0
C      1  0.4935770000000  0.5226100000000  0.4696230000000 1.0
C      1  0.5653220000000  0.4740080000000  0.5257830000000 1.0
C      1  0.4658690000000  0.4784990000000  0.5289070000000 1.0
C      1  0.4770880000000  0.4728880000000  0.4481230000000 1.0
C      1  0.5824750000000  0.4708950000000  0.5463140000000 1.0
C      1  0.5687930000000  0.5163960000000  0.4419050000000 1.0
C      1  0.4319510000000  0.4893450000000  0.4688280000000 1.0
C      1  0.4787300000000  0.4292280000000  0.4799370000000 1.0
C      1  0.5088180000000  0.4373680000000  0.4723180000000 1.0
C      1  0.5846710000000  0.4905670000000  0.4841400000000 1.0
C      1  0.4684350000000  0.5365710000000  0.5597920000000 1.0
C      1  0.4517890000000  0.4829390000000  0.4440200000000 1.0
C      1  0.5679090000000  0.5072900000000  0.4692680000000 1.0
C      1  0.4898280000000  0.5189970000000  0.5594910000000 1.0
C      1  0.4849710000000  0.5459900000000  0.4624910000000 1.0
C      1  0.5421150000000  0.5156900000000  0.4303810000000 1.0
C      1  0.4486520000000  0.5318110000000  0.5343660000000 1.0
C      1  0.4359270000000  0.5109910000000  0.4454820000000 1.0
C      1  0.5337180000000  0.5041130000000  0.5471580000000 1.0
C      1  0.5399440000000  0.5305970000000  0.5391090000000 1.0
C      1  0.5312030000000  0.5531670000000  0.5269250000000 1.0
C      1  0.4540170000000  0.5095500000000  0.5187270000000 1.0
C      1  0.4606810000000  0.5611460000000  0.5409530000000 1.0
C      1  0.5170120000000  0.5756290000000  0.5218050000000 1.0
C      1  0.4862610000000  0.5923930000000  0.4871550000000 1.0
C      1  0.5251540000000  0.5066960000000  0.4510970000000 1.0
C      1  0.5281060000000  0.4444470000000  0.4944090000000 1.0
C      1  0.4864840000000  0.4295970000000  0.5331110000000 1.0
C      1  0.5094020000000  0.4959820000000  0.4862450000000 1.0
C      1  0.5178820000000  0.4719470000000  0.5083680000000 1.0
C      1  0.4391300000000  0.5377440000000  0.4400460000000 1.0
C      1  0.5387540000000  0.4825780000000  0.5291940000000 1.0
C      1  0.5134900000000  0.5021370000000  0.5674580000000 1.0
C      1  0.5404070000000  0.5066510000000  0.4769480000000 1.0
C      1  0.4289700000000  0.4714800000000  0.4895290000000 1.0
C      1  0.4971380000000  0.4922450000000  0.4547420000000 1.0
C      1  0.4927220000000  0.4592460000000  0.5205000000000 1.0
C      1  0.4894960000000  0.5020390000000  0.5355340000000 1.0
C      1  0.4743480000000  0.5749410000000  0.4697150000000 1.0
C      1  0.4826750000000  0.4655490000000  0.5770090000000 1.0
C      1  0.4616510000000  0.4684330000000  0.5596690000000 1.0
C      1  0.4840440000000  0.4472210000000  0.4544290000000 1.0
C      1  0.4710840000000  0.5847860000000  0.5320570000000 1.0
C      1  0.4927990000000  0.5878280000000  0.5141890000000 1.0
C      1  0.4829550000000  0.5057970000000  0.5052280000000 1.0
END
