TITL C-2847950-6905-405 -0.00165119027844839 125000 -257.24704774685 0 0 50 (C1) n - 1
REM
REM in /home/bkarasulu/work/CARBON/AIRSS/Generating-Clusters/AIREBO/with-SteepDescent/Only-C1/SD-CG-opt/Try1-1.4A-POS3A/HFTN-CG
REM
REM
REM
REM
REM
REM ./C.cell (11c1c37f851c82e70ff6c80c92926a4b)
REM
REM compiler GCC version 9.2.1 20190827 (Red Hat 9.2.1-1)
REM options -cpp -mtune=generic -march=x86-64 -g -O0 -fpre-include=/usr/include/finclude/math-vector-fortran.h
REM seed 1890163381 -2084237644 -260476628 227563904 -780123720 -969715564 790385616 698453058 -1492146567 -695057400 1151706419 1601343944 1622853220 126547113 -1781218411 655194866 1917510223 1424317427 948319545 -210443210 1418972798 -1249494492 284855174 1743396440 -2058990866 1814701596 68309514 -2125984543 808631853 550357422 949618403 1411902642 -695835731
REM
CELL 1.54180   50.00000   50.00000   50.00000   90.00000   90.00000   90.00000
LATT -1
SFAC C  
C      1  0.5120540000000  0.5570760000000  0.5131140000000 1.0
C      1  0.4755570000000  0.5741900000000  0.4860160000000 1.0
C      1  0.4669130000000  0.5635000000000  0.5307690000000 1.0
C      1  0.4402880000000  0.5254690000000  0.5092960000000 1.0
C      1  0.5144190000000  0.4969070000000  0.5396020000000 1.0
C      1  0.5668030000000  0.4972110000000  0.5525780000000 1.0
C      1  0.5125450000000  0.4780910000000  0.4438230000000 1.0
C      1  0.4787090000000  0.4832070000000  0.4804330000000 1.0
C      1  0.5226210000000  0.4702820000000  0.4727100000000 1.0
C      1  0.4861380000000  0.5255390000000  0.4744480000000 1.0
C      1  0.5454480000000  0.5106740000000  0.4188620000000 1.0
C      1  0.4906730000000  0.4641900000000  0.4357360000000 1.0
C      1  0.5082030000000  0.4997990000000  0.4770440000000 1.0
C      1  0.4761470000000  0.4766760000000  0.5643650000000 1.0
C      1  0.4859270000000  0.5699180000000  0.5109320000000 1.0
C      1  0.4300920000000  0.5156600000000  0.4647170000000 1.0
C      1  0.5549610000000  0.4846800000000  0.4569060000000 1.0
C      1  0.4820750000000  0.5379450000000  0.4442560000000 1.0
C      1  0.4478880000000  0.5436600000000  0.5292480000000 1.0
C      1  0.4648360000000  0.5493730000000  0.4714310000000 1.0
C      1  0.4238980000000  0.4904910000000  0.4826130000000 1.0
C      1  0.5418110000000  0.4010930000000  0.4964870000000 1.0
C      1  0.5322770000000  0.5489530000000  0.4870100000000 1.0
C      1  0.5582720000000  0.5047020000000  0.4970900000000 1.0
C      1  0.5380040000000  0.4767920000000  0.5350590000000 1.0
C      1  0.5153490000000  0.4295980000000  0.5429570000000 1.0
C      1  0.5181760000000  0.5359400000000  0.5634150000000 1.0
C      1  0.5313140000000  0.4195690000000  0.5106860000000 1.0
C      1  0.5398500000000  0.4883130000000  0.5684670000000 1.0
C      1  0.4616290000000  0.4693170000000  0.5454760000000 1.0
C      1  0.4990150000000  0.5182370000000  0.5049700000000 1.0
C      1  0.5257510000000  0.5538530000000  0.4568310000000 1.0
C      1  0.5324360000000  0.4512410000000  0.5230070000000 1.0
C      1  0.4977730000000  0.4331040000000  0.5154160000000 1.0
C      1  0.4398400000000  0.5359130000000  0.4818050000000 1.0
C      1  0.5119400000000  0.5330930000000  0.4448620000000 1.0
C      1  0.5147560000000  0.5286980000000  0.5316650000000 1.0
C      1  0.5435040000000  0.5442390000000  0.5181630000000 1.0
C      1  0.5030470000000  0.4879760000000  0.5674910000000 1.0
C      1  0.5152400000000  0.4541360000000  0.4953590000000 1.0
C      1  0.4673130000000  0.4624050000000  0.4562600000000 1.0
C      1  0.5322110000000  0.5057780000000  0.4456300000000 1.0
C      1  0.4841570000000  0.4616660000000  0.5044390000000 1.0
C      1  0.4503210000000  0.4556400000000  0.4849450000000 1.0
C      1  0.4357560000000  0.4966120000000  0.5086920000000 1.0
C      1  0.4540620000000  0.4720380000000  0.5147460000000 1.0
C      1  0.5612920000000  0.4967030000000  0.5224250000000 1.0
C      1  0.5371350000000  0.5176610000000  0.4771300000000 1.0
C      1  0.5213540000000  0.5129590000000  0.5781110000000 1.0
C      1  0.4502180000000  0.4892340000000  0.4625050000000 1.0
END
