TITL C-2848494-1720-343 0.00429019907443523 125000 -1069.57227784915 0 0 196 (C1) n - 1
REM
REM in /home/bkarasulu/work/CARBON/AIRSS/Generating-Clusters/AIREBO/with-SteepDescent/Only-C1/SD-CG-opt/Try1-1.4A-POS3A/HFTN-CG
REM
REM
REM
REM
REM
REM ./C.cell (11c1c37f851c82e70ff6c80c92926a4b)
REM
REM compiler GCC version 9.2.1 20190827 (Red Hat 9.2.1-1)
REM options -cpp -mtune=generic -march=x86-64 -g -O0 -fpre-include=/usr/include/finclude/math-vector-fortran.h
REM seed 1429040318 -819184989 204814787 666169300 -709870099 -1425854882 501107410 -327963379 286782816 -1393847428 1640028728 79130141 2032701135 -235460331 422890513 611824740 1376708673 205682018 -526065417 1995840832 955041961 1517390668 557847077 -1968006026 -695189520 -665339557 989433290 -676409321 1771531930 1018685493 2124870548 2105384322 1385347643
REM
CELL 1.54180   50.00000   50.00000   50.00000   90.00000   90.00000   90.00000
LATT -1
SFAC C  
C      1  0.5094120000000  0.6027250000000  0.5078810000000 1.0
C      1  0.4847580000000  0.5353670000000  0.4754700000000 1.0
C      1  0.4933920000000  0.5404960000000  0.5804120000000 1.0
C      1  0.5225680000000  0.5219540000000  0.6019970000000 1.0
C      1  0.5568790000000  0.4511760000000  0.4621810000000 1.0
C      1  0.4495340000000  0.4650650000000  0.4120200000000 1.0
C      1  0.5426630000000  0.6122090000000  0.5311830000000 1.0
C      1  0.4125240000000  0.5780430000000  0.4767310000000 1.0
C      1  0.4532910000000  0.4009070000000  0.4974650000000 1.0
C      1  0.5051980000000  0.5032140000000  0.5871410000000 1.0
C      1  0.4081590000000  0.4995690000000  0.5495980000000 1.0
C      1  0.4080840000000  0.4428460000000  0.5065570000000 1.0
C      1  0.4778500000000  0.5066730000000  0.5968210000000 1.0
C      1  0.5738710000000  0.5207880000000  0.4192860000000 1.0
C      1  0.4523510000000  0.5139110000000  0.4676330000000 1.0
C      1  0.4613530000000  0.5299680000000  0.5847790000000 1.0
C      1  0.4238210000000  0.5477670000000  0.4794550000000 1.0
C      1  0.5085700000000  0.4326880000000  0.4608860000000 1.0
C      1  0.4976430000000  0.5524270000000  0.5326130000000 1.0
C      1  0.4740230000000  0.4777150000000  0.4307520000000 1.0
C      1  0.5403030000000  0.5427530000000  0.6172340000000 1.0
C      1  0.5840670000000  0.5400850000000  0.5817110000000 1.0
C      1  0.4750270000000  0.5957620000000  0.5527930000000 1.0
C      1  0.4951800000000  0.4021590000000  0.5300200000000 1.0
C      1  0.5292970000000  0.4378800000000  0.4110390000000 1.0
C      1  0.4136150000000  0.4816330000000  0.5143330000000 1.0
C      1  0.4561130000000  0.4721730000000  0.5517010000000 1.0
C      1  0.5788410000000  0.4868200000000  0.4884970000000 1.0
C      1  0.5817670000000  0.5692490000000  0.5330020000000 1.0
C      1  0.4711820000000  0.4187790000000  0.5189470000000 1.0
C      1  0.4485750000000  0.5808190000000  0.4598910000000 1.0
C      1  0.5779540000000  0.4638590000000  0.5495670000000 1.0
C      1  0.5158980000000  0.5121250000000  0.4875390000000 1.0
C      1  0.5608840000000  0.4819230000000  0.4693460000000 1.0
C      1  0.5946730000000  0.5173900000000  0.5189000000000 1.0
C      1  0.4281080000000  0.5405760000000  0.5420980000000 1.0
C      1  0.5244820000000  0.4068970000000  0.5166450000000 1.0
C      1  0.5494810000000  0.5432040000000  0.4270480000000 1.0
C      1  0.5609620000000  0.5838480000000  0.5098030000000 1.0
C      1  0.4777990000000  0.4316240000000  0.5683060000000 1.0
C      1  0.5058140000000  0.5041810000000  0.5531440000000 1.0
C      1  0.5727350000000  0.5581260000000  0.4471370000000 1.0
C      1  0.5371810000000  0.5142700000000  0.5615330000000 1.0
C      1  0.5536930000000  0.4537460000000  0.5105360000000 1.0
C      1  0.6096350000000  0.4984280000000  0.5376620000000 1.0
C      1  0.4985500000000  0.4102790000000  0.5623260000000 1.0
C      1  0.4962120000000  0.5185440000000  0.3934740000000 1.0
C      1  0.3953850000000  0.5322610000000  0.5023910000000 1.0
C      1  0.5315760000000  0.4662260000000  0.4285110000000 1.0
C      1  0.5509230000000  0.5120930000000  0.6130710000000 1.0
C      1  0.5767790000000  0.5434380000000  0.5432470000000 1.0
C      1  0.5083920000000  0.4200050000000  0.4896890000000 1.0
C      1  0.5162120000000  0.4825550000000  0.6083990000000 1.0
C      1  0.3929110000000  0.5648730000000  0.4978820000000 1.0
C      1  0.4846220000000  0.4634520000000  0.5781460000000 1.0
C      1  0.6067340000000  0.5109870000000  0.4567370000000 1.0
C      1  0.4895770000000  0.6130840000000  0.4626690000000 1.0
C      1  0.5940200000000  0.5190180000000  0.5594710000000 1.0
C      1  0.5099600000000  0.4654020000000  0.4619760000000 1.0
C      1  0.4653690000000  0.4368590000000  0.4181220000000 1.0
C      1  0.5068110000000  0.4542840000000  0.5285340000000 1.0
C      1  0.5661310000000  0.4277800000000  0.5376950000000 1.0
C      1  0.4307750000000  0.5810860000000  0.5305040000000 1.0
C      1  0.5435670000000  0.4078880000000  0.5406650000000 1.0
C      1  0.4594210000000  0.6058450000000  0.5010250000000 1.0
C      1  0.4501530000000  0.5740050000000  0.4344950000000 1.0
C      1  0.4852570000000  0.6126570000000  0.4899590000000 1.0
C      1  0.4082030000000  0.5281940000000  0.4637210000000 1.0
C      1  0.4583270000000  0.5491410000000  0.5379470000000 1.0
C      1  0.4595160000000  0.5570330000000  0.5690840000000 1.0
C      1  0.5120730000000  0.5658900000000  0.5762300000000 1.0
C      1  0.5281570000000  0.5857380000000  0.4504410000000 1.0
C      1  0.4410820000000  0.4676730000000  0.5210460000000 1.0
C      1  0.5320990000000  0.4595160000000  0.4849020000000 1.0
C      1  0.4775210000000  0.5671750000000  0.4169530000000 1.0
C      1  0.5545350000000  0.5634220000000  0.4705040000000 1.0
C      1  0.5937170000000  0.4416160000000  0.4966070000000 1.0
C      1  0.5412930000000  0.4118200000000  0.4868780000000 1.0
C      1  0.5290580000000  0.4124010000000  0.5662550000000 1.0
C      1  0.4869310000000  0.4361140000000  0.6072020000000 1.0
C      1  0.5356860000000  0.5960900000000  0.5489440000000 1.0
C      1  0.5591420000000  0.4541060000000  0.4162160000000 1.0
C      1  0.6035510000000  0.4825390000000  0.4573850000000 1.0
C      1  0.4590320000000  0.4378730000000  0.5946340000000 1.0
C      1  0.6039510000000  0.4197760000000  0.4756750000000 1.0
C      1  0.4953310000000  0.3898090000000  0.4824670000000 1.0
C      1  0.5680820000000  0.5011880000000  0.5119510000000 1.0
C      1  0.4804250000000  0.5448770000000  0.3914260000000 1.0
C      1  0.5484080000000  0.4841130000000  0.5248860000000 1.0
C      1  0.4510310000000  0.4937350000000  0.4926000000000 1.0
C      1  0.4266180000000  0.5106780000000  0.5708930000000 1.0
C      1  0.5121960000000  0.6084290000000  0.4410180000000 1.0
C      1  0.4635180000000  0.5216130000000  0.5064230000000 1.0
C      1  0.4238710000000  0.4467860000000  0.4474270000000 1.0
C      1  0.4968110000000  0.5650730000000  0.4641370000000 1.0
C      1  0.4363380000000  0.4867320000000  0.5903880000000 1.0
C      1  0.4521400000000  0.4329230000000  0.4492230000000 1.0
C      1  0.4927790000000  0.5389340000000  0.5061280000000 1.0
C      1  0.4392980000000  0.4578060000000  0.5775480000000 1.0
C      1  0.5392750000000  0.5355060000000  0.4825070000000 1.0
C      1  0.4789420000000  0.4907990000000  0.3889570000000 1.0
C      1  0.3914390000000  0.4766130000000  0.4901560000000 1.0
C      1  0.5471970000000  0.4758640000000  0.5577210000000 1.0
C      1  0.4069010000000  0.5589470000000  0.5250250000000 1.0
C      1  0.5883480000000  0.4712540000000  0.4368380000000 1.0
C      1  0.5391120000000  0.5050870000000  0.4304230000000 1.0
C      1  0.5890220000000  0.4875840000000  0.5701360000000 1.0
C      1  0.4270620000000  0.4399240000000  0.5348220000000 1.0
C      1  0.4887270000000  0.4994590000000  0.5031370000000 1.0
C      1  0.5145410000000  0.4501300000000  0.6010790000000 1.0
C      1  0.5729470000000  0.5678920000000  0.5893280000000 1.0
C      1  0.4383570000000  0.5342460000000  0.4211500000000 1.0
C      1  0.5477850000000  0.4938260000000  0.5865940000000 1.0
C      1  0.5154450000000  0.3775900000000  0.4662180000000 1.0
C      1  0.4159140000000  0.5217200000000  0.4321010000000 1.0
C      1  0.5223990000000  0.5526790000000  0.4454690000000 1.0
C      1  0.5283200000000  0.5749810000000  0.5132780000000 1.0
C      1  0.3866710000000  0.5076120000000  0.4806340000000 1.0
C      1  0.4146560000000  0.4520940000000  0.5601710000000 1.0
C      1  0.4114090000000  0.4948580000000  0.4610940000000 1.0
C      1  0.4923010000000  0.5855350000000  0.5290510000000 1.0
C      1  0.4617710000000  0.5761280000000  0.5173940000000 1.0
C      1  0.4345850000000  0.5350850000000  0.5091550000000 1.0
C      1  0.4514320000000  0.5429200000000  0.3951190000000 1.0
C      1  0.4712630000000  0.5374230000000  0.4293380000000 1.0
C      1  0.5544120000000  0.5236640000000  0.4544510000000 1.0
C      1  0.4872730000000  0.4430790000000  0.5030420000000 1.0
C      1  0.4624680000000  0.5084110000000  0.4397350000000 1.0
C      1  0.4799730000000  0.5773170000000  0.5737170000000 1.0
C      1  0.4695900000000  0.5708730000000  0.4847140000000 1.0
C      1  0.4132470000000  0.4566810000000  0.4759230000000 1.0
C      1  0.5199630000000  0.4164790000000  0.4332520000000 1.0
C      1  0.5413700000000  0.6091360000000  0.4981670000000 1.0
C      1  0.4655850000000  0.4824450000000  0.5944590000000 1.0
C      1  0.5773170000000  0.4407430000000  0.4401160000000 1.0
C      1  0.6014930000000  0.4692370000000  0.4848370000000 1.0
C      1  0.5463550000000  0.4614920000000  0.5971440000000 1.0
C      1  0.3867600000000  0.4630830000000  0.5239010000000 1.0
C      1  0.4716590000000  0.4772790000000  0.4627520000000 1.0
C      1  0.3999130000000  0.5854640000000  0.4526720000000 1.0
C      1  0.4382590000000  0.4769160000000  0.4693610000000 1.0
C      1  0.5472680000000  0.4386350000000  0.5719870000000 1.0
C      1  0.5130300000000  0.5163290000000  0.4210430000000 1.0
C      1  0.5206610000000  0.4754330000000  0.5099000000000 1.0
C      1  0.5332530000000  0.3978400000000  0.4583730000000 1.0
C      1  0.4723220000000  0.4730890000000  0.5087400000000 1.0
C      1  0.5252270000000  0.5118480000000  0.3835150000000 1.0
C      1  0.5966410000000  0.4202380000000  0.4515050000000 1.0
C      1  0.5254890000000  0.4845660000000  0.3774380000000 1.0
C      1  0.4124650000000  0.5117730000000  0.5203810000000 1.0
C      1  0.5871880000000  0.5401010000000  0.4947270000000 1.0
C      1  0.5385040000000  0.4474610000000  0.5403070000000 1.0
C      1  0.5409630000000  0.5310010000000  0.3964600000000 1.0
C      1  0.4106080000000  0.4901700000000  0.4296050000000 1.0
C      1  0.5014140000000  0.4650730000000  0.4229280000000 1.0
C      1  0.4882160000000  0.3794060000000  0.5522230000000 1.0
C      1  0.3986730000000  0.4734300000000  0.5505080000000 1.0
C      1  0.4892280000000  0.4414620000000  0.4378580000000 1.0
C      1  0.5661970000000  0.4876760000000  0.4194950000000 1.0
C      1  0.5448560000000  0.5901620000000  0.4734460000000 1.0
C      1  0.4219780000000  0.5436630000000  0.5722020000000 1.0
C      1  0.5619460000000  0.4331390000000  0.4878300000000 1.0
C      1  0.4581590000000  0.5047820000000  0.5621390000000 1.0
C      1  0.4819770000000  0.5283270000000  0.5507820000000 1.0
C      1  0.5461250000000  0.5374500000000  0.5412930000000 1.0
C      1  0.4690490000000  0.4478190000000  0.4747000000000 1.0
C      1  0.4987160000000  0.5277850000000  0.4469760000000 1.0
C      1  0.5928540000000  0.4458250000000  0.5272890000000 1.0
C      1  0.4992660000000  0.4972390000000  0.4619530000000 1.0
C      1  0.5260000000000  0.5637020000000  0.5452750000000 1.0
C      1  0.5743140000000  0.4586610000000  0.5815450000000 1.0
C      1  0.4892630000000  0.4018390000000  0.4335840000000 1.0
C      1  0.4534110000000  0.5442680000000  0.4751160000000 1.0
C      1  0.4684330000000  0.3929230000000  0.4754050000000 1.0
C      1  0.4475600000000  0.6004000000000  0.5457740000000 1.0
C      1  0.5535660000000  0.5348380000000  0.5804560000000 1.0
C      1  0.5360540000000  0.4842140000000  0.4536900000000 1.0
C      1  0.6137890000000  0.4717290000000  0.5343820000000 1.0
C      1  0.5581360000000  0.5310200000000  0.5101290000000 1.0
C      1  0.4461960000000  0.4460170000000  0.4959120000000 1.0
C      1  0.4326610000000  0.4199970000000  0.5010200000000 1.0
C      1  0.5176340000000  0.4653450000000  0.5708280000000 1.0
C      1  0.4896070000000  0.4749740000000  0.5465460000000 1.0
C      1  0.5911440000000  0.5693910000000  0.5036400000000 1.0
C      1  0.4602320000000  0.4397380000000  0.5422950000000 1.0
C      1  0.5161320000000  0.5569250000000  0.4913310000000 1.0
C      1  0.4231160000000  0.4655800000000  0.4252830000000 1.0
C      1  0.4874960000000  0.5863270000000  0.4411630000000 1.0
C      1  0.4380270000000  0.5981410000000  0.4833090000000 1.0
C      1  0.5391890000000  0.5629540000000  0.5913420000000 1.0
C      1  0.5146780000000  0.5052350000000  0.5211520000000 1.0
C      1  0.4605980000000  0.5055390000000  0.4058960000000 1.0
C      1  0.4765670000000  0.4579030000000  0.3926740000000 1.0
C      1  0.5106280000000  0.4596570000000  0.3919330000000 1.0
C      1  0.5856160000000  0.5328130000000  0.4644220000000 1.0
C      1  0.4669560000000  0.4048390000000  0.4497370000000 1.0
END
