TITL C-2847947-6848-668 -0.0021243053334712 125000 -739.774939468571 0 0 136 (C1) n - 1
REM
REM in /home/bkarasulu/work/CARBON/AIRSS/Generating-Clusters/AIREBO/with-SteepDescent/Only-C1/SD-CG-opt/Try1-1.4A-POS3A/HFTN-CG
REM
REM
REM
REM
REM
REM ./C.cell (11c1c37f851c82e70ff6c80c92926a4b)
REM
REM compiler GCC version 9.2.1 20190827 (Red Hat 9.2.1-1)
REM options -cpp -mtune=generic -march=x86-64 -g -O0 -fpre-include=/usr/include/finclude/math-vector-fortran.h
REM seed 574500301 -1307512039 158074395 984915291 1450200822 -502448681 1949435756 -1749264521 1189172028 -65019604 -1644461446 -219411353 -111110135 2008943626 1930141956 432331782 738701866 415843950 383315824 795226219 -1852453191 -1540884514 -529209143 -2010887281 -99270183 -2061209244 1663553995 -962068304 786551604 1366937254 1348074495 -1527171434 519189264
REM
CELL 1.54180   50.00000   50.00000   50.00000   90.00000   90.00000   90.00000
LATT -1
SFAC C  
C      1  0.5325640000000  0.4678380000000  0.5656430000000 1.0
C      1  0.5492810000000  0.5275660000000  0.4326830000000 1.0
C      1  0.5707870000000  0.5536490000000  0.5505910000000 1.0
C      1  0.4577870000000  0.5860430000000  0.5277290000000 1.0
C      1  0.4945650000000  0.5273910000000  0.4674160000000 1.0
C      1  0.4932690000000  0.4516300000000  0.5907680000000 1.0
C      1  0.4696650000000  0.5351670000000  0.4076530000000 1.0
C      1  0.4390280000000  0.4716810000000  0.5580380000000 1.0
C      1  0.5231150000000  0.5481690000000  0.5631850000000 1.0
C      1  0.5317880000000  0.4095430000000  0.5060690000000 1.0
C      1  0.5334510000000  0.4499660000000  0.5897240000000 1.0
C      1  0.5194770000000  0.4930710000000  0.4475240000000 1.0
C      1  0.5628990000000  0.4238980000000  0.4860560000000 1.0
C      1  0.4620780000000  0.4552280000000  0.5952990000000 1.0
C      1  0.5097100000000  0.4991560000000  0.3965270000000 1.0
C      1  0.4770260000000  0.4474130000000  0.5451980000000 1.0
C      1  0.4633980000000  0.4297060000000  0.4251760000000 1.0
C      1  0.5305100000000  0.5943040000000  0.5039320000000 1.0
C      1  0.5467650000000  0.5084960000000  0.4607260000000 1.0
C      1  0.5230160000000  0.4675510000000  0.3984090000000 1.0
C      1  0.5202010000000  0.5710620000000  0.4473520000000 1.0
C      1  0.4565730000000  0.5610490000000  0.5046500000000 1.0
C      1  0.5258190000000  0.4159270000000  0.5504130000000 1.0
C      1  0.5944110000000  0.4930660000000  0.5399630000000 1.0
C      1  0.4398770000000  0.4847130000000  0.5266450000000 1.0
C      1  0.5254070000000  0.5658310000000  0.4900150000000 1.0
C      1  0.5177880000000  0.5750760000000  0.5474010000000 1.0
C      1  0.4791680000000  0.4146760000000  0.4946190000000 1.0
C      1  0.4758030000000  0.5210270000000  0.5445400000000 1.0
C      1  0.5399210000000  0.5856620000000  0.5299850000000 1.0
C      1  0.5420250000000  0.4416020000000  0.5063650000000 1.0
C      1  0.4553320000000  0.4579340000000  0.4289460000000 1.0
C      1  0.5087490000000  0.4898970000000  0.5558400000000 1.0
C      1  0.5041830000000  0.4291860000000  0.5031950000000 1.0
C      1  0.5054670000000  0.5434740000000  0.5063310000000 1.0
C      1  0.5341450000000  0.4193950000000  0.4382180000000 1.0
C      1  0.4543610000000  0.6036260000000  0.4837900000000 1.0
C      1  0.4625180000000  0.4295970000000  0.4743200000000 1.0
C      1  0.5475770000000  0.4890360000000  0.4885820000000 1.0
C      1  0.5273990000000  0.5289090000000  0.4764700000000 1.0
C      1  0.5289010000000  0.5242860000000  0.5217910000000 1.0
C      1  0.4078480000000  0.4438530000000  0.5243270000000 1.0
C      1  0.5888510000000  0.5392610000000  0.4785120000000 1.0
C      1  0.5540090000000  0.5586140000000  0.4761800000000 1.0
C      1  0.4734910000000  0.5368480000000  0.5743320000000 1.0
C      1  0.5769720000000  0.5347800000000  0.5159050000000 1.0
C      1  0.4380760000000  0.4411430000000  0.5541730000000 1.0
C      1  0.5955330000000  0.5135880000000  0.4997830000000 1.0
C      1  0.4504450000000  0.6105420000000  0.5102770000000 1.0
C      1  0.4141940000000  0.5198930000000  0.4669950000000 1.0
C      1  0.5068200000000  0.5047950000000  0.6000330000000 1.0
C      1  0.4878400000000  0.5793010000000  0.5366870000000 1.0
C      1  0.4386160000000  0.5240400000000  0.4484070000000 1.0
C      1  0.5089020000000  0.5210740000000  0.5491010000000 1.0
C      1  0.4277510000000  0.4637700000000  0.4774190000000 1.0
C      1  0.4673960000000  0.3977290000000  0.5203940000000 1.0
C      1  0.4072370000000  0.5410490000000  0.4835390000000 1.0
C      1  0.5228930000000  0.4472170000000  0.4222320000000 1.0
C      1  0.5776460000000  0.4506530000000  0.4711240000000 1.0
C      1  0.5784250000000  0.5642190000000  0.4991790000000 1.0
C      1  0.4527370000000  0.4791910000000  0.5832790000000 1.0
C      1  0.4625600000000  0.5665130000000  0.4714250000000 1.0
C      1  0.4306350000000  0.4323170000000  0.5126580000000 1.0
C      1  0.5134890000000  0.5908440000000  0.4742280000000 1.0
C      1  0.4148040000000  0.5557490000000  0.5139560000000 1.0
C      1  0.4357820000000  0.4387160000000  0.4863810000000 1.0
C      1  0.4919380000000  0.5081320000000  0.4395140000000 1.0
C      1  0.4608740000000  0.4997440000000  0.4494100000000 1.0
C      1  0.5036820000000  0.4341890000000  0.5339340000000 1.0
C      1  0.4969790000000  0.4975320000000  0.4835250000000 1.0
C      1  0.5486820000000  0.4605980000000  0.4811600000000 1.0
C      1  0.4613190000000  0.5343650000000  0.4689390000000 1.0
C      1  0.5642820000000  0.5703800000000  0.5289330000000 1.0
C      1  0.4128510000000  0.5720670000000  0.4845370000000 1.0
C      1  0.4538250000000  0.4810130000000  0.4704590000000 1.0
C      1  0.5514040000000  0.4272860000000  0.5491460000000 1.0
C      1  0.5975270000000  0.4930180000000  0.4655530000000 1.0
C      1  0.5911640000000  0.4729530000000  0.5131330000000 1.0
C      1  0.4862100000000  0.5189740000000  0.5060680000000 1.0
C      1  0.4925450000000  0.4828780000000  0.5827880000000 1.0
C      1  0.4123630000000  0.4889360000000  0.5555150000000 1.0
C      1  0.5215340000000  0.4966040000000  0.5041430000000 1.0
C      1  0.4630540000000  0.5612980000000  0.4129780000000 1.0
C      1  0.5320310000000  0.4527390000000  0.5363690000000 1.0
C      1  0.5498730000000  0.5364920000000  0.5008450000000 1.0
C      1  0.5808810000000  0.5242190000000  0.5445330000000 1.0
C      1  0.4880070000000  0.5667600000000  0.5671620000000 1.0
C      1  0.4556430000000  0.4814410000000  0.4143330000000 1.0
C      1  0.5009220000000  0.5277580000000  0.4132360000000 1.0
C      1  0.5017530000000  0.4651460000000  0.4419300000000 1.0
C      1  0.5535840000000  0.5064680000000  0.5369590000000 1.0
C      1  0.4554320000000  0.5273850000000  0.4999590000000 1.0
C      1  0.5786940000000  0.4899280000000  0.5647950000000 1.0
C      1  0.5536830000000  0.4983530000000  0.4218680000000 1.0
C      1  0.4330670000000  0.5317940000000  0.5223390000000 1.0
C      1  0.5051460000000  0.5345560000000  0.5865410000000 1.0
C      1  0.4868610000000  0.3818130000000  0.4992810000000 1.0
C      1  0.5618620000000  0.5516030000000  0.4501260000000 1.0
C      1  0.5119420000000  0.4772250000000  0.5256370000000 1.0
C      1  0.5964650000000  0.4693490000000  0.4809890000000 1.0
C      1  0.4338450000000  0.5846820000000  0.4725890000000 1.0
C      1  0.4752360000000  0.4183530000000  0.4467340000000 1.0
C      1  0.4165590000000  0.5142390000000  0.5622810000000 1.0
C      1  0.4696740000000  0.5698660000000  0.4385610000000 1.0
C      1  0.4553560000000  0.4250050000000  0.5315510000000 1.0
C      1  0.4347060000000  0.5679710000000  0.5387530000000 1.0
C      1  0.5527800000000  0.5539470000000  0.5711600000000 1.0
C      1  0.5800180000000  0.5152900000000  0.4632280000000 1.0
C      1  0.4829510000000  0.4650970000000  0.5173480000000 1.0
C      1  0.4717990000000  0.4953000000000  0.5257770000000 1.0
C      1  0.4738890000000  0.4568520000000  0.4574290000000 1.0
C      1  0.4092920000000  0.4705690000000  0.5315260000000 1.0
C      1  0.4941560000000  0.5561270000000  0.4492460000000 1.0
C      1  0.5469530000000  0.4952470000000  0.5661820000000 1.0
C      1  0.5123490000000  0.3956840000000  0.4830970000000 1.0
C      1  0.4500510000000  0.5148270000000  0.4177380000000 1.0
C      1  0.5327570000000  0.5147190000000  0.5837680000000 1.0
C      1  0.5419740000000  0.4930870000000  0.3972880000000 1.0
C      1  0.4428670000000  0.5269450000000  0.5505940000000 1.0
C      1  0.4879940000000  0.5706470000000  0.5065240000000 1.0
C      1  0.4824020000000  0.4924720000000  0.4108810000000 1.0
C      1  0.5324730000000  0.4560370000000  0.4536530000000 1.0
C      1  0.5020690000000  0.4178390000000  0.4619970000000 1.0
C      1  0.4719580000000  0.4321530000000  0.5731810000000 1.0
C      1  0.4839240000000  0.5921850000000  0.4805220000000 1.0
C      1  0.5681220000000  0.4962610000000  0.5101180000000 1.0
C      1  0.4436660000000  0.4959760000000  0.4976810000000 1.0
C      1  0.5816620000000  0.4405230000000  0.5091940000000 1.0
C      1  0.4879160000000  0.4676640000000  0.4864600000000 1.0
C      1  0.5241770000000  0.5452510000000  0.4255780000000 1.0
C      1  0.4172390000000  0.4945530000000  0.4789090000000 1.0
C      1  0.5380010000000  0.4109700000000  0.4668140000000 1.0
C      1  0.4448740000000  0.5542500000000  0.5671280000000 1.0
C      1  0.5546350000000  0.4765330000000  0.4380070000000 1.0
C      1  0.5090560000000  0.4458980000000  0.4761240000000 1.0
C      1  0.4677900000000  0.5057870000000  0.5874420000000 1.0
END
