TITL C-2847945-6269-151 342.186423770806 125000 -719.43938960492 0 0 135 (C1) n - 1
REM
REM in /home/bkarasulu/work/CARBON/AIRSS/Generating-Clusters/AIREBO/with-SteepDescent/Only-C1/SD-CG-opt/Try1-1.4A-POS3A/HFTN-CG
REM
REM
REM
REM
REM
REM ./C.cell (11c1c37f851c82e70ff6c80c92926a4b)
REM
REM compiler GCC version 9.2.1 20190827 (Red Hat 9.2.1-1)
REM options -cpp -mtune=generic -march=x86-64 -g -O0 -fpre-include=/usr/include/finclude/math-vector-fortran.h
REM seed -1440504298 -1343982440 -1273031811 1174105351 -2009800429 -1421418302 1950446562 -1179232517 997095656 2021293933 -1783394789 772043842 1474184287 58071289 1754029914 -204458150 -1839114610 595586719 612390570 2116098033 1559966033 -32771186 -918204111 -1769699556 228601704 934002516 1186866116 634021761 -930448919 750319929 -1314596246 1851611387 -1490547490
REM
CELL 1.54180   50.00000   50.00000   50.00000   90.00000   90.00000   90.00000
LATT -1
SFAC C  
C      1  0.4877780000000  0.5563930000000  0.5619720000000 1.0
C      1  0.4975820000000  0.5439110000000  0.4361810000000 1.0
C      1  0.4382970000000  0.5867450000000  0.5007280000000 1.0
C      1  0.4623710000000  0.5036420000000  0.4070910000000 1.0
C      1  0.5780110000000  0.4699360000000  0.4749170000000 1.0
C      1  0.4523710000000  0.4344620000000  0.4202400000000 1.0
C      1  0.4135930000000  0.5244150000000  0.4639800000000 1.0
C      1  0.5736930000000  0.4973440000000  0.5814080000000 1.0
C      1  0.5684130000000  0.4356210000000  0.5133390000000 1.0
C      1  0.4380260000000  0.5094680000000  0.4209180000000 1.0
C      1  0.4511050000000  0.4162330000000  0.4785160000000 1.0
C      1  0.4805750000000  0.5004210000000  0.5986430000000 1.0
C      1  0.5317390000000  0.4061230000000  0.5285470000000 1.0
C      1  0.5491260000000  0.5376230000000  0.5461540000000 1.0
C      1  0.4659610000000  0.5675380000000  0.4413330000000 1.0
C      1  0.5293150000000  0.4543760000000  0.5916130000000 1.0
C      1  0.5391690000000  0.5687020000000  0.5558130000000 1.0
C      1  0.5167080000000  0.4892080000000  0.4395000000000 1.0
C      1  0.4339610000000  0.4515950000000  0.4396970000000 1.0
C      1  0.4472020000000  0.4256070000000  0.5109810000000 1.0
C      1  0.4746710000000  0.5824240000000  0.4699030000000 1.0
C      1  0.5303910000000  0.4785170000000  0.5600190000000 1.0
C      1  0.4428710000000  0.4330390000000  0.5372470000000 1.0
C      1  0.4898640000000  0.4719560000000  0.4833150000000 1.0
C      1  0.5432210000000  0.4779980000000  0.4280230000000 1.0
C      1  0.4284370000000  0.4704410000000  0.4994360000000 1.0
C      1  0.5701060000000  0.4854350000000  0.5375480000000 1.0
C      1  0.5518210000000  0.4765270000000  0.5849140000000 1.0
C      1  0.4727310000000  0.4958300000000  0.5597220000000 1.0
C      1  0.4197690000000  0.5201980000000  0.5372170000000 1.0
C      1  0.5303090000000  0.5223680000000  0.5783910000000 1.0
C      1  0.4719960000000  0.4780980000000  0.4359280000000 1.0
C      1  0.4739700000000  0.5605640000000  0.4088450000000 1.0
C      1  0.4250300000000  0.4836320000000  0.4326280000000 1.0
C      1  0.4912570000000  0.5833620000000  0.5328310000000 1.0
C      1  0.4969460000000  0.4647970000000  0.5931750000000 1.0
C      1  0.5946170000000  0.4642860000000  0.5439170000000 1.0
C      1  0.4702850000000  0.4423010000000  0.5014070000000 1.0
C      1  0.5774310000000  0.5260230000000  0.5353660000000 1.0
C      1  0.4647760000000  0.5368080000000  0.4306850000000 1.0
C      1  0.5754670000000  0.4676460000000  0.5090160000000 1.0
C      1  0.5188880000000  0.4652410000000  0.5119200000000 1.0
C      1  0.4778280000000  0.4442830000000  0.4155580000000 1.0
C      1  0.5619890000000  0.4261040000000  0.4579940000000 1.0
C      1  0.5396490000000  0.4704950000000  0.4854940000000 1.0
C      1  0.5265380000000  0.4175440000000  0.4781050000000 1.0
C      1  0.5299230000000  0.5505770000000  0.5217080000000 1.0
C      1  0.5469530000000  0.4284480000000  0.5332710000000 1.0
C      1  0.4301730000000  0.5056350000000  0.5595690000000 1.0
C      1  0.5025600000000  0.4365600000000  0.4376490000000 1.0
C      1  0.5830950000000  0.5426550000000  0.5075470000000 1.0
C      1  0.5040180000000  0.5915590000000  0.4595810000000 1.0
C      1  0.5283430000000  0.5315900000000  0.4420320000000 1.0
C      1  0.4766630000000  0.5268980000000  0.4831130000000 1.0
C      1  0.5863460000000  0.5340600000000  0.4809920000000 1.0
C      1  0.4409070000000  0.5854780000000  0.4726500000000 1.0
C      1  0.4280850000000  0.4220910000000  0.4552780000000 1.0
C      1  0.5124070000000  0.5775480000000  0.5551660000000 1.0
C      1  0.5567030000000  0.5184760000000  0.4518200000000 1.0
C      1  0.5419010000000  0.4662350000000  0.4025450000000 1.0
C      1  0.4795830000000  0.4996850000000  0.4681280000000 1.0
C      1  0.4925390000000  0.5017930000000  0.4226720000000 1.0
C      1  0.4326310000000  0.5360440000000  0.4414420000000 1.0
C      1  0.4466390000000  0.5462840000000  0.5024130000000 1.0
C      1  0.5609850000000  0.5754730000000  0.5354950000000 1.0
C      1  0.5025840000000  0.5371860000000  0.4957790000000 1.0
C      1  0.5115790000000  0.4113150000000  0.5069050000000 1.0
C      1  0.5299720000000  0.4515210000000  0.5409870000000 1.0
C      1  0.5542040000000  0.5007750000000  0.4801020000000 1.0
C      1  0.4426880000000  0.4690000000000  0.5949390000000 1.0
C      1  0.5684580000000  0.5767740000000  0.4488140000000 1.0
C      1  0.4331400000000  0.4459360000000  0.4789830000000 1.0
C      1  0.4617420000000  0.4592100000000  0.5479770000000 1.0
C      1  0.4984990000000  0.4875450000000  0.5228470000000 1.0
C      1  0.4367200000000  0.4753250000000  0.5645850000000 1.0
C      1  0.5316050000000  0.5758120000000  0.5080610000000 1.0
C      1  0.4154280000000  0.4702880000000  0.4616840000000 1.0
C      1  0.4788810000000  0.4049630000000  0.4741270000000 1.0
C      1  0.5565800000000  0.4589160000000  0.4509130000000 1.0
C      1  0.4869810000000  0.4589780000000  0.4525800000000 1.0
C      1  0.5751250000000  0.5528310000000  0.4605010000000 1.0
C      1  0.5145610000000  0.4424120000000  0.5659220000000 1.0
C      1  0.5567460000000  0.5129160000000  0.5117640000000 1.0
C      1  0.5234200000000  0.5187500000000  0.5152550000000 1.0
C      1  0.4874750000000  0.5664610000000  0.4970580000000 1.0
C      1  0.4886090000000  0.3920210000000  0.4971570000000 1.0
C      1  0.4577320000000  0.5526240000000  0.5563690000000 1.0
C      1  0.5948630000000  0.4415980000000  0.5320890000000 1.0
C      1  0.5502300000000  0.5731000000000  0.4841630000000 1.0
C      1  0.5423590000000  0.4847420000000  0.5226050000000 1.0
C      1  0.5089450000000  0.5081790000000  0.5443330000000 1.0
C      1  0.4945680000000  0.5307490000000  0.4049540000000 1.0
C      1  0.5146660000000  0.5691170000000  0.4410150000000 1.0
C      1  0.5009210000000  0.4417040000000  0.4959900000000 1.0
C      1  0.5033020000000  0.4932330000000  0.5743800000000 1.0
C      1  0.4752530000000  0.4724990000000  0.4025920000000 1.0
C      1  0.5860490000000  0.4973310000000  0.5034420000000 1.0
C      1  0.5511050000000  0.5055570000000  0.5573550000000 1.0
C      1  0.4695890000000  0.5252930000000  0.5976510000000 1.0
C      1  0.5259460000000  0.5323520000000  0.4109930000000 1.0
C      1  0.4625940000000  0.5717840000000  0.5183010000000 1.0
C      1  0.5472780000000  0.5406540000000  0.4757430000000 1.0
C      1  0.4672560000000  0.4859240000000  0.5276560000000 1.0
C      1  0.5332810000000  0.4400130000000  0.4347220000000 1.0
C      1  0.4635380000000  0.5218180000000  0.5447140000000 1.0
C      1  0.4889940000000  0.5457900000000  0.6004260000000 1.0
C      1  0.5507310000000  0.4402200000000  0.4856470000000 1.0
C      1  0.4465620000000  0.5110820000000  0.4835950000000 1.0
C      1  0.5905580000000  0.5109890000000  0.5604470000000 1.0
C      1  0.4604630000000  0.4713400000000  0.5004040000000 1.0
C      1  0.4490790000000  0.4921330000000  0.4551180000000 1.0
C      1  0.5204250000000  0.5207990000000  0.4732610000000 1.0
C      1  0.5171720000000  0.4885730000000  0.4716860000000 1.0
C      1  0.4077650000000  0.5137070000000  0.5119210000000 1.0
C      1  0.5247690000000  0.5022610000000  0.5991740000000 1.0
C      1  0.4610110000000  0.5513020000000  0.4712810000000 1.0
C      1  0.4496770000000  0.5267730000000  0.5755160000000 1.0
C      1  0.5494560000000  0.4138580000000  0.4336280000000 1.0
C      1  0.4225580000000  0.4537960000000  0.5451190000000 1.0
C      1  0.4560780000000  0.5162700000000  0.5153540000000 1.0
C      1  0.5377980000000  0.5864890000000  0.4575210000000 1.0
C      1  0.5633620000000  0.5014410000000  0.4300070000000 1.0
C      1  0.4102190000000  0.4636660000000  0.5231950000000 1.0
C      1  0.5072590000000  0.5889090000000  0.5079060000000 1.0
C      1  0.4336100000000  0.5457780000000  0.5338250000000 1.0
C      1  0.4671770000000  0.4746450000000  0.6051420000000 1.0
C      1  0.4163280000000  0.4965420000000  0.4832740000000 1.0
C      1  0.5128730000000  0.5441680000000  0.5814000000000 1.0
C      1  0.4160950000000  0.5354530000000  0.4920810000000 1.0
C      1  0.5871850000000  0.5025570000000  0.4719940000000 1.0
C      1  0.5704420000000  0.5676290000000  0.5098110000000 1.0
C      1  0.4282330000000  0.5674000000000  0.4542150000000 1.0
C      1  0.5066840000000  0.5401010000000  0.5425600000000 1.0
C      1  0.5015560000000  0.4158600000000  0.4604300000000 1.0
C      1  0.4851020000000  0.4508910000000  0.5648000000000 1.0
END
