TITL C-2848498-1409-179 0.00175265354821254 125000 -909.520610248192 0 0 166 (C1) n - 1
REM
REM in /home/bkarasulu/work/CARBON/AIRSS/Generating-Clusters/AIREBO/with-SteepDescent/Only-C1/SD-CG-opt/Try1-1.4A-POS3A/HFTN-CG
REM
REM
REM
REM
REM
REM ./C.cell (11c1c37f851c82e70ff6c80c92926a4b)
REM
REM compiler GCC version 9.2.1 20190827 (Red Hat 9.2.1-1)
REM options -cpp -mtune=generic -march=x86-64 -g -O0 -fpre-include=/usr/include/finclude/math-vector-fortran.h
REM seed -680516381 -1045361003 1254138425 2129009658 -1055716393 1906497795 -961493297 7949409 1775635150 -976966372 819119157 -63779950 -1230492175 -359500412 -16452273 4395241 -236383277 1172312738 508934340 -133418787 1467991263 -564906003 -1468784496 -1749999036 -97130776 2134892962 -864004786 1894538594 -166239196 -639964504 1300409386 1446909476 -446382120
REM
CELL 1.54180   50.00000   50.00000   50.00000   90.00000   90.00000   90.00000
LATT -1
SFAC C  
C      1  0.4932760000000  0.4639460000000  0.4555280000000 1.0
C      1  0.4048720000000  0.4772250000000  0.5397550000000 1.0
C      1  0.4316240000000  0.5114850000000  0.4844650000000 1.0
C      1  0.4833360000000  0.5463820000000  0.5927020000000 1.0
C      1  0.5501900000000  0.4122550000000  0.4404160000000 1.0
C      1  0.4611170000000  0.4558290000000  0.4493940000000 1.0
C      1  0.4412840000000  0.4125430000000  0.5027850000000 1.0
C      1  0.5321280000000  0.4522340000000  0.4239010000000 1.0
C      1  0.4605950000000  0.4291730000000  0.5447670000000 1.0
C      1  0.4644240000000  0.4517820000000  0.4168190000000 1.0
C      1  0.5603390000000  0.4895060000000  0.4828220000000 1.0
C      1  0.4046270000000  0.5873710000000  0.5163740000000 1.0
C      1  0.4967830000000  0.5342690000000  0.4537420000000 1.0
C      1  0.5520200000000  0.4946550000000  0.5320070000000 1.0
C      1  0.5241650000000  0.5031660000000  0.5160610000000 1.0
C      1  0.5765190000000  0.4766670000000  0.5416990000000 1.0
C      1  0.4286300000000  0.5498710000000  0.4951440000000 1.0
C      1  0.5271290000000  0.4343110000000  0.4982040000000 1.0
C      1  0.6108310000000  0.4624760000000  0.4825750000000 1.0
C      1  0.5203820000000  0.4718370000000  0.5213160000000 1.0
C      1  0.5509860000000  0.4567920000000  0.5651370000000 1.0
C      1  0.5118640000000  0.4996350000000  0.3872160000000 1.0
C      1  0.4446740000000  0.4752700000000  0.5405640000000 1.0
C      1  0.5721210000000  0.4475200000000  0.5442210000000 1.0
C      1  0.5688270000000  0.5115430000000  0.5077480000000 1.0
C      1  0.6013320000000  0.5562490000000  0.5040890000000 1.0
C      1  0.5268500000000  0.4519790000000  0.6018680000000 1.0
C      1  0.5107890000000  0.4051900000000  0.4722150000000 1.0
C      1  0.4768170000000  0.4202920000000  0.5799930000000 1.0
C      1  0.4753380000000  0.5747330000000  0.5066310000000 1.0
C      1  0.4967550000000  0.4621690000000  0.5992010000000 1.0
C      1  0.5702850000000  0.5128410000000  0.4426780000000 1.0
C      1  0.5230450000000  0.4760040000000  0.4621530000000 1.0
C      1  0.4990010000000  0.4528190000000  0.5662580000000 1.0
C      1  0.4890850000000  0.5282900000000  0.5577160000000 1.0
C      1  0.5243480000000  0.4151550000000  0.4487000000000 1.0
C      1  0.5212710000000  0.5912840000000  0.4398290000000 1.0
C      1  0.5042860000000  0.5193630000000  0.5940300000000 1.0
C      1  0.4523970000000  0.4266110000000  0.4551360000000 1.0
C      1  0.4955800000000  0.5189000000000  0.5256820000000 1.0
C      1  0.5324330000000  0.4903470000000  0.4365940000000 1.0
C      1  0.4580510000000  0.5448470000000  0.4250480000000 1.0
C      1  0.4859640000000  0.5846050000000  0.5625770000000 1.0
C      1  0.4858850000000  0.4935150000000  0.5963150000000 1.0
C      1  0.4944950000000  0.4292990000000  0.5420760000000 1.0
C      1  0.5302770000000  0.5397290000000  0.5404820000000 1.0
C      1  0.4273450000000  0.4579930000000  0.5771340000000 1.0
C      1  0.4014180000000  0.4720020000000  0.4703050000000 1.0
C      1  0.4834590000000  0.4167220000000  0.4648020000000 1.0
C      1  0.4891060000000  0.4903660000000  0.5430160000000 1.0
C      1  0.4320670000000  0.5624130000000  0.4661950000000 1.0
C      1  0.3906490000000  0.4769250000000  0.4986200000000 1.0
C      1  0.5623390000000  0.4538220000000  0.4403650000000 1.0
C      1  0.5252740000000  0.4758540000000  0.4004180000000 1.0
C      1  0.5631040000000  0.5662070000000  0.4305740000000 1.0
C      1  0.4102130000000  0.4342310000000  0.5341950000000 1.0
C      1  0.5494990000000  0.5380230000000  0.4987050000000 1.0
C      1  0.4569650000000  0.4471260000000  0.5734120000000 1.0
C      1  0.5560360000000  0.4824090000000  0.4133310000000 1.0
C      1  0.5437420000000  0.5730820000000  0.4523870000000 1.0
C      1  0.5342650000000  0.4311090000000  0.5800440000000 1.0
C      1  0.5666570000000  0.4391810000000  0.4965760000000 1.0
C      1  0.5161450000000  0.5927930000000  0.5049590000000 1.0
C      1  0.3932400000000  0.5040400000000  0.5128270000000 1.0
C      1  0.4598990000000  0.5004110000000  0.4053170000000 1.0
C      1  0.5036330000000  0.5276930000000  0.3998850000000 1.0
C      1  0.4344040000000  0.4197160000000  0.5313290000000 1.0
C      1  0.5114500000000  0.4908550000000  0.5657870000000 1.0
C      1  0.4041450000000  0.4449910000000  0.4643530000000 1.0
C      1  0.4768890000000  0.4238590000000  0.4316920000000 1.0
C      1  0.5024580000000  0.4859100000000  0.4235400000000 1.0
C      1  0.5938710000000  0.4419700000000  0.4805340000000 1.0
C      1  0.5368000000000  0.5111950000000  0.5882860000000 1.0
C      1  0.5265590000000  0.6067260000000  0.5475810000000 1.0
C      1  0.5410420000000  0.5206660000000  0.4353970000000 1.0
C      1  0.5838930000000  0.4953370000000  0.4182970000000 1.0
C      1  0.5779900000000  0.5486580000000  0.4864260000000 1.0
C      1  0.4457680000000  0.5743450000000  0.5370190000000 1.0
C      1  0.4661470000000  0.5402160000000  0.4574790000000 1.0
C      1  0.4955020000000  0.4014610000000  0.5225590000000 1.0
C      1  0.5495690000000  0.4167620000000  0.4796420000000 1.0
C      1  0.5070380000000  0.5338710000000  0.4973650000000 1.0
C      1  0.5243490000000  0.4162320000000  0.5517750000000 1.0
C      1  0.4728390000000  0.5943620000000  0.5342840000000 1.0
C      1  0.4154560000000  0.5149830000000  0.5673800000000 1.0
C      1  0.4767420000000  0.4919840000000  0.4456250000000 1.0
C      1  0.4676810000000  0.4580530000000  0.5338250000000 1.0
C      1  0.4268460000000  0.5710590000000  0.5167450000000 1.0
C      1  0.4252140000000  0.4900240000000  0.5883350000000 1.0
C      1  0.5219810000000  0.4011540000000  0.5034000000000 1.0
C      1  0.5420240000000  0.5819510000000  0.5522880000000 1.0
C      1  0.5614060000000  0.4495070000000  0.4066480000000 1.0
C      1  0.5418230000000  0.4122770000000  0.5284190000000 1.0
C      1  0.4638200000000  0.5231440000000  0.5786540000000 1.0
C      1  0.5720330000000  0.5376800000000  0.5669300000000 1.0
C      1  0.5049770000000  0.6024330000000  0.5308110000000 1.0
C      1  0.5063050000000  0.4784040000000  0.4904320000000 1.0
C      1  0.5037640000000  0.4150750000000  0.5782890000000 1.0
C      1  0.4691580000000  0.5678600000000  0.5774610000000 1.0
C      1  0.5434050000000  0.4610570000000  0.4849150000000 1.0
C      1  0.5116720000000  0.5710020000000  0.5569740000000 1.0
C      1  0.5633940000000  0.4302440000000  0.5247440000000 1.0
C      1  0.3979670000000  0.5055480000000  0.5463190000000 1.0
C      1  0.4782570000000  0.4598220000000  0.4953930000000 1.0
C      1  0.5247570000000  0.4653780000000  0.5510440000000 1.0
C      1  0.4716690000000  0.4000970000000  0.5061880000000 1.0
C      1  0.5560020000000  0.5711310000000  0.4808850000000 1.0
C      1  0.4064060000000  0.5243360000000  0.4983250000000 1.0
C      1  0.5358230000000  0.5343760000000  0.4613750000000 1.0
C      1  0.5871410000000  0.5564550000000  0.4389330000000 1.0
C      1  0.4540570000000  0.4741810000000  0.4762910000000 1.0
C      1  0.4539890000000  0.5010540000000  0.6007960000000 1.0
C      1  0.4451270000000  0.5739380000000  0.4488760000000 1.0
C      1  0.5711160000000  0.4804670000000  0.4530340000000 1.0
C      1  0.4023620000000  0.4479220000000  0.5099150000000 1.0
C      1  0.4304420000000  0.4557500000000  0.4924080000000 1.0
C      1  0.4715360000000  0.5262400000000  0.4045080000000 1.0
C      1  0.6056290000000  0.4887860000000  0.4734390000000 1.0
C      1  0.5352700000000  0.5110020000000  0.5537330000000 1.0
C      1  0.4482690000000  0.4997540000000  0.5093450000000 1.0
C      1  0.4743970000000  0.4760660000000  0.5694780000000 1.0
C      1  0.4300310000000  0.4266250000000  0.4748420000000 1.0
C      1  0.5360990000000  0.5099580000000  0.4849530000000 1.0
C      1  0.4775910000000  0.4772410000000  0.4066850000000 1.0
C      1  0.5481670000000  0.5485190000000  0.5835930000000 1.0
C      1  0.5610350000000  0.5975850000000  0.4909310000000 1.0
C      1  0.5798510000000  0.5304670000000  0.5337700000000 1.0
C      1  0.5036260000000  0.5085580000000  0.4749220000000 1.0
C      1  0.4704820000000  0.5039580000000  0.4768260000000 1.0
C      1  0.5271020000000  0.5606210000000  0.5035310000000 1.0
C      1  0.4262040000000  0.4788220000000  0.5164520000000 1.0
C      1  0.4752210000000  0.5722300000000  0.4356360000000 1.0
C      1  0.4931140000000  0.5905570000000  0.4526250000000 1.0
C      1  0.4333860000000  0.5256820000000  0.4326530000000 1.0
C      1  0.4464930000000  0.4903590000000  0.5638260000000 1.0
C      1  0.4739310000000  0.4862740000000  0.5159010000000 1.0
C      1  0.4444830000000  0.4939070000000  0.4349210000000 1.0
C      1  0.4687670000000  0.4293040000000  0.4911890000000 1.0
C      1  0.4359630000000  0.5344800000000  0.5677120000000 1.0
C      1  0.4975510000000  0.5493140000000  0.4240260000000 1.0
C      1  0.5596930000000  0.4882950000000  0.5758070000000 1.0
C      1  0.4983200000000  0.5788860000000  0.4827620000000 1.0
C      1  0.5039940000000  0.5576470000000  0.5283020000000 1.0
C      1  0.5800620000000  0.5064160000000  0.5578080000000 1.0
C      1  0.4576440000000  0.5327750000000  0.4895480000000 1.0
C      1  0.6025220000000  0.4893680000000  0.4434280000000 1.0
C      1  0.5070490000000  0.4389420000000  0.4370840000000 1.0
C      1  0.5861350000000  0.5331240000000  0.4602130000000 1.0
C      1  0.4093450000000  0.4537260000000  0.5558040000000 1.0
C      1  0.5942370000000  0.5122440000000  0.4851460000000 1.0
C      1  0.5496130000000  0.5570820000000  0.4073920000000 1.0
C      1  0.4786490000000  0.6120300000000  0.4722250000000 1.0
C      1  0.5313150000000  0.4797970000000  0.5910740000000 1.0
C      1  0.5329710000000  0.5359950000000  0.4111660000000 1.0
C      1  0.5150280000000  0.5591930000000  0.4641730000000 1.0
C      1  0.5721540000000  0.4302530000000  0.4581000000000 1.0
C      1  0.5397030000000  0.6108810000000  0.4969760000000 1.0
C      1  0.4341750000000  0.4644740000000  0.4213660000000 1.0
C      1  0.4454340000000  0.5611650000000  0.5622260000000 1.0
C      1  0.5584020000000  0.5556960000000  0.5425810000000 1.0
C      1  0.5098710000000  0.5781890000000  0.4166120000000 1.0
C      1  0.4748190000000  0.5442900000000  0.5166310000000 1.0
C      1  0.5030890000000  0.4462560000000  0.5141340000000 1.0
C      1  0.4263970000000  0.4891170000000  0.4633230000000 1.0
C      1  0.5170260000000  0.5416690000000  0.5717370000000 1.0
C      1  0.4725500000000  0.6063340000000  0.4961770000000 1.0
END
