TITL C-2848507-1641-595 0.00121846809360027 125000 -599.912540083902 0 0 112 (C1) n - 1
REM
REM in /home/bkarasulu/work/CARBON/AIRSS/Generating-Clusters/AIREBO/with-SteepDescent/Only-C1/SD-CG-opt/Try1-1.4A-POS3A/HFTN-CG
REM
REM
REM
REM
REM
REM ./C.cell (11c1c37f851c82e70ff6c80c92926a4b)
REM
REM compiler GCC version 9.2.1 20190827 (Red Hat 9.2.1-1)
REM options -cpp -mtune=generic -march=x86-64 -g -O0 -fpre-include=/usr/include/finclude/math-vector-fortran.h
REM seed -1638248176 871094365 704946739 -923859568 -1721070946 -595041038 555674440 676705813 -2102933315 834487911 778239764 -1862998431 -1997580615 804145976 -1856821571 1685382675 -1937430528 -2048169129 -1664307272 469239025 -1833759667 1632476705 1186165088 -1916300288 -553684607 -1347908266 192303951 -1608024291 398906765 790436308 720285105 -1727875290 -59307790
REM
CELL 1.54180   50.00000   50.00000   50.00000   90.00000   90.00000   90.00000
LATT -1
SFAC C  
C      1  0.5166860000000  0.4404560000000  0.4258270000000 1.0
C      1  0.4650900000000  0.5369770000000  0.4704560000000 1.0
C      1  0.5566340000000  0.5054370000000  0.4524150000000 1.0
C      1  0.4805790000000  0.5331930000000  0.4080060000000 1.0
C      1  0.4171770000000  0.5203820000000  0.4790350000000 1.0
C      1  0.5026100000000  0.4745310000000  0.4970780000000 1.0
C      1  0.4766320000000  0.4464850000000  0.5640980000000 1.0
C      1  0.4977160000000  0.4494220000000  0.4761740000000 1.0
C      1  0.5478510000000  0.4325520000000  0.5390870000000 1.0
C      1  0.5276240000000  0.4571450000000  0.4619640000000 1.0
C      1  0.5419780000000  0.6050440000000  0.4712820000000 1.0
C      1  0.4713800000000  0.4210940000000  0.4471650000000 1.0
C      1  0.5196380000000  0.4916260000000  0.4196840000000 1.0
C      1  0.5061620000000  0.5517510000000  0.5716650000000 1.0
C      1  0.4952820000000  0.5593400000000  0.5404510000000 1.0
C      1  0.5210040000000  0.3832150000000  0.4916380000000 1.0
C      1  0.4512880000000  0.4615080000000  0.4682360000000 1.0
C      1  0.5312230000000  0.4476920000000  0.4944330000000 1.0
C      1  0.5696970000000  0.4913670000000  0.4751030000000 1.0
C      1  0.5607430000000  0.5514160000000  0.4737920000000 1.0
C      1  0.4926280000000  0.4967100000000  0.4557990000000 1.0
C      1  0.5084960000000  0.5509140000000  0.4163560000000 1.0
C      1  0.4585280000000  0.4481380000000  0.4445300000000 1.0
C      1  0.5044120000000  0.5095270000000  0.5471390000000 1.0
C      1  0.4807350000000  0.5362050000000  0.5229270000000 1.0
C      1  0.5777180000000  0.5189380000000  0.4291710000000 1.0
C      1  0.5580350000000  0.4469840000000  0.4501600000000 1.0
C      1  0.5560270000000  0.5354730000000  0.5601580000000 1.0
C      1  0.4579610000000  0.4882660000000  0.4213610000000 1.0
C      1  0.5334860000000  0.5059490000000  0.5071480000000 1.0
C      1  0.4731940000000  0.4297010000000  0.5359370000000 1.0
C      1  0.5455250000000  0.4564170000000  0.5199220000000 1.0
C      1  0.5673500000000  0.5072630000000  0.5043490000000 1.0
C      1  0.4746070000000  0.5049860000000  0.5349760000000 1.0
C      1  0.4791810000000  0.5617890000000  0.4837190000000 1.0
C      1  0.4665100000000  0.5101530000000  0.4051380000000 1.0
C      1  0.5321820000000  0.5558590000000  0.5549440000000 1.0
C      1  0.4843590000000  0.5281080000000  0.5826980000000 1.0
C      1  0.5088230000000  0.4083600000000  0.5110140000000 1.0
C      1  0.5221390000000  0.4201630000000  0.5380140000000 1.0
C      1  0.5689890000000  0.5558080000000  0.5282560000000 1.0
C      1  0.4691590000000  0.5145270000000  0.4916020000000 1.0
C      1  0.5262160000000  0.5002690000000  0.4519040000000 1.0
C      1  0.4134960000000  0.5199900000000  0.5187100000000 1.0
C      1  0.4559880000000  0.5568420000000  0.5356390000000 1.0
C      1  0.4446810000000  0.5718300000000  0.4663510000000 1.0
C      1  0.5613990000000  0.5823000000000  0.5334020000000 1.0
C      1  0.4721410000000  0.5755660000000  0.5122600000000 1.0
C      1  0.5025370000000  0.5757190000000  0.4388330000000 1.0
C      1  0.5228690000000  0.5867130000000  0.4543030000000 1.0
C      1  0.5136310000000  0.4641910000000  0.5259120000000 1.0
C      1  0.4733540000000  0.4292140000000  0.4763430000000 1.0
C      1  0.4308730000000  0.4398770000000  0.5351980000000 1.0
C      1  0.4457130000000  0.4526410000000  0.5535830000000 1.0
C      1  0.5124060000000  0.4634660000000  0.5911200000000 1.0
C      1  0.5070440000000  0.4377010000000  0.5549600000000 1.0
C      1  0.4745770000000  0.5502520000000  0.4339060000000 1.0
C      1  0.4666310000000  0.4797450000000  0.5136390000000 1.0
C      1  0.5009500000000  0.5400220000000  0.4958480000000 1.0
C      1  0.4775320000000  0.5195310000000  0.4454720000000 1.0
C      1  0.4592200000000  0.4236020000000  0.4990560000000 1.0
C      1  0.5045130000000  0.4688970000000  0.4399480000000 1.0
C      1  0.5211080000000  0.4130320000000  0.4790520000000 1.0
C      1  0.5511910000000  0.4287850000000  0.4770970000000 1.0
C      1  0.5728750000000  0.4731990000000  0.5111870000000 1.0
C      1  0.5332980000000  0.5839350000000  0.5388490000000 1.0
C      1  0.5024540000000  0.5859130000000  0.5243680000000 1.0
C      1  0.5383810000000  0.5414100000000  0.5247860000000 1.0
C      1  0.4212600000000  0.4881360000000  0.5233940000000 1.0
C      1  0.5046580000000  0.4259110000000  0.4522170000000 1.0
C      1  0.4776860000000  0.4084750000000  0.5174380000000 1.0
C      1  0.4730550000000  0.4652800000000  0.4275340000000 1.0
C      1  0.4818630000000  0.4558660000000  0.5249720000000 1.0
C      1  0.5381880000000  0.5728280000000  0.4814750000000 1.0
C      1  0.4740160000000  0.4827210000000  0.4805810000000 1.0
C      1  0.5215980000000  0.5197220000000  0.4116920000000 1.0
C      1  0.5072050000000  0.4715210000000  0.5585000000000 1.0
C      1  0.5443300000000  0.4397480000000  0.4230140000000 1.0
C      1  0.4465040000000  0.5193960000000  0.5105630000000 1.0
C      1  0.4490140000000  0.4788010000000  0.5826950000000 1.0
C      1  0.5660340000000  0.4600340000000  0.4805200000000 1.0
C      1  0.4330140000000  0.5423290000000  0.4604560000000 1.0
C      1  0.5009790000000  0.4991820000000  0.5776640000000 1.0
C      1  0.4289000000000  0.5426780000000  0.5393590000000 1.0
C      1  0.5272210000000  0.5102110000000  0.5935380000000 1.0
C      1  0.4726450000000  0.5549770000000  0.5652220000000 1.0
C      1  0.4436740000000  0.5138740000000  0.5439930000000 1.0
C      1  0.4300770000000  0.4890330000000  0.5563740000000 1.0
C      1  0.5213840000000  0.5643400000000  0.5062900000000 1.0
C      1  0.5725120000000  0.5228680000000  0.5341180000000 1.0
C      1  0.4808510000000  0.4760810000000  0.5924040000000 1.0
C      1  0.5483060000000  0.5138790000000  0.5767500000000 1.0
C      1  0.4340820000000  0.4933160000000  0.4435710000000 1.0
C      1  0.5016860000000  0.5060510000000  0.4971330000000 1.0
C      1  0.5157230000000  0.5287150000000  0.4673600000000 1.0
C      1  0.5292790000000  0.5379420000000  0.4389300000000 1.0
C      1  0.4681780000000  0.4781370000000  0.5548440000000 1.0
C      1  0.5424150000000  0.4639270000000  0.5751690000000 1.0
C      1  0.5796970000000  0.5362250000000  0.4915120000000 1.0
C      1  0.5498590000000  0.4891700000000  0.5588590000000 1.0
C      1  0.4454580000000  0.5213220000000  0.4397240000000 1.0
C      1  0.5550810000000  0.4405760000000  0.5652940000000 1.0
C      1  0.4376070000000  0.4740300000000  0.4968710000000 1.0
C      1  0.4273360000000  0.5452290000000  0.4999070000000 1.0
C      1  0.4424710000000  0.5710990000000  0.4961930000000 1.0
C      1  0.5748530000000  0.4898490000000  0.5393790000000 1.0
C      1  0.5330230000000  0.5108180000000  0.5386480000000 1.0
C      1  0.5399080000000  0.5328500000000  0.4905990000000 1.0
C      1  0.5593140000000  0.5387900000000  0.4463800000000 1.0
C      1  0.4737580000000  0.5731460000000  0.4541210000000 1.0
C      1  0.4245530000000  0.4935440000000  0.4721930000000 1.0
C      1  0.4386270000000  0.4418580000000  0.5079160000000 1.0
END
