TITL C-2848507-1641-414 0.00493086229521007 125000 -612.211256200295 0 0 117 (C1) n - 1
REM
REM in /home/bkarasulu/work/CARBON/AIRSS/Generating-Clusters/AIREBO/with-SteepDescent/Only-C1/SD-CG-opt/Try1-1.4A-POS3A/HFTN-CG
REM
REM
REM
REM
REM
REM ./C.cell (11c1c37f851c82e70ff6c80c92926a4b)
REM
REM compiler GCC version 9.2.1 20190827 (Red Hat 9.2.1-1)
REM options -cpp -mtune=generic -march=x86-64 -g -O0 -fpre-include=/usr/include/finclude/math-vector-fortran.h
REM seed 962639227 -354549272 -2058761136 1853706945 -1585028919 -1552283478 1102309052 897243937 -1336485595 -438901334 1239767998 -362179537 796331308 -613472805 1624861822 833022745 -1881314375 -2039736121 -1694213301 -66975689 -681399165 2067313288 -1682921904 -1755476162 -2120382546 1828453583 -1687074601 -457683067 -1273503929 1520076269 1518438051 -951280560 -1735289996
REM
CELL 1.54180   50.00000   50.00000   50.00000   90.00000   90.00000   90.00000
LATT -1
SFAC C  
C      1  0.4457240000000  0.5591490000000  0.4551500000000 1.0
C      1  0.4544520000000  0.4205690000000  0.5228070000000 1.0
C      1  0.4530990000000  0.4987040000000  0.4902510000000 1.0
C      1  0.4880180000000  0.4825040000000  0.5877090000000 1.0
C      1  0.4345730000000  0.4838990000000  0.5531100000000 1.0
C      1  0.5124020000000  0.4907510000000  0.5298290000000 1.0
C      1  0.5746540000000  0.5315850000000  0.5555480000000 1.0
C      1  0.4542320000000  0.4188220000000  0.4756850000000 1.0
C      1  0.4052650000000  0.4679870000000  0.5012780000000 1.0
C      1  0.4629530000000  0.5344660000000  0.5596430000000 1.0
C      1  0.4704790000000  0.4844910000000  0.5133680000000 1.0
C      1  0.5437780000000  0.5319890000000  0.4200840000000 1.0
C      1  0.6006000000000  0.4842200000000  0.4873450000000 1.0
C      1  0.4367190000000  0.5014930000000  0.5263850000000 1.0
C      1  0.4248420000000  0.5394960000000  0.5249990000000 1.0
C      1  0.4753650000000  0.4437530000000  0.4527220000000 1.0
C      1  0.5439270000000  0.5192370000000  0.4501730000000 1.0
C      1  0.5441680000000  0.4980910000000  0.4253590000000 1.0
C      1  0.4061280000000  0.5293960000000  0.4984690000000 1.0
C      1  0.5102460000000  0.5623490000000  0.5027130000000 1.0
C      1  0.4551300000000  0.5048130000000  0.4262150000000 1.0
C      1  0.5255430000000  0.4480380000000  0.5063410000000 1.0
C      1  0.5237720000000  0.4720270000000  0.4571220000000 1.0
C      1  0.5655670000000  0.5103730000000  0.5730550000000 1.0
C      1  0.4510450000000  0.4395830000000  0.4345040000000 1.0
C      1  0.5274420000000  0.5392120000000  0.5458130000000 1.0
C      1  0.4198060000000  0.4828450000000  0.5821310000000 1.0
C      1  0.4423960000000  0.5061920000000  0.5784640000000 1.0
C      1  0.4725180000000  0.5579540000000  0.5416760000000 1.0
C      1  0.5502400000000  0.4407130000000  0.4612180000000 1.0
C      1  0.5274850000000  0.4617990000000  0.4254150000000 1.0
C      1  0.5482650000000  0.4939690000000  0.4977490000000 1.0
C      1  0.4782280000000  0.5276790000000  0.4207890000000 1.0
C      1  0.5542570000000  0.4647000000000  0.4814200000000 1.0
C      1  0.4981450000000  0.5081530000000  0.4335050000000 1.0
C      1  0.4234830000000  0.5444620000000  0.4731970000000 1.0
C      1  0.4511250000000  0.5265260000000  0.4512810000000 1.0
C      1  0.6007240000000  0.5193500000000  0.4845660000000 1.0
C      1  0.5728840000000  0.4999350000000  0.4832630000000 1.0
C      1  0.4911870000000  0.4753810000000  0.4342410000000 1.0
C      1  0.5689480000000  0.4665710000000  0.5441060000000 1.0
C      1  0.5154120000000  0.4888470000000  0.4129950000000 1.0
C      1  0.4155680000000  0.4981150000000  0.5037430000000 1.0
C      1  0.5581980000000  0.5458080000000  0.5392510000000 1.0
C      1  0.5344800000000  0.5079520000000  0.5443110000000 1.0
C      1  0.5001540000000  0.5309010000000  0.5753040000000 1.0
C      1  0.4721210000000  0.5159340000000  0.4720320000000 1.0
C      1  0.4352900000000  0.4382270000000  0.4712070000000 1.0
C      1  0.5046620000000  0.5939370000000  0.4429870000000 1.0
C      1  0.5740940000000  0.5392190000000  0.4892870000000 1.0
C      1  0.4679230000000  0.5151900000000  0.5233840000000 1.0
C      1  0.5210860000000  0.5537230000000  0.4191370000000 1.0
C      1  0.5831290000000  0.4774930000000  0.5146830000000 1.0
C      1  0.5552960000000  0.4918380000000  0.5279840000000 1.0
C      1  0.4277810000000  0.5037290000000  0.4466310000000 1.0
C      1  0.4334630000000  0.5238010000000  0.5510450000000 1.0
C      1  0.4695810000000  0.4517120000000  0.5537330000000 1.0
C      1  0.5171890000000  0.4266100000000  0.5626340000000 1.0
C      1  0.4223540000000  0.4483620000000  0.4956950000000 1.0
C      1  0.4961910000000  0.5502200000000  0.4063790000000 1.0
C      1  0.5564750000000  0.4786280000000  0.4504720000000 1.0
C      1  0.5866480000000  0.4717050000000  0.4591510000000 1.0
C      1  0.4720300000000  0.4654950000000  0.4785000000000 1.0
C      1  0.4698500000000  0.5856710000000  0.4902340000000 1.0
C      1  0.5008920000000  0.4715020000000  0.5054030000000 1.0
C      1  0.5031160000000  0.4002700000000  0.4710540000000 1.0
C      1  0.5004750000000  0.5455330000000  0.4599220000000 1.0
C      1  0.5554720000000  0.5577620000000  0.4389680000000 1.0
C      1  0.5178550000000  0.5691890000000  0.4462040000000 1.0
C      1  0.4873460000000  0.4252820000000  0.5653210000000 1.0
C      1  0.4530040000000  0.5864180000000  0.4691900000000 1.0
C      1  0.4552280000000  0.4489530000000  0.5040790000000 1.0
C      1  0.4870240000000  0.4412610000000  0.5125010000000 1.0
C      1  0.4387720000000  0.5649500000000  0.5216210000000 1.0
C      1  0.5398950000000  0.5660760000000  0.5189560000000 1.0
C      1  0.4756910000000  0.4538400000000  0.5852220000000 1.0
C      1  0.5479770000000  0.5784080000000  0.4882990000000 1.0
C      1  0.5665810000000  0.4507740000000  0.5075440000000 1.0
C      1  0.4864200000000  0.4284220000000  0.4810040000000 1.0
C      1  0.4885910000000  0.5388430000000  0.4910680000000 1.0
C      1  0.5217540000000  0.4232690000000  0.4551460000000 1.0
C      1  0.4751580000000  0.5557960000000  0.4396640000000 1.0
C      1  0.5488140000000  0.4239250000000  0.5004350000000 1.0
C      1  0.5292590000000  0.5808780000000  0.5476930000000 1.0
C      1  0.5516520000000  0.4810670000000  0.5682960000000 1.0
C      1  0.4874680000000  0.5149920000000  0.5492280000000 1.0
C      1  0.5129350000000  0.5140520000000  0.4632790000000 1.0
C      1  0.4923430000000  0.4845240000000  0.5553960000000 1.0
C      1  0.5591940000000  0.4372090000000  0.5366010000000 1.0
C      1  0.4973190000000  0.5895250000000  0.4937130000000 1.0
C      1  0.5309690000000  0.4305720000000  0.5352870000000 1.0
C      1  0.5449600000000  0.5726170000000  0.4619890000000 1.0
C      1  0.4661460000000  0.4878800000000  0.4535740000000 1.0
C      1  0.5274840000000  0.5181880000000  0.4937300000000 1.0
C      1  0.5258580000000  0.5119730000000  0.5757410000000 1.0
C      1  0.5031230000000  0.4437220000000  0.4380030000000 1.0
C      1  0.5144870000000  0.5591610000000  0.5702130000000 1.0
C      1  0.4409790000000  0.4649980000000  0.4534090000000 1.0
C      1  0.5261090000000  0.4594340000000  0.5622080000000 1.0
C      1  0.5140630000000  0.4476450000000  0.4762480000000 1.0
C      1  0.4997360000000  0.4546450000000  0.5412240000000 1.0
C      1  0.4955310000000  0.5807360000000  0.5520140000000 1.0
C      1  0.5527090000000  0.3988820000000  0.4973340000000 1.0
C      1  0.5200540000000  0.4818930000000  0.5840490000000 1.0
C      1  0.5714330000000  0.5228840000000  0.4617370000000 1.0
C      1  0.4730030000000  0.5129740000000  0.5861230000000 1.0
C      1  0.4407480000000  0.5282510000000  0.4971280000000 1.0
C      1  0.5503890000000  0.5220320000000  0.5960150000000 1.0
C      1  0.4529220000000  0.4657970000000  0.5335380000000 1.0
C      1  0.4657500000000  0.4131750000000  0.5440840000000 1.0
C      1  0.4267280000000  0.4871870000000  0.4735270000000 1.0
C      1  0.4996850000000  0.5141000000000  0.5112420000000 1.0
C      1  0.5493690000000  0.5396940000000  0.5009230000000 1.0
C      1  0.4677200000000  0.5597460000000  0.5080440000000 1.0
C      1  0.4772810000000  0.5733320000000  0.4103330000000 1.0
C      1  0.4997800000000  0.4849020000000  0.4749340000000 1.0
C      1  0.5039570000000  0.5545130000000  0.5320670000000 1.0
END
