TITL C-2848500-1637-125 0.00124019940448921 125000 -422.394064925142 0 0 77 (C1) n - 1
REM
REM in /home/bkarasulu/work/CARBON/AIRSS/Generating-Clusters/AIREBO/with-SteepDescent/Only-C1/SD-CG-opt/Try1-1.4A-POS3A/HFTN-CG
REM
REM
REM
REM
REM
REM ./C.cell (11c1c37f851c82e70ff6c80c92926a4b)
REM
REM compiler GCC version 9.2.1 20190827 (Red Hat 9.2.1-1)
REM options -cpp -mtune=generic -march=x86-64 -g -O0 -fpre-include=/usr/include/finclude/math-vector-fortran.h
REM seed 2026800711 -390993202 -1291276883 1234382826 1817004142 1148207940 -1926782657 -1724742204 -612591844 -2016512110 1967733609 -1557698417 -2144684383 -208993787 -1486017445 -1464424481 784991292 -1268110449 1504112184 750248511 -2079755259 -1181094293 -745973903 -1807566625 -1015541405 -1108809513 603711086 1628452232 729574646 1708676224 452465293 -113540845 -772393456
REM
CELL 1.54180   50.00000   50.00000   50.00000   90.00000   90.00000   90.00000
LATT -1
SFAC C  
C      1  0.4838970000000  0.4138340000000  0.4693290000000 1.0
C      1  0.5292390000000  0.5008450000000  0.4404540000000 1.0
C      1  0.4719180000000  0.5408680000000  0.4817870000000 1.0
C      1  0.4666570000000  0.5272850000000  0.5565320000000 1.0
C      1  0.4203010000000  0.4595740000000  0.5003940000000 1.0
C      1  0.4892190000000  0.5227250000000  0.5986440000000 1.0
C      1  0.5050710000000  0.5085350000000  0.5088560000000 1.0
C      1  0.4929840000000  0.4717120000000  0.4839210000000 1.0
C      1  0.4344190000000  0.4958480000000  0.5370970000000 1.0
C      1  0.4975390000000  0.4462920000000  0.4368140000000 1.0
C      1  0.4883410000000  0.4196660000000  0.4995490000000 1.0
C      1  0.5244110000000  0.5333830000000  0.4844040000000 1.0
C      1  0.5521390000000  0.5684240000000  0.5023290000000 1.0
C      1  0.5856910000000  0.5013720000000  0.5041500000000 1.0
C      1  0.4156230000000  0.4514300000000  0.5509750000000 1.0
C      1  0.4135080000000  0.4882820000000  0.5011580000000 1.0
C      1  0.5031800000000  0.4492160000000  0.5017570000000 1.0
C      1  0.4599320000000  0.5442260000000  0.5362180000000 1.0
C      1  0.4289880000000  0.5697940000000  0.5138800000000 1.0
C      1  0.4577960000000  0.4306280000000  0.5057780000000 1.0
C      1  0.4989140000000  0.5403220000000  0.4669540000000 1.0
C      1  0.4573030000000  0.5122030000000  0.4929410000000 1.0
C      1  0.5034260000000  0.5816210000000  0.4297230000000 1.0
C      1  0.4230480000000  0.4672420000000  0.4483580000000 1.0
C      1  0.4800690000000  0.5183260000000  0.5133510000000 1.0
C      1  0.4315910000000  0.4938100000000  0.4427090000000 1.0
C      1  0.5023760000000  0.5632900000000  0.4474440000000 1.0
C      1  0.5258800000000  0.4915560000000  0.5544710000000 1.0
C      1  0.4277730000000  0.4663610000000  0.5313880000000 1.0
C      1  0.5539990000000  0.4835670000000  0.5418710000000 1.0
C      1  0.5570790000000  0.5167620000000  0.5485520000000 1.0
C      1  0.4490580000000  0.5053460000000  0.5579090000000 1.0
C      1  0.5979380000000  0.4760390000000  0.5221270000000 1.0
C      1  0.4626910000000  0.4649660000000  0.4310980000000 1.0
C      1  0.5230900000000  0.5451390000000  0.5695880000000 1.0
C      1  0.4981990000000  0.3992630000000  0.5157400000000 1.0
C      1  0.5080300000000  0.4726820000000  0.5603690000000 1.0
C      1  0.4578790000000  0.4982090000000  0.4528100000000 1.0
C      1  0.5595320000000  0.5320760000000  0.4443570000000 1.0
C      1  0.4800430000000  0.5503860000000  0.5138370000000 1.0
C      1  0.5015820000000  0.5726200000000  0.5145110000000 1.0
C      1  0.5053350000000  0.5118230000000  0.4566840000000 1.0
C      1  0.5495800000000  0.4773890000000  0.4540110000000 1.0
C      1  0.5568680000000  0.5129430000000  0.5153690000000 1.0
C      1  0.5662910000000  0.5456060000000  0.4919340000000 1.0
C      1  0.5631050000000  0.4454450000000  0.4909330000000 1.0
C      1  0.5821090000000  0.4706900000000  0.5444090000000 1.0
C      1  0.4564060000000  0.4697150000000  0.5136070000000 1.0
C      1  0.5518930000000  0.5277150000000  0.4706980000000 1.0
C      1  0.5421390000000  0.4968190000000  0.4787990000000 1.0
C      1  0.5173080000000  0.5199820000000  0.5491310000000 1.0
C      1  0.4341160000000  0.5437060000000  0.5240550000000 1.0
C      1  0.5496620000000  0.4247410000000  0.5134890000000 1.0
C      1  0.5445700000000  0.4817370000000  0.5092480000000 1.0
C      1  0.5326000000000  0.4515900000000  0.5046690000000 1.0
C      1  0.5105330000000  0.4951900000000  0.4832960000000 1.0
C      1  0.5843970000000  0.4700800000000  0.4930670000000 1.0
C      1  0.4387110000000  0.4421720000000  0.4885720000000 1.0
C      1  0.5235630000000  0.4679070000000  0.4342190000000 1.0
C      1  0.4517110000000  0.4545830000000  0.4615690000000 1.0
C      1  0.5622970000000  0.5933490000000  0.5011310000000 1.0
C      1  0.4782130000000  0.4348640000000  0.4534490000000 1.0
C      1  0.4313120000000  0.5147700000000  0.5111710000000 1.0
C      1  0.5500960000000  0.5349760000000  0.5664440000000 1.0
C      1  0.4824950000000  0.5009280000000  0.4401260000000 1.0
C      1  0.4759080000000  0.5900450000000  0.5118060000000 1.0
C      1  0.4555670000000  0.5668340000000  0.4751840000000 1.0
C      1  0.4792100000000  0.4498690000000  0.5238870000000 1.0
C      1  0.5722580000000  0.4612200000000  0.4634770000000 1.0
C      1  0.4612480000000  0.4803920000000  0.4815750000000 1.0
C      1  0.4930970000000  0.5292110000000  0.5713320000000 1.0
C      1  0.4509020000000  0.5815540000000  0.4992550000000 1.0
C      1  0.5885130000000  0.5329140000000  0.5013260000000 1.0
C      1  0.4925880000000  0.4768690000000  0.4229140000000 1.0
C      1  0.5273320000000  0.5295730000000  0.5180710000000 1.0
C      1  0.4903750000000  0.4544740000000  0.5515710000000 1.0
C      1  0.5273390000000  0.5625950000000  0.5153890000000 1.0
END
