TITL C-2847952-8118-667 -0.000642599748488617 125000 -147.62692355038 0 0 27 (C1) n - 1
REM
REM in /home/bkarasulu/work/CARBON/AIRSS/Generating-Clusters/AIREBO/with-SteepDescent/Only-C1/SD-CG-opt/Try1-1.4A-POS3A/HFTN-CG
REM
REM
REM
REM
REM
REM ./C.cell (11c1c37f851c82e70ff6c80c92926a4b)
REM
REM compiler GCC version 9.2.1 20190827 (Red Hat 9.2.1-1)
REM options -cpp -mtune=generic -march=x86-64 -g -O0 -fpre-include=/usr/include/finclude/math-vector-fortran.h
REM seed 360547903 -818556809 -1753590805 -81035061 -879757938 1980584818 -1129455849 78283626 373647904 1407521365 171482272 1075492019 301144820 -1740122212 1814958344 390929619 1547270829 2012443083 -405619517 370501083 -521559086 1803949693 -556421617 -1887073643 636094208 817144894 774831599 -378137680 767043057 -18824937 -738920732 -1806018522 -745908944
REM
CELL 1.54180   50.00000   50.00000   50.00000   90.00000   90.00000   90.00000
LATT -1
SFAC C  
C      1  0.4987680000000  0.4386120000000  0.5238580000000 1.0
C      1  0.4751290000000  0.5076000000000  0.5440800000000 1.0
C      1  0.5088880000000  0.5090100000000  0.4560100000000 1.0
C      1  0.5500090000000  0.4307740000000  0.4852790000000 1.0
C      1  0.4545970000000  0.5795090000000  0.5624470000000 1.0
C      1  0.5128800000000  0.5230440000000  0.4317080000000 1.0
C      1  0.5353890000000  0.4598270000000  0.4508050000000 1.0
C      1  0.5209860000000  0.4129200000000  0.5253730000000 1.0
C      1  0.4777010000000  0.5512750000000  0.5223860000000 1.0
C      1  0.4743400000000  0.4468490000000  0.5306690000000 1.0
C      1  0.4919640000000  0.5633510000000  0.5013690000000 1.0
C      1  0.4648030000000  0.5657290000000  0.5420630000000 1.0
C      1  0.5171660000000  0.4296790000000  0.4960320000000 1.0
C      1  0.5017510000000  0.5644940000000  0.4517140000000 1.0
C      1  0.5134550000000  0.5506580000000  0.4308470000000 1.0
C      1  0.5235070000000  0.4602620000000  0.4825000000000 1.0
C      1  0.5544130000000  0.4389380000000  0.4585140000000 1.0
C      1  0.4960810000000  0.5517690000000  0.4762170000000 1.0
C      1  0.4424510000000  0.5916310000000  0.5822590000000 1.0
C      1  0.5322760000000  0.4443650000000  0.5299020000000 1.0
C      1  0.5459800000000  0.4544720000000  0.5073740000000 1.0
C      1  0.5200820000000  0.4853770000000  0.4608550000000 1.0
C      1  0.4766760000000  0.5230450000000  0.5211730000000 1.0
C      1  0.4777950000000  0.5110430000000  0.4953960000000 1.0
C      1  0.4762510000000  0.4929660000000  0.5657950000000 1.0
C      1  0.4942030000000  0.5232290000000  0.4757520000000 1.0
C      1  0.4624600000000  0.4895700000000  0.4896270000000 1.0
END
