TITL C-2848496-4490-144 -3.60001809096332e-05 125000 -174.426823897691 0 0 31 (C1) n - 1
REM
REM in /home/bkarasulu/work/CARBON/AIRSS/Generating-Clusters/AIREBO/with-SteepDescent/Only-C1/SD-CG-opt/Try1-1.4A-POS3A/HFTN-CG
REM
REM
REM
REM
REM
REM ./C.cell (11c1c37f851c82e70ff6c80c92926a4b)
REM
REM compiler GCC version 9.2.1 20190827 (Red Hat 9.2.1-1)
REM options -cpp -mtune=generic -march=x86-64 -g -O0 -fpre-include=/usr/include/finclude/math-vector-fortran.h
REM seed -1682481210 -1201558497 -160652605 -545905325 859139435 1883054844 145997569 -557962535 1273311244 -474362307 708425111 47997112 -1043657760 2125565308 171683174 -1630190184 -235688620 1155210192 -1311313052 -1313390268 1228503848 -1260864417 -918736399 -703102113 -887288198 1012150691 663702691 -1933009755 -1690475414 2034043280 -1912666202 1227084736 37542053
REM
CELL 1.54180   50.00000   50.00000   50.00000   90.00000   90.00000   90.00000
LATT -1
SFAC C  
C      1  0.5200110000000  0.4722150000000  0.5013470000000 1.0
C      1  0.4934460000000  0.4842000000000  0.5536550000000 1.0
C      1  0.4313850000000  0.4511280000000  0.5223540000000 1.0
C      1  0.5210150000000  0.4999500000000  0.4556500000000 1.0
C      1  0.5280650000000  0.5230320000000  0.4897050000000 1.0
C      1  0.5132950000000  0.5048360000000  0.5061100000000 1.0
C      1  0.4793370000000  0.5528560000000  0.4796770000000 1.0
C      1  0.5013000000000  0.5111630000000  0.5350730000000 1.0
C      1  0.4938590000000  0.4619470000000  0.4436170000000 1.0
C      1  0.4895120000000  0.5382640000000  0.5388230000000 1.0
C      1  0.5075920000000  0.4847630000000  0.4363580000000 1.0
C      1  0.5730680000000  0.5061250000000  0.5058620000000 1.0
C      1  0.5191200000000  0.5307220000000  0.4599910000000 1.0
C      1  0.5379080000000  0.5464300000000  0.4461850000000 1.0
C      1  0.4719880000000  0.5574570000000  0.5311960000000 1.0
C      1  0.5388910000000  0.4777980000000  0.5261440000000 1.0
C      1  0.4990300000000  0.4521490000000  0.4938190000000 1.0
C      1  0.4525520000000  0.4388620000000  0.5088170000000 1.0
C      1  0.4529230000000  0.5824970000000  0.5237310000000 1.0
C      1  0.4967000000000  0.4471060000000  0.4664720000000 1.0
C      1  0.4619150000000  0.4748750000000  0.5494000000000 1.0
C      1  0.5248890000000  0.4907060000000  0.5465100000000 1.0
C      1  0.4358720000000  0.4668850000000  0.5450310000000 1.0
C      1  0.5326720000000  0.4859760000000  0.4754730000000 1.0
C      1  0.4910750000000  0.5411760000000  0.4577830000000 1.0
C      1  0.5656750000000  0.4837770000000  0.5202920000000 1.0
C      1  0.4781660000000  0.5387840000000  0.4336640000000 1.0
C      1  0.4691300000000  0.5665530000000  0.5006290000000 1.0
C      1  0.4844370000000  0.4564580000000  0.5381400000000 1.0
C      1  0.4796950000000  0.4465830000000  0.5126080000000 1.0
C      1  0.5554770000000  0.5247280000000  0.4958860000000 1.0
END
