TITL C-2848507-1641-54 0.00320652988061224 125000 -464.198599742353 0 0 86 (C1) n - 1
REM
REM in /home/bkarasulu/work/CARBON/AIRSS/Generating-Clusters/AIREBO/with-SteepDescent/Only-C1/SD-CG-opt/Try1-1.4A-POS3A/HFTN-CG
REM
REM
REM
REM
REM
REM ./C.cell (11c1c37f851c82e70ff6c80c92926a4b)
REM
REM compiler GCC version 9.2.1 20190827 (Red Hat 9.2.1-1)
REM options -cpp -mtune=generic -march=x86-64 -g -O0 -fpre-include=/usr/include/finclude/math-vector-fortran.h
REM seed 906594880 1381482956 -1044976336 2144094075 931443926 -773657264 -590055878 638982330 -860497486 312483207 1531222275 -802516888 -1915196420 633071847 -1017254606 1095581760 2142945061 1413632801 2093887296 1431365835 -1561815614 297918982 1085838786 904519288 -24553108 -1019499992 1127639094 1600859019 -1618619483 1296895212 -705793963 -765555400 1349463596
REM
CELL 1.54180   50.00000   50.00000   50.00000   90.00000   90.00000   90.00000
LATT -1
SFAC C  
C      1  0.4276870000000  0.4862170000000  0.5020930000000 1.0
C      1  0.4739340000000  0.4686450000000  0.5748250000000 1.0
C      1  0.4878160000000  0.4746030000000  0.4004850000000 1.0
C      1  0.5761260000000  0.5576880000000  0.5138440000000 1.0
C      1  0.4652650000000  0.5304180000000  0.5033200000000 1.0
C      1  0.5003170000000  0.4850900000000  0.5733150000000 1.0
C      1  0.3894500000000  0.4798350000000  0.4691400000000 1.0
C      1  0.5558100000000  0.5414720000000  0.5104270000000 1.0
C      1  0.5621510000000  0.5327190000000  0.4433480000000 1.0
C      1  0.5798660000000  0.5123880000000  0.4457740000000 1.0
C      1  0.5607720000000  0.4569630000000  0.4787040000000 1.0
C      1  0.4289790000000  0.4860490000000  0.5521300000000 1.0
C      1  0.4797110000000  0.5480720000000  0.5568560000000 1.0
C      1  0.4987630000000  0.4281720000000  0.5193670000000 1.0
C      1  0.4503820000000  0.5112100000000  0.5573730000000 1.0
C      1  0.5241280000000  0.4295820000000  0.5035610000000 1.0
C      1  0.5291920000000  0.4390380000000  0.4557910000000 1.0
C      1  0.5686380000000  0.4976040000000  0.5425400000000 1.0
C      1  0.4805390000000  0.5094350000000  0.4837450000000 1.0
C      1  0.5369970000000  0.4935890000000  0.4701900000000 1.0
C      1  0.4370820000000  0.5352140000000  0.4500470000000 1.0
C      1  0.4910060000000  0.5626570000000  0.4479450000000 1.0
C      1  0.4332270000000  0.5522930000000  0.4940540000000 1.0
C      1  0.4523840000000  0.5589370000000  0.5166230000000 1.0
C      1  0.5190820000000  0.4831520000000  0.4431440000000 1.0
C      1  0.4892410000000  0.5524300000000  0.4933790000000 1.0
C      1  0.5304020000000  0.4998320000000  0.5791470000000 1.0
C      1  0.4425420000000  0.4789030000000  0.5254770000000 1.0
C      1  0.4333790000000  0.5193680000000  0.4967600000000 1.0
C      1  0.4845520000000  0.4847090000000  0.4943780000000 1.0
C      1  0.4732250000000  0.4461550000000  0.5580070000000 1.0
C      1  0.5923920000000  0.5003870000000  0.5536730000000 1.0
C      1  0.5215650000000  0.5030010000000  0.5285690000000 1.0
C      1  0.4879840000000  0.4185610000000  0.4731650000000 1.0
C      1  0.4770860000000  0.4308300000000  0.4501000000000 1.0
C      1  0.5229450000000  0.5563100000000  0.4556030000000 1.0
C      1  0.5328330000000  0.4597890000000  0.5543850000000 1.0
C      1  0.4638210000000  0.4489140000000  0.5257420000000 1.0
C      1  0.6164600000000  0.5049830000000  0.5629670000000 1.0
C      1  0.5136420000000  0.5317660000000  0.4860760000000 1.0
C      1  0.4765130000000  0.4804500000000  0.5244700000000 1.0
C      1  0.5035500000000  0.5089860000000  0.5974370000000 1.0
C      1  0.4712800000000  0.5694390000000  0.4700420000000 1.0
C      1  0.5618210000000  0.4767460000000  0.5223200000000 1.0
C      1  0.4116200000000  0.4923020000000  0.4774150000000 1.0
C      1  0.4977950000000  0.4680430000000  0.4767300000000 1.0
C      1  0.4439340000000  0.5567780000000  0.4674800000000 1.0
C      1  0.4990210000000  0.4423190000000  0.5430460000000 1.0
C      1  0.5224820000000  0.5782050000000  0.5309800000000 1.0
C      1  0.5427800000000  0.5931710000000  0.5348940000000 1.0
C      1  0.4458020000000  0.4399970000000  0.4839470000000 1.0
C      1  0.5272580000000  0.4575200000000  0.4844330000000 1.0
C      1  0.4702790000000  0.5129860000000  0.5321290000000 1.0
C      1  0.5295230000000  0.4560420000000  0.4344910000000 1.0
C      1  0.5128400000000  0.5740180000000  0.4818420000000 1.0
C      1  0.5157260000000  0.4205050000000  0.4749230000000 1.0
C      1  0.4611730000000  0.5356640000000  0.5721930000000 1.0
C      1  0.4699920000000  0.5679600000000  0.5359690000000 1.0
C      1  0.4990510000000  0.5270000000000  0.5376670000000 1.0
C      1  0.4712960000000  0.4271550000000  0.5017310000000 1.0
C      1  0.4998750000000  0.5157870000000  0.4614620000000 1.0
C      1  0.5346570000000  0.5409620000000  0.4274060000000 1.0
C      1  0.5169540000000  0.5136150000000  0.4332110000000 1.0
C      1  0.4248380000000  0.5155990000000  0.4649860000000 1.0
C      1  0.5379830000000  0.5270960000000  0.4643500000000 1.0
C      1  0.5057870000000  0.4755940000000  0.5411220000000 1.0
C      1  0.4824550000000  0.4637350000000  0.4506820000000 1.0
C      1  0.4510430000000  0.4840000000000  0.5759890000000 1.0
C      1  0.5485130000000  0.4294670000000  0.5219770000000 1.0
C      1  0.5477400000000  0.5415710000000  0.5558340000000 1.0
C      1  0.4021100000000  0.4815090000000  0.5546380000000 1.0
C      1  0.5369800000000  0.4510760000000  0.4087390000000 1.0
C      1  0.4979010000000  0.5395520000000  0.4293870000000 1.0
C      1  0.4882780000000  0.4863270000000  0.4289680000000 1.0
C      1  0.4530920000000  0.4483350000000  0.4586670000000 1.0
C      1  0.5349780000000  0.4849230000000  0.5030480000000 1.0
C      1  0.5375940000000  0.4692460000000  0.5794460000000 1.0
C      1  0.5755770000000  0.4691290000000  0.4952050000000 1.0
C      1  0.4775230000000  0.5164310000000  0.4274600000000 1.0
C      1  0.4698650000000  0.5973070000000  0.4748120000000 1.0
C      1  0.5339130000000  0.5268850000000  0.5082900000000 1.0
C      1  0.5521350000000  0.4521080000000  0.5364350000000 1.0
C      1  0.5696330000000  0.4916270000000  0.4610670000000 1.0
C      1  0.5003060000000  0.5587000000000  0.5249130000000 1.0
C      1  0.4520160000000  0.5257900000000  0.4282160000000 1.0
C      1  0.5431440000000  0.5113660000000  0.5534810000000 1.0
END
