TITL C-2848496-4490-686 0.000111696833025659 125000 -504.241710424834 0 0 97 (C1) n - 1
REM
REM in /home/bkarasulu/work/CARBON/AIRSS/Generating-Clusters/AIREBO/with-SteepDescent/Only-C1/SD-CG-opt/Try1-1.4A-POS3A/HFTN-CG
REM
REM
REM
REM
REM
REM ./C.cell (11c1c37f851c82e70ff6c80c92926a4b)
REM
REM compiler GCC version 9.2.1 20190827 (Red Hat 9.2.1-1)
REM options -cpp -mtune=generic -march=x86-64 -g -O0 -fpre-include=/usr/include/finclude/math-vector-fortran.h
REM seed 888190874 -1362424626 1973665727 -1218015884 2115522949 1972112084 -1622125092 -1538691811 1756855476 538901424 302316677 569071779 1598136769 1906839916 -1802940692 1464440246 1463140915 1999618436 4640169 1755102093 1148168215 -1572129862 458954769 2010364863 629082744 -196747506 356795711 939859661 -98272081 1024578976 -2032083501 -1151176660 1885317255
REM
CELL 1.54180   50.00000   50.00000   50.00000   90.00000   90.00000   90.00000
LATT -1
SFAC C  
C      1  0.5607580000000  0.5493920000000  0.5437170000000 1.0
C      1  0.5477930000000  0.4828590000000  0.4799880000000 1.0
C      1  0.5118680000000  0.4397680000000  0.5410630000000 1.0
C      1  0.5079040000000  0.4942420000000  0.4853710000000 1.0
C      1  0.4276010000000  0.5162110000000  0.5111010000000 1.0
C      1  0.4849670000000  0.5293190000000  0.4205570000000 1.0
C      1  0.4850020000000  0.5572100000000  0.5007220000000 1.0
C      1  0.5574080000000  0.5072620000000  0.5625390000000 1.0
C      1  0.4625480000000  0.4906130000000  0.4838330000000 1.0
C      1  0.4736080000000  0.4291470000000  0.4753780000000 1.0
C      1  0.4564360000000  0.4989670000000  0.5163740000000 1.0
C      1  0.4301280000000  0.4934360000000  0.4611440000000 1.0
C      1  0.5815100000000  0.5099470000000  0.5160770000000 1.0
C      1  0.4901490000000  0.5096610000000  0.5349880000000 1.0
C      1  0.4778420000000  0.5870500000000  0.5262520000000 1.0
C      1  0.4711330000000  0.5011540000000  0.4184780000000 1.0
C      1  0.4430580000000  0.4969610000000  0.4349060000000 1.0
C      1  0.4828060000000  0.4520040000000  0.4254940000000 1.0
C      1  0.4513650000000  0.4419310000000  0.4576210000000 1.0
C      1  0.4063830000000  0.5077380000000  0.4809570000000 1.0
C      1  0.5019070000000  0.4784950000000  0.5418460000000 1.0
C      1  0.5282820000000  0.4798110000000  0.5076720000000 1.0
C      1  0.5524230000000  0.5453740000000  0.4736150000000 1.0
C      1  0.4601790000000  0.4380950000000  0.5556070000000 1.0
C      1  0.5117920000000  0.4567370000000  0.4438290000000 1.0
C      1  0.4982330000000  0.5720780000000  0.5492620000000 1.0
C      1  0.4693120000000  0.5416930000000  0.4669550000000 1.0
C      1  0.4654920000000  0.4860460000000  0.5647940000000 1.0
C      1  0.5019990000000  0.4322410000000  0.4648650000000 1.0
C      1  0.4914380000000  0.5235950000000  0.4804440000000 1.0
C      1  0.4140500000000  0.4901740000000  0.5426820000000 1.0
C      1  0.5789740000000  0.4639190000000  0.4500180000000 1.0
C      1  0.4420340000000  0.5543900000000  0.5359280000000 1.0
C      1  0.4895530000000  0.4910820000000  0.5776090000000 1.0
C      1  0.4771820000000  0.4362000000000  0.5084590000000 1.0
C      1  0.5371480000000  0.5341800000000  0.5634480000000 1.0
C      1  0.4209830000000  0.5381010000000  0.5271880000000 1.0
C      1  0.5124970000000  0.5273400000000  0.4255800000000 1.0
C      1  0.4993580000000  0.5328000000000  0.5767500000000 1.0
C      1  0.5402880000000  0.5324630000000  0.5040530000000 1.0
C      1  0.4847420000000  0.4859660000000  0.4691770000000 1.0
C      1  0.5896330000000  0.4780530000000  0.5216120000000 1.0
C      1  0.5624470000000  0.5144370000000  0.4417880000000 1.0
C      1  0.5176640000000  0.5062570000000  0.5659250000000 1.0
C      1  0.4776720000000  0.5251080000000  0.5094520000000 1.0
C      1  0.4805810000000  0.4294780000000  0.5400010000000 1.0
C      1  0.5059530000000  0.4542390000000  0.5103690000000 1.0
C      1  0.5186250000000  0.5594020000000  0.4582610000000 1.0
C      1  0.4587220000000  0.5117700000000  0.5478070000000 1.0
C      1  0.4583960000000  0.4424960000000  0.4315150000000 1.0
C      1  0.5301060000000  0.5635320000000  0.5477860000000 1.0
C      1  0.5819770000000  0.4953340000000  0.4396620000000 1.0
C      1  0.4712010000000  0.5473220000000  0.4349640000000 1.0
C      1  0.4561680000000  0.5673030000000  0.5128600000000 1.0
C      1  0.5105260000000  0.4000060000000  0.5023190000000 1.0
C      1  0.5182010000000  0.5916830000000  0.4625860000000 1.0
C      1  0.5220150000000  0.5302550000000  0.4754630000000 1.0
C      1  0.4836970000000  0.5509330000000  0.5641500000000 1.0
C      1  0.5764510000000  0.4921660000000  0.4894410000000 1.0
C      1  0.5540570000000  0.5187110000000  0.5306770000000 1.0
C      1  0.4598200000000  0.5424560000000  0.5536220000000 1.0
C      1  0.4926620000000  0.5729220000000  0.4749410000000 1.0
C      1  0.4801200000000  0.4746910000000  0.5188000000000 1.0
C      1  0.5562440000000  0.4376850000000  0.5166800000000 1.0
C      1  0.4164520000000  0.4807770000000  0.4962670000000 1.0
C      1  0.5592940000000  0.5664090000000  0.4949100000000 1.0
C      1  0.5574750000000  0.4669230000000  0.5194400000000 1.0
C      1  0.5331120000000  0.4331280000000  0.4511310000000 1.0
C      1  0.5410850000000  0.5704740000000  0.5163000000000 1.0
C      1  0.4695060000000  0.4921390000000  0.3917550000000 1.0
C      1  0.5472260000000  0.4317530000000  0.4904000000000 1.0
C      1  0.5679400000000  0.4841640000000  0.5452810000000 1.0
C      1  0.4352790000000  0.4733430000000  0.5236760000000 1.0
C      1  0.4119530000000  0.5393620000000  0.4825840000000 1.0
C      1  0.5134180000000  0.4618280000000  0.5654250000000 1.0
C      1  0.4438040000000  0.5156570000000  0.4824530000000 1.0
C      1  0.6011870000000  0.5296410000000  0.5152320000000 1.0
C      1  0.5430520000000  0.4292590000000  0.5401020000000 1.0
C      1  0.5551690000000  0.4523460000000  0.4668410000000 1.0
C      1  0.4439010000000  0.5493550000000  0.4869830000000 1.0
C      1  0.5099610000000  0.5834950000000  0.5197300000000 1.0
C      1  0.4354490000000  0.4626930000000  0.4746700000000 1.0
C      1  0.5174490000000  0.4281470000000  0.4918360000000 1.0
C      1  0.5942550000000  0.4857940000000  0.4675050000000 1.0
C      1  0.5396470000000  0.4814080000000  0.5733940000000 1.0
C      1  0.5369560000000  0.5040320000000  0.4597990000000 1.0
C      1  0.4512910000000  0.4646460000000  0.5525220000000 1.0
C      1  0.5141100000000  0.5503440000000  0.5129430000000 1.0
C      1  0.4459820000000  0.4487700000000  0.5034270000000 1.0
C      1  0.5403080000000  0.5393590000000  0.4413640000000 1.0
C      1  0.5436040000000  0.4489080000000  0.5635910000000 1.0
C      1  0.5242540000000  0.5024530000000  0.5327510000000 1.0
C      1  0.4521890000000  0.4151960000000  0.4989310000000 1.0
C      1  0.5175640000000  0.5009120000000  0.4363960000000 1.0
C      1  0.4695850000000  0.5732920000000  0.4529100000000 1.0
C      1  0.4906580000000  0.4826920000000  0.4378550000000 1.0
C      1  0.4258120000000  0.5094110000000  0.5545700000000 1.0
END
