TITL C-2847959-7740-413 -0.000315301966813432 125000 -474.685341506633 0 0 89 (C1) n - 1
REM
REM in /home/bkarasulu/work/CARBON/AIRSS/Generating-Clusters/AIREBO/with-SteepDescent/Only-C1/SD-CG-opt/Try1-1.4A-POS3A/HFTN-CG
REM
REM
REM
REM
REM
REM ./C.cell (11c1c37f851c82e70ff6c80c92926a4b)
REM
REM compiler GCC version 9.2.1 20190827 (Red Hat 9.2.1-1)
REM options -cpp -mtune=generic -march=x86-64 -g -O0 -fpre-include=/usr/include/finclude/math-vector-fortran.h
REM seed 1882929830 -1080578266 -418219677 -353525850 -65669504 -473531493 -323997041 -769393242 842084036 -703426542 -407259386 -436956635 446591613 -843553105 2145635031 -1241277207 1340299767 -2071555315 -1767115209 573983436 -800630391 -1394319145 -1251749227 -1646925362 -4904529 -98420145 39920785 -137932815 -682374499 -751537496 1521209284 -1931224243 1794944093
REM
CELL 1.54180   50.00000   50.00000   50.00000   90.00000   90.00000   90.00000
LATT -1
SFAC C  
C      1  0.5626760000000  0.4934840000000  0.5242310000000 1.0
C      1  0.4817950000000  0.5465770000000  0.4179330000000 1.0
C      1  0.4494420000000  0.4597070000000  0.5274900000000 1.0
C      1  0.4685500000000  0.4769870000000  0.4446790000000 1.0
C      1  0.5339070000000  0.4556090000000  0.4874880000000 1.0
C      1  0.5629800000000  0.5013080000000  0.4690900000000 1.0
C      1  0.5595890000000  0.4546150000000  0.4570770000000 1.0
C      1  0.4846750000000  0.4820620000000  0.5414830000000 1.0
C      1  0.5427900000000  0.4200190000000  0.5352040000000 1.0
C      1  0.5320880000000  0.4744950000000  0.4592130000000 1.0
C      1  0.4520790000000  0.5848640000000  0.5117750000000 1.0
C      1  0.5178220000000  0.4843620000000  0.4330160000000 1.0
C      1  0.5241990000000  0.4516670000000  0.5488380000000 1.0
C      1  0.4894010000000  0.5458000000000  0.4841550000000 1.0
C      1  0.5514460000000  0.4316210000000  0.4979580000000 1.0
C      1  0.5354470000000  0.5563350000000  0.5281360000000 1.0
C      1  0.4417100000000  0.4832510000000  0.5387760000000 1.0
C      1  0.4612180000000  0.4779570000000  0.4770710000000 1.0
C      1  0.5272590000000  0.5418730000000  0.5545840000000 1.0
C      1  0.5246930000000  0.4842400000000  0.5763550000000 1.0
C      1  0.5740880000000  0.4714960000000  0.5042270000000 1.0
C      1  0.4343910000000  0.5513720000000  0.5402440000000 1.0
C      1  0.4424360000000  0.5067410000000  0.5162680000000 1.0
C      1  0.5092700000000  0.5089960000000  0.5251260000000 1.0
C      1  0.4594840000000  0.5009160000000  0.4296140000000 1.0
C      1  0.4531820000000  0.4387920000000  0.4758690000000 1.0
C      1  0.4444480000000  0.5217480000000  0.4428200000000 1.0
C      1  0.4273030000000  0.5114050000000  0.4658490000000 1.0
C      1  0.5612280000000  0.5449290000000  0.5138410000000 1.0
C      1  0.4641730000000  0.5495920000000  0.4442860000000 1.0
C      1  0.4793880000000  0.5261880000000  0.4615620000000 1.0
C      1  0.4494360000000  0.4359040000000  0.5483060000000 1.0
C      1  0.4624690000000  0.4274450000000  0.5033730000000 1.0
C      1  0.5157250000000  0.4762930000000  0.5330640000000 1.0
C      1  0.4799740000000  0.5367910000000  0.5122560000000 1.0
C      1  0.4760710000000  0.5021230000000  0.5777290000000 1.0
C      1  0.5250210000000  0.5615290000000  0.4902350000000 1.0
C      1  0.5592340000000  0.5176920000000  0.4443040000000 1.0
C      1  0.5373770000000  0.4353290000000  0.4534010000000 1.0
C      1  0.5438610000000  0.5049200000000  0.4255150000000 1.0
C      1  0.5610560000000  0.5448260000000  0.4859990000000 1.0
C      1  0.4774270000000  0.4470770000000  0.4576900000000 1.0
C      1  0.5127900000000  0.5379130000000  0.4196520000000 1.0
C      1  0.5105680000000  0.4277760000000  0.5316140000000 1.0
C      1  0.4871560000000  0.5327180000000  0.5809270000000 1.0
C      1  0.4808240000000  0.4712700000000  0.5842470000000 1.0
C      1  0.4489170000000  0.5002350000000  0.5640510000000 1.0
C      1  0.5074800000000  0.4669050000000  0.5928970000000 1.0
C      1  0.4959730000000  0.5790140000000  0.4868580000000 1.0
C      1  0.5053470000000  0.5672750000000  0.5173630000000 1.0
C      1  0.4732770000000  0.4597030000000  0.5031190000000 1.0
C      1  0.5151030000000  0.5062740000000  0.4071170000000 1.0
C      1  0.4262010000000  0.4916970000000  0.4904280000000 1.0
C      1  0.4548440000000  0.5698580000000  0.4890670000000 1.0
C      1  0.4325620000000  0.4622410000000  0.4822250000000 1.0
C      1  0.4832860000000  0.5568990000000  0.5371460000000 1.0
C      1  0.4998420000000  0.5470690000000  0.5615720000000 1.0
C      1  0.5260900000000  0.4175240000000  0.4964650000000 1.0
C      1  0.5055340000000  0.5558850000000  0.4559720000000 1.0
C      1  0.4756900000000  0.4556550000000  0.5570760000000 1.0
C      1  0.4786040000000  0.4305970000000  0.5333060000000 1.0
C      1  0.4713460000000  0.5749690000000  0.4636870000000 1.0
C      1  0.5355700000000  0.4802300000000  0.5103410000000 1.0
C      1  0.5684960000000  0.4463130000000  0.5149920000000 1.0
C      1  0.5625900000000  0.5442740000000  0.4556290000000 1.0
C      1  0.5568190000000  0.4498210000000  0.5439610000000 1.0
C      1  0.5218880000000  0.5300420000000  0.4514540000000 1.0
C      1  0.5202690000000  0.4446130000000  0.5790470000000 1.0
C      1  0.5223240000000  0.4932780000000  0.4840590000000 1.0
C      1  0.5084910000000  0.4427090000000  0.4689280000000 1.0
C      1  0.5236790000000  0.5319690000000  0.5069970000000 1.0
C      1  0.4405440000000  0.5224010000000  0.5464200000000 1.0
C      1  0.4970660000000  0.5095040000000  0.4426680000000 1.0
C      1  0.4763640000000  0.5045640000000  0.5173790000000 1.0
C      1  0.4949880000000  0.4850690000000  0.4966540000000 1.0
C      1  0.4999610000000  0.5834340000000  0.4473860000000 1.0
C      1  0.5498970000000  0.4818080000000  0.5535270000000 1.0
C      1  0.4555000000000  0.5702200000000  0.5361680000000 1.0
C      1  0.5693600000000  0.4757960000000  0.4767810000000 1.0
C      1  0.4824760000000  0.5134160000000  0.4122050000000 1.0
C      1  0.5364970000000  0.5132590000000  0.5538730000000 1.0
C      1  0.4951090000000  0.4613330000000  0.4320160000000 1.0
C      1  0.4515270000000  0.5392260000000  0.4947940000000 1.0
C      1  0.5373290000000  0.5220100000000  0.4774780000000 1.0
C      1  0.5004430000000  0.4393230000000  0.5012730000000 1.0
C      1  0.4257990000000  0.5374470000000  0.5129730000000 1.0
C      1  0.5718460000000  0.5226730000000  0.5254410000000 1.0
C      1  0.5039740000000  0.5043710000000  0.5584040000000 1.0
C      1  0.4589550000000  0.5104850000000  0.4782320000000 1.0
END
