TITL C-2848508-1660-611 0.000123400002397395 125000 -1042.42813701666 0 0 200 (C1) n - 1
REM
REM in /home/bkarasulu/work/CARBON/AIRSS/Generating-Clusters/AIREBO/with-SteepDescent/Only-C1/SD-CG-opt/Try1-1.4A-POS3A/HFTN-CG
REM
REM
REM
REM
REM
REM ./C.cell (11c1c37f851c82e70ff6c80c92926a4b)
REM
REM compiler GCC version 9.2.1 20190827 (Red Hat 9.2.1-1)
REM options -cpp -mtune=generic -march=x86-64 -g -O0 -fpre-include=/usr/include/finclude/math-vector-fortran.h
REM seed 452509414 1381681424 1428644063 341580698 545016908 478016033 -297968371 531989080 -348117891 -1044598 -425042572 1765080001 -1879364707 -612685416 2095534194 1297726790 -752066671 1776907898 678588273 -1731424281 -957799413 -502993217 -767664901 399305732 1494476975 1962484760 350810588 -1770356487 451011086 1947210963 904414694 -1608551470 265725398
REM
CELL 1.54180   50.00000   50.00000   50.00000   90.00000   90.00000   90.00000
LATT -1
SFAC C  
C      1  0.4503730000000  0.5410720000000  0.4766670000000 1.0
C      1  0.6008730000000  0.5227630000000  0.4730280000000 1.0
C      1  0.5315670000000  0.4956860000000  0.4723440000000 1.0
C      1  0.5539560000000  0.5750200000000  0.5496100000000 1.0
C      1  0.5894530000000  0.4582180000000  0.5162300000000 1.0
C      1  0.4617810000000  0.3963230000000  0.4921410000000 1.0
C      1  0.4429220000000  0.4910640000000  0.5820280000000 1.0
C      1  0.4152710000000  0.4834190000000  0.4429600000000 1.0
C      1  0.4213160000000  0.4877740000000  0.4097280000000 1.0
C      1  0.4294600000000  0.4241090000000  0.5583060000000 1.0
C      1  0.5730630000000  0.5768990000000  0.4934460000000 1.0
C      1  0.5045370000000  0.5413330000000  0.4255450000000 1.0
C      1  0.5008890000000  0.5781050000000  0.5626510000000 1.0
C      1  0.5152780000000  0.4416540000000  0.4664180000000 1.0
C      1  0.4514680000000  0.5077920000000  0.5277680000000 1.0
C      1  0.5900280000000  0.5443740000000  0.4490720000000 1.0
C      1  0.4541440000000  0.5000770000000  0.6114340000000 1.0
C      1  0.4491570000000  0.5542100000000  0.5263760000000 1.0
C      1  0.5695910000000  0.5965770000000  0.5203020000000 1.0
C      1  0.4622300000000  0.4495910000000  0.5517020000000 1.0
C      1  0.4849960000000  0.4351410000000  0.5172060000000 1.0
C      1  0.4185670000000  0.4781890000000  0.5556210000000 1.0
C      1  0.4753980000000  0.5693970000000  0.5417700000000 1.0
C      1  0.4819710000000  0.5341430000000  0.4828140000000 1.0
C      1  0.4667410000000  0.4810680000000  0.5637410000000 1.0
C      1  0.5692010000000  0.4714750000000  0.5636890000000 1.0
C      1  0.4370960000000  0.5390280000000  0.5047920000000 1.0
C      1  0.4182860000000  0.5731440000000  0.4920870000000 1.0
C      1  0.5016960000000  0.5136810000000  0.5113590000000 1.0
C      1  0.4619450000000  0.4226600000000  0.5352760000000 1.0
C      1  0.4305040000000  0.4137070000000  0.5259280000000 1.0
C      1  0.3834760000000  0.4778690000000  0.5176620000000 1.0
C      1  0.6220180000000  0.5082660000000  0.5033860000000 1.0
C      1  0.5279990000000  0.5503560000000  0.5095410000000 1.0
C      1  0.4984130000000  0.4524100000000  0.3954480000000 1.0
C      1  0.4230160000000  0.4262080000000  0.4542060000000 1.0
C      1  0.4386830000000  0.4854650000000  0.5108860000000 1.0
C      1  0.4884220000000  0.5061860000000  0.4341310000000 1.0
C      1  0.3967850000000  0.4875200000000  0.4928140000000 1.0
C      1  0.4187940000000  0.5791210000000  0.4582000000000 1.0
C      1  0.5440510000000  0.6114810000000  0.5378950000000 1.0
C      1  0.5234940000000  0.5607670000000  0.4451210000000 1.0
C      1  0.5003970000000  0.4238400000000  0.3974360000000 1.0
C      1  0.5341590000000  0.5314950000000  0.6061080000000 1.0
C      1  0.5591590000000  0.4842800000000  0.5936720000000 1.0
C      1  0.5566610000000  0.5195580000000  0.4934060000000 1.0
C      1  0.4735740000000  0.4634280000000  0.5101660000000 1.0
C      1  0.4831930000000  0.5069110000000  0.5950750000000 1.0
C      1  0.5251180000000  0.4275100000000  0.5758290000000 1.0
C      1  0.4449400000000  0.5375130000000  0.5536010000000 1.0
C      1  0.5223520000000  0.5741760000000  0.4137380000000 1.0
C      1  0.5003870000000  0.4711050000000  0.4746450000000 1.0
C      1  0.5048260000000  0.4800200000000  0.4431050000000 1.0
C      1  0.4202510000000  0.4026650000000  0.4709260000000 1.0
C      1  0.5307350000000  0.4993010000000  0.5568310000000 1.0
C      1  0.5640700000000  0.5330270000000  0.3996130000000 1.0
C      1  0.5347760000000  0.4407820000000  0.4932720000000 1.0
C      1  0.5836870000000  0.4692140000000  0.4370170000000 1.0
C      1  0.4866960000000  0.5244550000000  0.3940690000000 1.0
C      1  0.5887890000000  0.4702910000000  0.4704700000000 1.0
C      1  0.5253340000000  0.5468700000000  0.4761340000000 1.0
C      1  0.5584060000000  0.4594970000000  0.5028240000000 1.0
C      1  0.4051080000000  0.4464760000000  0.4601470000000 1.0
C      1  0.5796440000000  0.5318180000000  0.5784100000000 1.0
C      1  0.6034240000000  0.5367250000000  0.5039500000000 1.0
C      1  0.5706960000000  0.5627660000000  0.4418910000000 1.0
C      1  0.5755670000000  0.4884420000000  0.5241780000000 1.0
C      1  0.5499470000000  0.5588720000000  0.4152150000000 1.0
C      1  0.6087200000000  0.4637640000000  0.4921930000000 1.0
C      1  0.3963390000000  0.5151890000000  0.4913710000000 1.0
C      1  0.5172620000000  0.4072260000000  0.4214160000000 1.0
C      1  0.4591390000000  0.4358090000000  0.4690850000000 1.0
C      1  0.5124380000000  0.5824200000000  0.4916690000000 1.0
C      1  0.4454610000000  0.4709170000000  0.4365260000000 1.0
C      1  0.5750940000000  0.5481310000000  0.4932300000000 1.0
C      1  0.4181280000000  0.4721990000000  0.4747210000000 1.0
C      1  0.4927050000000  0.4514850000000  0.5629910000000 1.0
C      1  0.4328750000000  0.4687660000000  0.3949730000000 1.0
C      1  0.4350620000000  0.4557020000000  0.5698900000000 1.0
C      1  0.5447020000000  0.4538610000000  0.4544980000000 1.0
C      1  0.5287380000000  0.5039130000000  0.4394610000000 1.0
C      1  0.4590150000000  0.4508740000000  0.5935980000000 1.0
C      1  0.5507540000000  0.5902480000000  0.4397610000000 1.0
C      1  0.5191710000000  0.5999310000000  0.4316980000000 1.0
C      1  0.4804740000000  0.4057440000000  0.4182260000000 1.0
C      1  0.5233900000000  0.4784080000000  0.4997290000000 1.0
C      1  0.5829810000000  0.5705710000000  0.5376810000000 1.0
C      1  0.5851860000000  0.5415330000000  0.5312240000000 1.0
C      1  0.5502890000000  0.5758810000000  0.5823970000000 1.0
C      1  0.5947630000000  0.4975120000000  0.5475900000000 1.0
C      1  0.4903280000000  0.5675860000000  0.5917460000000 1.0
C      1  0.4693270000000  0.5093840000000  0.5014840000000 1.0
C      1  0.5578330000000  0.5082540000000  0.5724570000000 1.0
C      1  0.4783860000000  0.4322650000000  0.5837410000000 1.0
C      1  0.4739110000000  0.4007670000000  0.5550500000000 1.0
C      1  0.5795090000000  0.4264140000000  0.5097960000000 1.0
C      1  0.4964760000000  0.5948580000000  0.4476630000000 1.0
C      1  0.5875580000000  0.5178800000000  0.4359280000000 1.0
C      1  0.5204190000000  0.4718490000000  0.5889530000000 1.0
C      1  0.5734390000000  0.4411100000000  0.4634820000000 1.0
C      1  0.5579900000000  0.4458270000000  0.4022440000000 1.0
C      1  0.4659620000000  0.4611350000000  0.3967860000000 1.0
C      1  0.5293030000000  0.5933100000000  0.5627400000000 1.0
C      1  0.4194830000000  0.5080500000000  0.5393060000000 1.0
C      1  0.5069200000000  0.4708760000000  0.5437350000000 1.0
C      1  0.6015790000000  0.4750650000000  0.5643910000000 1.0
C      1  0.5288910000000  0.5329230000000  0.5609350000000 1.0
C      1  0.4713460000000  0.4098470000000  0.4491180000000 1.0
C      1  0.5148000000000  0.4514560000000  0.5186310000000 1.0
C      1  0.5628640000000  0.5889030000000  0.4711110000000 1.0
C      1  0.4702240000000  0.4865960000000  0.4781210000000 1.0
C      1  0.4244260000000  0.4482650000000  0.5074350000000 1.0
C      1  0.5005210000000  0.4110350000000  0.5717050000000 1.0
C      1  0.5660370000000  0.5018800000000  0.4531930000000 1.0
C      1  0.5768780000000  0.5264820000000  0.3787950000000 1.0
C      1  0.6043000000000  0.4936780000000  0.4512580000000 1.0
C      1  0.5231060000000  0.6051160000000  0.5140230000000 1.0
C      1  0.5123760000000  0.5127410000000  0.4109060000000 1.0
C      1  0.5057910000000  0.4131920000000  0.4824490000000 1.0
C      1  0.5416500000000  0.4095290000000  0.4657750000000 1.0
C      1  0.4977580000000  0.5214050000000  0.5535660000000 1.0
C      1  0.5118810000000  0.5484660000000  0.6107180000000 1.0
C      1  0.5487220000000  0.4606140000000  0.6147740000000 1.0
C      1  0.4101700000000  0.5621640000000  0.5232250000000 1.0
C      1  0.4513040000000  0.4956030000000  0.4552500000000 1.0
C      1  0.4827950000000  0.5695740000000  0.4442580000000 1.0
C      1  0.5348900000000  0.4011050000000  0.4952260000000 1.0
C      1  0.4148610000000  0.4712230000000  0.5245280000000 1.0
C      1  0.5131140000000  0.4665450000000  0.4156370000000 1.0
C      1  0.5505250000000  0.5454880000000  0.5839720000000 1.0
C      1  0.5497380000000  0.4219650000000  0.5169140000000 1.0
C      1  0.3890860000000  0.4936760000000  0.5444710000000 1.0
C      1  0.4459240000000  0.5921060000000  0.4944850000000 1.0
C      1  0.5020790000000  0.4339470000000  0.4359790000000 1.0
C      1  0.4449610000000  0.5348120000000  0.4223520000000 1.0
C      1  0.5719480000000  0.4375250000000  0.4302700000000 1.0
C      1  0.4086460000000  0.5291920000000  0.5150820000000 1.0
C      1  0.5839870000000  0.4201690000000  0.4829710000000 1.0
C      1  0.5417590000000  0.4862010000000  0.5274190000000 1.0
C      1  0.4504170000000  0.5756970000000  0.5639580000000 1.0
C      1  0.4684740000000  0.4672720000000  0.3661030000000 1.0
C      1  0.5952820000000  0.5241340000000  0.5547010000000 1.0
C      1  0.4481130000000  0.4625610000000  0.4876120000000 1.0
C      1  0.4627700000000  0.5158900000000  0.4050490000000 1.0
C      1  0.5000540000000  0.4916070000000  0.5698050000000 1.0
C      1  0.5010930000000  0.4848300000000  0.6137320000000 1.0
C      1  0.4504280000000  0.6023340000000  0.4654700000000 1.0
C      1  0.5448060000000  0.4531530000000  0.5743880000000 1.0
C      1  0.5037670000000  0.3955060000000  0.5415920000000 1.0
C      1  0.4659660000000  0.4875110000000  0.4182500000000 1.0
C      1  0.3999950000000  0.4281380000000  0.5048940000000 1.0
C      1  0.5308320000000  0.4335300000000  0.5426980000000 1.0
C      1  0.5553030000000  0.4563510000000  0.5365510000000 1.0
C      1  0.4311420000000  0.5224060000000  0.6019480000000 1.0
C      1  0.4013600000000  0.5274100000000  0.4675810000000 1.0
C      1  0.5571580000000  0.5260550000000  0.5433270000000 1.0
C      1  0.4902390000000  0.5610800000000  0.4996120000000 1.0
C      1  0.5344900000000  0.5183920000000  0.5191590000000 1.0
C      1  0.5118720000000  0.5181610000000  0.4802520000000 1.0
C      1  0.4894380000000  0.5411950000000  0.5271860000000 1.0
C      1  0.4906160000000  0.5645610000000  0.4061550000000 1.0
C      1  0.4437720000000  0.5855960000000  0.4420600000000 1.0
C      1  0.4022230000000  0.5137210000000  0.4445110000000 1.0
C      1  0.4184250000000  0.5157960000000  0.4198400000000 1.0
C      1  0.5245170000000  0.4431220000000  0.6067030000000 1.0
C      1  0.4936640000000  0.6144820000000  0.5054480000000 1.0
C      1  0.4258990000000  0.5163390000000  0.5716500000000 1.0
C      1  0.4707470000000  0.6165710000000  0.5309240000000 1.0
C      1  0.5514150000000  0.4790040000000  0.4348280000000 1.0
C      1  0.4815730000000  0.3995020000000  0.4738070000000 1.0
C      1  0.4199760000000  0.5491230000000  0.4701270000000 1.0
C      1  0.4451080000000  0.5225330000000  0.4521690000000 1.0
C      1  0.4127010000000  0.4023120000000  0.4990610000000 1.0
C      1  0.4740920000000  0.5877600000000  0.5131720000000 1.0
C      1  0.5311070000000  0.5000880000000  0.6046300000000 1.0
C      1  0.5911350000000  0.4996830000000  0.4974030000000 1.0
C      1  0.4849920000000  0.5361710000000  0.4502610000000 1.0
C      1  0.5490290000000  0.5299870000000  0.4619580000000 1.0
C      1  0.4460250000000  0.4239680000000  0.4974670000000 1.0
C      1  0.5468920000000  0.4149440000000  0.4372980000000 1.0
C      1  0.4955370000000  0.6039890000000  0.4734810000000 1.0
C      1  0.4666620000000  0.5127470000000  0.5555900000000 1.0
C      1  0.4458190000000  0.4033470000000  0.5697510000000 1.0
C      1  0.4699540000000  0.4721040000000  0.6087780000000 1.0
C      1  0.5670360000000  0.4327690000000  0.5581020000000 1.0
C      1  0.4616330000000  0.5804400000000  0.5885430000000 1.0
C      1  0.4361810000000  0.5846370000000  0.5254080000000 1.0
C      1  0.5625270000000  0.4873750000000  0.4837460000000 1.0
C      1  0.4483130000000  0.4410190000000  0.4400870000000 1.0
C      1  0.4230100000000  0.5634790000000  0.5547590000000 1.0
C      1  0.5142830000000  0.5605300000000  0.5389560000000 1.0
C      1  0.4871670000000  0.5355430000000  0.5987890000000 1.0
C      1  0.5418320000000  0.5770490000000  0.5182250000000 1.0
C      1  0.5306790000000  0.5850740000000  0.4667870000000 1.0
C      1  0.4715960000000  0.4381350000000  0.4212040000000 1.0
C      1  0.4597110000000  0.5638180000000  0.4213670000000 1.0
C      1  0.4906510000000  0.4831600000000  0.5215880000000 1.0
C      1  0.5091120000000  0.4112060000000  0.5158020000000 1.0
C      1  0.5492460000000  0.5291880000000  0.4296180000000 1.0
C      1  0.5328700000000  0.4434030000000  0.4250390000000 1.0
END
