TITL C-2848509-3138-192 -0.0011835797103102 125000 -233.23744960628 0 0 43 (C1) n - 1
REM
REM in /home/bkarasulu/work/CARBON/AIRSS/Generating-Clusters/AIREBO/with-SteepDescent/Only-C1/SD-CG-opt/Try1-1.4A-POS3A/HFTN-CG
REM
REM
REM
REM
REM
REM ./C.cell (11c1c37f851c82e70ff6c80c92926a4b)
REM
REM compiler GCC version 9.2.1 20190827 (Red Hat 9.2.1-1)
REM options -cpp -mtune=generic -march=x86-64 -g -O0 -fpre-include=/usr/include/finclude/math-vector-fortran.h
REM seed -555426931 1115776424 -289366067 874889159 471007443 1505586832 701170570 1959461279 -1655728714 199308109 -852167063 -1181630330 -471487820 -1027870357 1256152935 1942096952 -1004437501 -1716707482 -559648736 134078615 -1483984285 -782718098 1584141146 -1451946877 1071921420 -912879104 -2001926201 -1985041784 -716925601 998812184 -406465972 1032827102 1281343513
REM
CELL 1.54180   50.00000   50.00000   50.00000   90.00000   90.00000   90.00000
LATT -1
SFAC C  
C      1  0.4976600000000  0.4831030000000  0.5664150000000 1.0
C      1  0.4885130000000  0.5328330000000  0.4509180000000 1.0
C      1  0.4647980000000  0.4658640000000  0.4701290000000 1.0
C      1  0.4918880000000  0.4838240000000  0.5030630000000 1.0
C      1  0.5142200000000  0.5258020000000  0.4592570000000 1.0
C      1  0.4152090000000  0.4539120000000  0.4930400000000 1.0
C      1  0.5330020000000  0.4870450000000  0.5475080000000 1.0
C      1  0.4986310000000  0.4563640000000  0.4890390000000 1.0
C      1  0.5455660000000  0.4877140000000  0.5091060000000 1.0
C      1  0.5179830000000  0.5526440000000  0.5356730000000 1.0
C      1  0.5311490000000  0.4408800000000  0.4274980000000 1.0
C      1  0.5063850000000  0.4705990000000  0.5896890000000 1.0
C      1  0.4664680000000  0.5641690000000  0.5297310000000 1.0
C      1  0.4624640000000  0.5189810000000  0.5719340000000 1.0
C      1  0.4903010000000  0.5144840000000  0.5724810000000 1.0
C      1  0.5230880000000  0.4609340000000  0.4443700000000 1.0
C      1  0.5397170000000  0.4832730000000  0.4507810000000 1.0
C      1  0.4377090000000  0.4645850000000  0.4885140000000 1.0
C      1  0.4926460000000  0.5720130000000  0.5234330000000 1.0
C      1  0.4724510000000  0.4729590000000  0.4394580000000 1.0
C      1  0.5180500000000  0.5011690000000  0.5069130000000 1.0
C      1  0.5491190000000  0.4610450000000  0.4954790000000 1.0
C      1  0.5205610000000  0.5272170000000  0.4884570000000 1.0
C      1  0.4769030000000  0.5453920000000  0.4961510000000 1.0
C      1  0.4713690000000  0.5006240000000  0.5243530000000 1.0
C      1  0.4968830000000  0.4488470000000  0.5216930000000 1.0
C      1  0.5477280000000  0.5499890000000  0.5200880000000 1.0
C      1  0.5071200000000  0.5488480000000  0.5044130000000 1.0
C      1  0.5584310000000  0.4814330000000  0.4722720000000 1.0
C      1  0.4694160000000  0.4943580000000  0.4245690000000 1.0
C      1  0.4612700000000  0.5328700000000  0.5204130000000 1.0
C      1  0.5639450000000  0.5074080000000  0.4938650000000 1.0
C      1  0.5072190000000  0.5307050000000  0.5524900000000 1.0
C      1  0.4928300000000  0.4621680000000  0.5420100000000 1.0
C      1  0.5310150000000  0.5092400000000  0.4443520000000 1.0
C      1  0.5274280000000  0.4433400000000  0.4966890000000 1.0
C      1  0.4596770000000  0.4894260000000  0.4937210000000 1.0
C      1  0.4729060000000  0.5469730000000  0.4696350000000 1.0
C      1  0.4775080000000  0.5200640000000  0.4285720000000 1.0
C      1  0.4964200000000  0.4592120000000  0.4579860000000 1.0
C      1  0.5033550000000  0.5004130000000  0.5375690000000 1.0
C      1  0.4511300000000  0.5148120000000  0.5477130000000 1.0
C      1  0.5498660000000  0.5324640000000  0.4985630000000 1.0
END
