TITL C-2847947-6848-39 41.5579801209152 125000 -1089.76699862435 0 0 200 (C1) n - 1
REM
REM in /home/bkarasulu/work/CARBON/AIRSS/Generating-Clusters/AIREBO/with-SteepDescent/Only-C1/SD-CG-opt/Try1-1.4A-POS3A/HFTN-CG
REM
REM
REM
REM
REM
REM ./C.cell (11c1c37f851c82e70ff6c80c92926a4b)
REM
REM compiler GCC version 9.2.1 20190827 (Red Hat 9.2.1-1)
REM options -cpp -mtune=generic -march=x86-64 -g -O0 -fpre-include=/usr/include/finclude/math-vector-fortran.h
REM seed -320095896 -1131150908 716819122 -1240418714 -475237777 2089920704 1977065912 905739253 -1721450628 -1105399535 -46413441 1096532846 -188692652 1237594383 -1147140499 -1563528454 1660632085 181796454 1373486515 -1571295933 -12168683 -129280309 -2046773464 -1130854753 -1807785048 -1664671515 1544338472 -398143515 402491788 195804831 -613777999 32652502 -1528169789
REM
CELL 1.54180   50.00000   50.00000   50.00000   90.00000   90.00000   90.00000
LATT -1
SFAC C  
C      1  0.5421750000000  0.5995340000000  0.4740160000000 1.0
C      1  0.4839310000000  0.5295540000000  0.5581520000000 1.0
C      1  0.5757420000000  0.5323470000000  0.4156900000000 1.0
C      1  0.4703620000000  0.4340590000000  0.5808980000000 1.0
C      1  0.4993450000000  0.4852970000000  0.6059280000000 1.0
C      1  0.5193820000000  0.5758400000000  0.4696420000000 1.0
C      1  0.4430690000000  0.5515340000000  0.4490790000000 1.0
C      1  0.5238980000000  0.3884480000000  0.5352200000000 1.0
C      1  0.4551440000000  0.5536240000000  0.4981830000000 1.0
C      1  0.5140650000000  0.6242260000000  0.5178080000000 1.0
C      1  0.4735750000000  0.4599460000000  0.4635320000000 1.0
C      1  0.5597980000000  0.4883360000000  0.5132960000000 1.0
C      1  0.5691090000000  0.4923440000000  0.5890010000000 1.0
C      1  0.5589950000000  0.5885590000000  0.5007750000000 1.0
C      1  0.4213640000000  0.4220790000000  0.4610090000000 1.0
C      1  0.5504920000000  0.5368410000000  0.5098760000000 1.0
C      1  0.4788960000000  0.5835030000000  0.4677160000000 1.0
C      1  0.4072510000000  0.5133750000000  0.4796160000000 1.0
C      1  0.4886720000000  0.6038270000000  0.5110720000000 1.0
C      1  0.5321650000000  0.3720080000000  0.5528940000000 1.0
C      1  0.4462730000000  0.5647270000000  0.4188900000000 1.0
C      1  0.4247580000000  0.5146050000000  0.5890260000000 1.0
C      1  0.5854910000000  0.5293020000000  0.5714060000000 1.0
C      1  0.4669030000000  0.4098530000000  0.5572690000000 1.0
C      1  0.5347570000000  0.3898540000000  0.4495230000000 1.0
C      1  0.4675220000000  0.6034780000000  0.4357090000000 1.0
C      1  0.4104900000000  0.4885400000000  0.4158780000000 1.0
C      1  0.5153850000000  0.5863950000000  0.5791570000000 1.0
C      1  0.4257670000000  0.5772080000000  0.5470580000000 1.0
C      1  0.5047020000000  0.3835410000000  0.4880690000000 1.0
C      1  0.4950120000000  0.5607080000000  0.4781390000000 1.0
C      1  0.4504930000000  0.4543450000000  0.5441950000000 1.0
C      1  0.4143750000000  0.5697280000000  0.5768300000000 1.0
C      1  0.4342130000000  0.4152310000000  0.5022940000000 1.0
C      1  0.6166940000000  0.4966460000000  0.5090550000000 1.0
C      1  0.5156030000000  0.5845000000000  0.4309370000000 1.0
C      1  0.4862050000000  0.5868730000000  0.4174430000000 1.0
C      1  0.4231610000000  0.5466250000000  0.5882730000000 1.0
C      1  0.4157560000000  0.4683950000000  0.5030840000000 1.0
C      1  0.5746710000000  0.5201700000000  0.4825700000000 1.0
C      1  0.5089060000000  0.6044790000000  0.4836510000000 1.0
C      1  0.5379670000000  0.6106420000000  0.5163460000000 1.0
C      1  0.4439380000000  0.5057580000000  0.5486600000000 1.0
C      1  0.5772170000000  0.4134910000000  0.4899540000000 1.0
C      1  0.5134430000000  0.5610170000000  0.5059520000000 1.0
C      1  0.4993060000000  0.4165440000000  0.5489550000000 1.0
C      1  0.4015680000000  0.4212140000000  0.4799780000000 1.0
C      1  0.4382850000000  0.4279290000000  0.5714250000000 1.0
C      1  0.4759820000000  0.5386810000000  0.4805370000000 1.0
C      1  0.4552650000000  0.5086740000000  0.5995430000000 1.0
C      1  0.5465190000000  0.5062140000000  0.4372790000000 1.0
C      1  0.4576520000000  0.6065670000000  0.5029330000000 1.0
C      1  0.4892990000000  0.4582840000000  0.5364430000000 1.0
C      1  0.6098450000000  0.4118080000000  0.5302420000000 1.0
C      1  0.5095760000000  0.4948610000000  0.3937890000000 1.0
C      1  0.6075610000000  0.4597190000000  0.4705480000000 1.0
C      1  0.4877820000000  0.5384700000000  0.4089560000000 1.0
C      1  0.5740390000000  0.5720590000000  0.5443160000000 1.0
C      1  0.4695440000000  0.4803020000000  0.6035290000000 1.0
C      1  0.5867150000000  0.5048510000000  0.4132190000000 1.0
C      1  0.3919940000000  0.4810040000000  0.5217920000000 1.0
C      1  0.5795460000000  0.5060300000000  0.4455630000000 1.0
C      1  0.4449100000000  0.5015580000000  0.4747540000000 1.0
C      1  0.4463900000000  0.4779970000000  0.5068430000000 1.0
C      1  0.5394620000000  0.4408950000000  0.5632250000000 1.0
C      1  0.6063380000000  0.5055860000000  0.4630270000000 1.0
C      1  0.4810050000000  0.4860260000000  0.4807450000000 1.0
C      1  0.6002530000000  0.5427010000000  0.5263870000000 1.0
C      1  0.5018120000000  0.5193540000000  0.6044830000000 1.0
C      1  0.4820030000000  0.5090580000000  0.5788360000000 1.0
C      1  0.4214390000000  0.4453130000000  0.5537990000000 1.0
C      1  0.4748620000000  0.5694780000000  0.5665090000000 1.0
C      1  0.3925250000000  0.5053330000000  0.5397530000000 1.0
C      1  0.4648960000000  0.4805700000000  0.4190620000000 1.0
C      1  0.4640730000000  0.5063660000000  0.5006140000000 1.0
C      1  0.4153530000000  0.5258190000000  0.5060680000000 1.0
C      1  0.5079310000000  0.5399520000000  0.5409540000000 1.0
C      1  0.5855140000000  0.5479420000000  0.4357260000000 1.0
C      1  0.6158340000000  0.5307910000000  0.4710710000000 1.0
C      1  0.4570100000000  0.5323430000000  0.5397160000000 1.0
C      1  0.5300570000000  0.5270840000000  0.6089990000000 1.0
C      1  0.4865280000000  0.4266120000000  0.5043010000000 1.0
C      1  0.4719670000000  0.5091590000000  0.4020630000000 1.0
C      1  0.4971900000000  0.3974650000000  0.5181960000000 1.0
C      1  0.4200680000000  0.4411450000000  0.4351950000000 1.0
C      1  0.5591140000000  0.4390900000000  0.4334850000000 1.0
C      1  0.5474490000000  0.5636490000000  0.5612260000000 1.0
C      1  0.5102290000000  0.4860720000000  0.5176260000000 1.0
C      1  0.5471170000000  0.5849220000000  0.4436940000000 1.0
C      1  0.5160640000000  0.4631050000000  0.4943180000000 1.0
C      1  0.6031010000000  0.4027180000000  0.5055740000000 1.0
C      1  0.4082210000000  0.5582040000000  0.4837430000000 1.0
C      1  0.5754270000000  0.5465320000000  0.4649640000000 1.0
C      1  0.4472030000000  0.5569450000000  0.5580530000000 1.0
C      1  0.4391390000000  0.5356180000000  0.5144700000000 1.0
C      1  0.4831890000000  0.5281730000000  0.5183870000000 1.0
C      1  0.5507570000000  0.3985840000000  0.4937190000000 1.0
C      1  0.4608970000000  0.4329790000000  0.5255430000000 1.0
C      1  0.4400950000000  0.5008260000000  0.4246000000000 1.0
C      1  0.4809250000000  0.5619550000000  0.5151820000000 1.0
C      1  0.4210420000000  0.4824980000000  0.4758740000000 1.0
C      1  0.4718490000000  0.5647210000000  0.4084270000000 1.0
C      1  0.4832880000000  0.4604390000000  0.5030200000000 1.0
C      1  0.5600650000000  0.4608450000000  0.4596070000000 1.0
C      1  0.4685330000000  0.4230610000000  0.4294300000000 1.0
C      1  0.5782480000000  0.5555610000000  0.5724970000000 1.0
C      1  0.5523010000000  0.4694220000000  0.5877410000000 1.0
C      1  0.4007690000000  0.5645060000000  0.4390260000000 1.0
C      1  0.5743280000000  0.5149140000000  0.5144110000000 1.0
C      1  0.4623980000000  0.4663230000000  0.5737070000000 1.0
C      1  0.5333280000000  0.5555230000000  0.4324800000000 1.0
C      1  0.5914920000000  0.4652490000000  0.4474000000000 1.0
C      1  0.4967750000000  0.4829130000000  0.4190500000000 1.0
C      1  0.4689730000000  0.3983240000000  0.4527520000000 1.0
C      1  0.6081210000000  0.4363480000000  0.5412450000000 1.0
C      1  0.5661360000000  0.4532730000000  0.5655440000000 1.0
C      1  0.4470100000000  0.5846150000000  0.4559570000000 1.0
C      1  0.4876900000000  0.5827800000000  0.5379130000000 1.0
C      1  0.5341580000000  0.4120940000000  0.5158480000000 1.0
C      1  0.5861440000000  0.4756320000000  0.4204740000000 1.0
C      1  0.4528530000000  0.4528370000000  0.4885660000000 1.0
C      1  0.5126210000000  0.4356220000000  0.5241560000000 1.0
C      1  0.5336220000000  0.5238090000000  0.5342330000000 1.0
C      1  0.4356860000000  0.5740580000000  0.4862430000000 1.0
C      1  0.4344520000000  0.4596790000000  0.4590100000000 1.0
C      1  0.4220720000000  0.5808130000000  0.4318220000000 1.0
C      1  0.5180220000000  0.4624420000000  0.5528660000000 1.0
C      1  0.5338200000000  0.4346050000000  0.4903300000000 1.0
C      1  0.5263720000000  0.4204580000000  0.4637400000000 1.0
C      1  0.5682420000000  0.4583860000000  0.5163720000000 1.0
C      1  0.5181040000000  0.4923050000000  0.5784480000000 1.0
C      1  0.5179280000000  0.5715430000000  0.5486770000000 1.0
C      1  0.4845190000000  0.5467380000000  0.5941260000000 1.0
C      1  0.5366050000000  0.4794420000000  0.4188070000000 1.0
C      1  0.5651200000000  0.4440310000000  0.4887330000000 1.0
C      1  0.4396210000000  0.4262710000000  0.4158650000000 1.0
C      1  0.4507390000000  0.4160610000000  0.4725170000000 1.0
C      1  0.5017550000000  0.5200540000000  0.4910570000000 1.0
C      1  0.4088530000000  0.4363980000000  0.5065740000000 1.0
C      1  0.5026360000000  0.4352640000000  0.5777100000000 1.0
C      1  0.5969630000000  0.5527790000000  0.4884030000000 1.0
C      1  0.3925500000000  0.5302220000000  0.5249610000000 1.0
C      1  0.5466910000000  0.5356700000000  0.4090090000000 1.0
C      1  0.5499380000000  0.5609810000000  0.4682380000000 1.0
C      1  0.4579650000000  0.4834150000000  0.5350330000000 1.0
C      1  0.5746440000000  0.5607750000000  0.5127840000000 1.0
C      1  0.4922570000000  0.5774960000000  0.5913720000000 1.0
C      1  0.4907030000000  0.4809430000000  0.5617790000000 1.0
C      1  0.4589120000000  0.5055570000000  0.4494740000000 1.0
C      1  0.5632040000000  0.4924880000000  0.4702890000000 1.0
C      1  0.6174900000000  0.5302410000000  0.5035170000000 1.0
C      1  0.5375150000000  0.4585550000000  0.5274950000000 1.0
C      1  0.4886350000000  0.4935570000000  0.4484590000000 1.0
C      1  0.4959130000000  0.4317940000000  0.4158080000000 1.0
C      1  0.5285330000000  0.5398120000000  0.4840580000000 1.0
C      1  0.5915470000000  0.4898300000000  0.5708800000000 1.0
C      1  0.3933610000000  0.5588430000000  0.5086870000000 1.0
C      1  0.4348140000000  0.5894160000000  0.5166380000000 1.0
C      1  0.4142630000000  0.5030800000000  0.5594410000000 1.0
C      1  0.5119920000000  0.4562850000000  0.4229670000000 1.0
C      1  0.4850120000000  0.3819980000000  0.4674550000000 1.0
C      1  0.4554830000000  0.5399820000000  0.5863450000000 1.0
C      1  0.3647780000000  0.4823520000000  0.4770640000000 1.0
C      1  0.5075260000000  0.4423090000000  0.4536390000000 1.0
C      1  0.5157930000000  0.5000290000000  0.4674250000000 1.0
C      1  0.4037420000000  0.4628110000000  0.4194190000000 1.0
C      1  0.5480520000000  0.4163090000000  0.4405150000000 1.0
C      1  0.3851070000000  0.4909390000000  0.4909690000000 1.0
C      1  0.4669700000000  0.5337110000000  0.4532150000000 1.0
C      1  0.5902090000000  0.5192410000000  0.5433190000000 1.0
C      1  0.4976240000000  0.6040220000000  0.4515200000000 1.0
C      1  0.4815950000000  0.4304200000000  0.4722220000000 1.0
C      1  0.4588270000000  0.4550670000000  0.4357000000000 1.0
C      1  0.6010920000000  0.4887850000000  0.5382350000000 1.0
C      1  0.4469120000000  0.4053650000000  0.5300930000000 1.0
C      1  0.5254320000000  0.5286820000000  0.4518390000000 1.0
C      1  0.5353140000000  0.5073740000000  0.3994540000000 1.0
C      1  0.5314690000000  0.5147600000000  0.5655730000000 1.0
C      1  0.6028980000000  0.4338000000000  0.4807000000000 1.0
C      1  0.5322980000000  0.4210070000000  0.5833900000000 1.0
C      1  0.5575360000000  0.5153640000000  0.5973120000000 1.0
C      1  0.4868090000000  0.4976840000000  0.5324310000000 1.0
C      1  0.4497430000000  0.6117000000000  0.4763510000000 1.0
C      1  0.5360230000000  0.4921060000000  0.5329950000000 1.0
C      1  0.5320740000000  0.3838570000000  0.4786450000000 1.0
C      1  0.4111870000000  0.5134710000000  0.4356030000000 1.0
C      1  0.5384650000000  0.4883890000000  0.4899410000000 1.0
C      1  0.6137530000000  0.4846940000000  0.4822280000000 1.0
C      1  0.4027080000000  0.5807220000000  0.5241610000000 1.0
C      1  0.5332090000000  0.5786370000000  0.5205890000000 1.0
C      1  0.5161170000000  0.5420530000000  0.3955740000000 1.0
C      1  0.5195470000000  0.4612680000000  0.5922880000000 1.0
C      1  0.5272540000000  0.4698400000000  0.4567140000000 1.0
C      1  0.4125940000000  0.5380000000000  0.4567400000000 1.0
C      1  0.4330360000000  0.4826800000000  0.5791260000000 1.0
C      1  0.5613620000000  0.4618060000000  0.4154560000000 1.0
C      1  0.4943610000000  0.5349310000000  0.4390930000000 1.0
C      1  0.4011300000000  0.4508450000000  0.5351840000000 1.0
C      1  0.5423590000000  0.5405480000000  0.5811530000000 1.0
C      1  0.5864600000000  0.4583260000000  0.5420450000000 1.0
END
