TITL C-2848494-1720-300 0.00124721818557526 125000 -149.745638184787 0 0 28 (C1) n - 1
REM
REM in /home/bkarasulu/work/CARBON/AIRSS/Generating-Clusters/AIREBO/with-SteepDescent/Only-C1/SD-CG-opt/Try1-1.4A-POS3A/HFTN-CG
REM
REM
REM
REM
REM
REM ./C.cell (11c1c37f851c82e70ff6c80c92926a4b)
REM
REM compiler GCC version 9.2.1 20190827 (Red Hat 9.2.1-1)
REM options -cpp -mtune=generic -march=x86-64 -g -O0 -fpre-include=/usr/include/finclude/math-vector-fortran.h
REM seed -496680923 878537205 1934873015 1349525219 -1223025084 326803260 1564110955 1843482523 -1805782715 517934870 849554360 -1146350187 -283457741 -1557442738 -2001758774 1120948005 -965108112 -1723517947 1265021155 1234222923 374653387 757170115 2001332378 -677821438 196040177 -1308082241 1914833474 -776085996 -780181232 125623138 -1920678941 -939857608 91823524
REM
CELL 1.54180   50.00000   50.00000   50.00000   90.00000   90.00000   90.00000
LATT -1
SFAC C  
C      1  0.5095510000000  0.4784500000000  0.5216960000000 1.0
C      1  0.4635500000000  0.4970060000000  0.4559850000000 1.0
C      1  0.5740770000000  0.5058100000000  0.4690500000000 1.0
C      1  0.5528040000000  0.4970040000000  0.4846300000000 1.0
C      1  0.5234080000000  0.5476310000000  0.4985130000000 1.0
C      1  0.4414600000000  0.5409340000000  0.4574420000000 1.0
C      1  0.5426790000000  0.4659520000000  0.4823710000000 1.0
C      1  0.5584120000000  0.5028540000000  0.5459540000000 1.0
C      1  0.5315990000000  0.4892940000000  0.5328110000000 1.0
C      1  0.5137020000000  0.4605210000000  0.4967230000000 1.0
C      1  0.4791730000000  0.4800580000000  0.4714430000000 1.0
C      1  0.5069840000000  0.4812710000000  0.4733300000000 1.0
C      1  0.5123620000000  0.5278530000000  0.4808480000000 1.0
C      1  0.4686590000000  0.4685330000000  0.4983310000000 1.0
C      1  0.5544920000000  0.5009740000000  0.5141420000000 1.0
C      1  0.4610250000000  0.5233600000000  0.4647170000000 1.0
C      1  0.4411420000000  0.4631440000000  0.4988210000000 1.0
C      1  0.4860930000000  0.5360160000000  0.5605310000000 1.0
C      1  0.4889760000000  0.5363790000000  0.5338780000000 1.0
C      1  0.4806010000000  0.5292080000000  0.4859690000000 1.0
C      1  0.4864720000000  0.5616260000000  0.4925000000000 1.0
C      1  0.4668100000000  0.4812710000000  0.5468040000000 1.0
C      1  0.5234340000000  0.5035170000000  0.4746110000000 1.0
C      1  0.4881560000000  0.4420430000000  0.4984410000000 1.0
C      1  0.4841330000000  0.4172460000000  0.5039550000000 1.0
C      1  0.5026870000000  0.5571410000000  0.5187830000000 1.0
C      1  0.4796210000000  0.4874730000000  0.5223010000000 1.0
C      1  0.4779400000000  0.5174310000000  0.5154190000000 1.0
END
