TITL C-2847956-8218-557 0.000890711934054731 125000 -247.983465217033 0 0 46 (C1) n - 1
REM
REM in /home/bkarasulu/work/CARBON/AIRSS/Generating-Clusters/AIREBO/with-SteepDescent/Only-C1/SD-CG-opt/Try1-1.4A-POS3A/HFTN-CG
REM
REM
REM
REM
REM
REM ./C.cell (11c1c37f851c82e70ff6c80c92926a4b)
REM
REM compiler GCC version 9.2.1 20190827 (Red Hat 9.2.1-1)
REM options -cpp -mtune=generic -march=x86-64 -g -O0 -fpre-include=/usr/include/finclude/math-vector-fortran.h
REM seed 1792165261 1762177955 75243584 47643597 1626000437 1329315864 -1750485006 -840490970 1205041834 335482810 -1585665261 -1642219299 526275168 -2111984819 347540337 1135596345 -357545862 1328857579 1360662815 -283817544 -291412709 1179342870 -357710931 -831390526 246221871 1611536943 -24934483 -1341999748 21620667 1841027519 1912867325 -78948633 745453288
REM
CELL 1.54180   50.00000   50.00000   50.00000   90.00000   90.00000   90.00000
LATT -1
SFAC C  
C      1  0.4605580000000  0.4894840000000  0.4866900000000 1.0
C      1  0.5580600000000  0.5111050000000  0.5220410000000 1.0
C      1  0.4525600000000  0.4947590000000  0.5483000000000 1.0
C      1  0.5070820000000  0.4563650000000  0.5081540000000 1.0
C      1  0.5371010000000  0.5578010000000  0.4759860000000 1.0
C      1  0.4995030000000  0.5284370000000  0.4254770000000 1.0
C      1  0.4758210000000  0.4903250000000  0.5163980000000 1.0
C      1  0.4937120000000  0.4936560000000  0.4813540000000 1.0
C      1  0.4770900000000  0.5446080000000  0.4305140000000 1.0
C      1  0.4886450000000  0.5466120000000  0.5019980000000 1.0
C      1  0.5132160000000  0.5139920000000  0.4530450000000 1.0
C      1  0.4406590000000  0.5116920000000  0.5279870000000 1.0
C      1  0.5643520000000  0.5075490000000  0.4919130000000 1.0
C      1  0.4900870000000  0.5535870000000  0.4746480000000 1.0
C      1  0.4766190000000  0.5014360000000  0.5692030000000 1.0
C      1  0.5165720000000  0.4765250000000  0.5280270000000 1.0
C      1  0.4271090000000  0.5190660000000  0.4538980000000 1.0
C      1  0.5372310000000  0.5523430000000  0.5031150000000 1.0
C      1  0.5322100000000  0.5252140000000  0.5644370000000 1.0
C      1  0.5398850000000  0.4523550000000  0.5661060000000 1.0
C      1  0.4957550000000  0.5159590000000  0.5062290000000 1.0
C      1  0.4983090000000  0.4758860000000  0.5749580000000 1.0
C      1  0.5077240000000  0.4684440000000  0.4828510000000 1.0
C      1  0.4683770000000  0.5481250000000  0.4577370000000 1.0
C      1  0.4458810000000  0.4714620000000  0.4680690000000 1.0
C      1  0.5248380000000  0.5300350000000  0.5106780000000 1.0
C      1  0.4671170000000  0.4416310000000  0.5286830000000 1.0
C      1  0.4604660000000  0.4679520000000  0.5352730000000 1.0
C      1  0.4461400000000  0.5149340000000  0.5015250000000 1.0
C      1  0.5351840000000  0.5008040000000  0.4757130000000 1.0
C      1  0.5084760000000  0.5135200000000  0.5661850000000 1.0
C      1  0.5388750000000  0.4729120000000  0.4590040000000 1.0
C      1  0.4798520000000  0.5101390000000  0.4584570000000 1.0
C      1  0.5150310000000  0.5464430000000  0.4630340000000 1.0
C      1  0.4830030000000  0.5631070000000  0.5230080000000 1.0
C      1  0.5118220000000  0.4525870000000  0.4556630000000 1.0
C      1  0.4880930000000  0.4193520000000  0.4869820000000 1.0
C      1  0.4973290000000  0.4259430000000  0.4616530000000 1.0
C      1  0.5185580000000  0.4678200000000  0.5584970000000 1.0
C      1  0.5540860000000  0.5207420000000  0.5479590000000 1.0
C      1  0.5140720000000  0.4827740000000  0.4395840000000 1.0
C      1  0.4880030000000  0.4359020000000  0.5101720000000 1.0
C      1  0.5306660000000  0.4967500000000  0.5093240000000 1.0
C      1  0.4504580000000  0.5236820000000  0.4688770000000 1.0
C      1  0.4953220000000  0.4968710000000  0.5411790000000 1.0
C      1  0.5884880000000  0.5093110000000  0.4794130000000 1.0
END
