TITL C-2847955-7945-282 0.00246286019499883 125000 -389.917017406828 0 0 73 (C1) n - 1
REM
REM in /home/bkarasulu/work/CARBON/AIRSS/Generating-Clusters/AIREBO/with-SteepDescent/Only-C1/SD-CG-opt/Try1-1.4A-POS3A/HFTN-CG
REM
REM
REM
REM
REM
REM ./C.cell (11c1c37f851c82e70ff6c80c92926a4b)
REM
REM compiler GCC version 9.2.1 20190827 (Red Hat 9.2.1-1)
REM options -cpp -mtune=generic -march=x86-64 -g -O0 -fpre-include=/usr/include/finclude/math-vector-fortran.h
REM seed 140231076 -1393793982 802053096 -1877921176 1164557623 1126494446 -2030962429 162736614 -643078755 -11588370 -885159806 -737354347 62299823 -192641962 38280553 -734478160 -1651294748 -1800285475 1701094152 -661248280 -246296888 -621134938 -1144153920 -1331447430 391878071 543946462 -1313682438 -1422639777 649193880 -313766548 916628517 1376254545 1983224759
REM
CELL 1.54180   50.00000   50.00000   50.00000   90.00000   90.00000   90.00000
LATT -1
SFAC C  
C      1  0.4260330000000  0.5213440000000  0.5319190000000 1.0
C      1  0.4322190000000  0.4660500000000  0.5209800000000 1.0
C      1  0.5348230000000  0.5542880000000  0.5255050000000 1.0
C      1  0.4912000000000  0.4765060000000  0.5048990000000 1.0
C      1  0.5103160000000  0.4620950000000  0.5504340000000 1.0
C      1  0.5378780000000  0.4856910000000  0.4513750000000 1.0
C      1  0.5294670000000  0.4877130000000  0.5418870000000 1.0
C      1  0.4333940000000  0.5681060000000  0.5587320000000 1.0
C      1  0.5346460000000  0.4496720000000  0.4957310000000 1.0
C      1  0.5196530000000  0.5064960000000  0.4711840000000 1.0
C      1  0.4869730000000  0.5018330000000  0.4643040000000 1.0
C      1  0.4448320000000  0.4638270000000  0.5526790000000 1.0
C      1  0.5126390000000  0.4737010000000  0.4331070000000 1.0
C      1  0.5432980000000  0.5559400000000  0.4513050000000 1.0
C      1  0.4971580000000  0.4786510000000  0.5770170000000 1.0
C      1  0.4813140000000  0.4732610000000  0.4739100000000 1.0
C      1  0.5578710000000  0.4792680000000  0.5292440000000 1.0
C      1  0.4613850000000  0.4285720000000  0.5613200000000 1.0
C      1  0.5449910000000  0.5738330000000  0.4795200000000 1.0
C      1  0.5567930000000  0.5100510000000  0.4567950000000 1.0
C      1  0.5644590000000  0.5052370000000  0.5588900000000 1.0
C      1  0.4728390000000  0.5350010000000  0.5563460000000 1.0
C      1  0.4447300000000  0.5366460000000  0.4481140000000 1.0
C      1  0.5415630000000  0.4509390000000  0.5512700000000 1.0
C      1  0.5128540000000  0.5646020000000  0.4733110000000 1.0
C      1  0.4508700000000  0.4463640000000  0.4998750000000 1.0
C      1  0.5704260000000  0.5584060000000  0.4960000000000 1.0
C      1  0.4211660000000  0.5412420000000  0.4395140000000 1.0
C      1  0.4671640000000  0.5543130000000  0.4915360000000 1.0
C      1  0.5026470000000  0.4303190000000  0.4705440000000 1.0
C      1  0.5149800000000  0.5365080000000  0.4550810000000 1.0
C      1  0.5409190000000  0.5785990000000  0.5129440000000 1.0
C      1  0.5071920000000  0.4344980000000  0.5028310000000 1.0
C      1  0.5265130000000  0.5205650000000  0.5000830000000 1.0
C      1  0.4784010000000  0.5427770000000  0.4465930000000 1.0
C      1  0.4513080000000  0.4647060000000  0.4721720000000 1.0
C      1  0.4530180000000  0.5082630000000  0.4985920000000 1.0
C      1  0.4744640000000  0.4264580000000  0.4983050000000 1.0
C      1  0.5046210000000  0.5306580000000  0.5676270000000 1.0
C      1  0.4466790000000  0.5448900000000  0.5450850000000 1.0
C      1  0.4821670000000  0.5052090000000  0.5698280000000 1.0
C      1  0.5514910000000  0.4510660000000  0.5200180000000 1.0
C      1  0.4835240000000  0.4571810000000  0.4267210000000 1.0
C      1  0.5638770000000  0.4747770000000  0.5611510000000 1.0
C      1  0.5301420000000  0.5202470000000  0.4197150000000 1.0
C      1  0.5182280000000  0.4772480000000  0.4884880000000 1.0
C      1  0.4653420000000  0.4973200000000  0.5452630000000 1.0
C      1  0.4652450000000  0.5258530000000  0.4730050000000 1.0
C      1  0.4770970000000  0.5000890000000  0.5162080000000 1.0
C      1  0.4638330000000  0.4444110000000  0.5322890000000 1.0
C      1  0.5075270000000  0.5449130000000  0.5144390000000 1.0
C      1  0.4530820000000  0.4633990000000  0.4411910000000 1.0
C      1  0.5516610000000  0.5282870000000  0.5366400000000 1.0
C      1  0.4893280000000  0.5258680000000  0.5312590000000 1.0
C      1  0.5013270000000  0.5315650000000  0.4252250000000 1.0
C      1  0.5507500000000  0.4419040000000  0.4708780000000 1.0
C      1  0.4809980000000  0.5071990000000  0.4337080000000 1.0
C      1  0.5150020000000  0.5078880000000  0.5260370000000 1.0
C      1  0.5557720000000  0.4601880000000  0.4543250000000 1.0
C      1  0.5621540000000  0.5151470000000  0.4837210000000 1.0
C      1  0.4372330000000  0.4832310000000  0.4935420000000 1.0
C      1  0.5321200000000  0.5154630000000  0.5613720000000 1.0
C      1  0.4483300000000  0.5378190000000  0.5120320000000 1.0
C      1  0.4927100000000  0.4532430000000  0.5256510000000 1.0
C      1  0.5235860000000  0.4927560000000  0.5852060000000 1.0
C      1  0.5640790000000  0.5332540000000  0.5053460000000 1.0
C      1  0.4672160000000  0.4857180000000  0.4222740000000 1.0
C      1  0.4757080000000  0.4576100000000  0.5657720000000 1.0
C      1  0.4352340000000  0.4939530000000  0.5401760000000 1.0
C      1  0.4941670000000  0.5617830000000  0.4945840000000 1.0
C      1  0.5503530000000  0.5299920000000  0.4378120000000 1.0
C      1  0.5294720000000  0.4934390000000  0.4131380000000 1.0
C      1  0.4975500000000  0.4540910000000  0.4564270000000 1.0
END
