TITL C-2848507-1641-585 -0.00201315810810072 125000 -831.812897650582 0 0 156 (C1) n - 1
REM
REM in /home/bkarasulu/work/CARBON/AIRSS/Generating-Clusters/AIREBO/with-SteepDescent/Only-C1/SD-CG-opt/Try1-1.4A-POS3A/HFTN-CG
REM
REM
REM
REM
REM
REM ./C.cell (11c1c37f851c82e70ff6c80c92926a4b)
REM
REM compiler GCC version 9.2.1 20190827 (Red Hat 9.2.1-1)
REM options -cpp -mtune=generic -march=x86-64 -g -O0 -fpre-include=/usr/include/finclude/math-vector-fortran.h
REM seed -1979188 1859615658 -711863849 -1165031118 -2032505893 -1651234608 2060234743 234664530 -414729187 296555370 -1545474180 -981319004 -214386718 1462999490 -1066950969 -1162366690 -1282090420 -206494623 -793837615 2045708182 1318902649 58944723 -958912987 1711875831 1777168110 1485917155 -2090954138 452128241 229863203 -580010050 1316877173 1779835414 -583187589
REM
CELL 1.54180   50.00000   50.00000   50.00000   90.00000   90.00000   90.00000
LATT -1
SFAC C  
C      1  0.5412370000000  0.4848800000000  0.5154940000000 1.0
C      1  0.4758140000000  0.3965180000000  0.4692130000000 1.0
C      1  0.5796360000000  0.4652330000000  0.4414710000000 1.0
C      1  0.5929960000000  0.5364680000000  0.5046650000000 1.0
C      1  0.5052560000000  0.4476380000000  0.4128690000000 1.0
C      1  0.4717180000000  0.5024250000000  0.5861140000000 1.0
C      1  0.5407650000000  0.4394570000000  0.5735390000000 1.0
C      1  0.5821430000000  0.5854920000000  0.4524540000000 1.0
C      1  0.4944570000000  0.5246250000000  0.4494520000000 1.0
C      1  0.5774770000000  0.5617400000000  0.5035790000000 1.0
C      1  0.4946620000000  0.4241640000000  0.4358560000000 1.0
C      1  0.4804960000000  0.5099400000000  0.4114250000000 1.0
C      1  0.4262970000000  0.5367100000000  0.4561310000000 1.0
C      1  0.4981840000000  0.5634640000000  0.4763110000000 1.0
C      1  0.5257990000000  0.4347350000000  0.4445540000000 1.0
C      1  0.4594970000000  0.5470480000000  0.5196180000000 1.0
C      1  0.4408500000000  0.4334210000000  0.5723380000000 1.0
C      1  0.5683150000000  0.5153790000000  0.5004340000000 1.0
C      1  0.5208140000000  0.4980500000000  0.6160070000000 1.0
C      1  0.4853850000000  0.4749430000000  0.4772450000000 1.0
C      1  0.3904120000000  0.4767940000000  0.4855480000000 1.0
C      1  0.5809890000000  0.5528790000000  0.5506960000000 1.0
C      1  0.5310680000000  0.3966410000000  0.4939220000000 1.0
C      1  0.5131870000000  0.5711710000000  0.5656370000000 1.0
C      1  0.5020210000000  0.4922420000000  0.3906120000000 1.0
C      1  0.4383460000000  0.4757160000000  0.5056770000000 1.0
C      1  0.5051520000000  0.4267070000000  0.4933980000000 1.0
C      1  0.4720640000000  0.4547420000000  0.5384860000000 1.0
C      1  0.5597860000000  0.5956580000000  0.5382690000000 1.0
C      1  0.5025110000000  0.4957780000000  0.4620990000000 1.0
C      1  0.5401280000000  0.4661310000000  0.5438460000000 1.0
C      1  0.4626150000000  0.5224570000000  0.4377170000000 1.0
C      1  0.4585170000000  0.4413450000000  0.4863800000000 1.0
C      1  0.4402290000000  0.4433080000000  0.5422360000000 1.0
C      1  0.5784780000000  0.4345240000000  0.5409510000000 1.0
C      1  0.5953850000000  0.5270340000000  0.5433910000000 1.0
C      1  0.5536350000000  0.4987570000000  0.4194610000000 1.0
C      1  0.4642890000000  0.5488160000000  0.4591700000000 1.0
C      1  0.4918610000000  0.4310180000000  0.5526820000000 1.0
C      1  0.5655530000000  0.4648110000000  0.5023610000000 1.0
C      1  0.4539080000000  0.5753230000000  0.5354380000000 1.0
C      1  0.4569970000000  0.4518670000000  0.5864260000000 1.0
C      1  0.5585600000000  0.5446180000000  0.4370470000000 1.0
C      1  0.5281850000000  0.5129180000000  0.5009270000000 1.0
C      1  0.5939680000000  0.4835220000000  0.4740230000000 1.0
C      1  0.4200560000000  0.5598090000000  0.4889260000000 1.0
C      1  0.5073580000000  0.4382940000000  0.5797540000000 1.0
C      1  0.4940750000000  0.4636450000000  0.4399360000000 1.0
C      1  0.4165470000000  0.4611440000000  0.5356520000000 1.0
C      1  0.4679050000000  0.5590840000000  0.4151070000000 1.0
C      1  0.4843190000000  0.4488220000000  0.5072430000000 1.0
C      1  0.4906820000000  0.4032380000000  0.5133040000000 1.0
C      1  0.4495570000000  0.5699460000000  0.5675580000000 1.0
C      1  0.5337680000000  0.4892020000000  0.4604060000000 1.0
C      1  0.4872190000000  0.5937850000000  0.4996050000000 1.0
C      1  0.5039150000000  0.3972700000000  0.4764230000000 1.0
C      1  0.5120690000000  0.5396310000000  0.4245340000000 1.0
C      1  0.5249440000000  0.5254120000000  0.6033280000000 1.0
C      1  0.5303510000000  0.4224910000000  0.5160350000000 1.0
C      1  0.5580490000000  0.5078400000000  0.5306530000000 1.0
C      1  0.5547040000000  0.4146260000000  0.4859490000000 1.0
C      1  0.4787120000000  0.5690140000000  0.4405360000000 1.0
C      1  0.4297780000000  0.5496650000000  0.5800620000000 1.0
C      1  0.3956300000000  0.5087170000000  0.4960440000000 1.0
C      1  0.5838320000000  0.4769990000000  0.5728720000000 1.0
C      1  0.4053050000000  0.4483240000000  0.4737950000000 1.0
C      1  0.5263500000000  0.5715820000000  0.4943160000000 1.0
C      1  0.4878450000000  0.5480700000000  0.5048170000000 1.0
C      1  0.4384440000000  0.4664030000000  0.4377780000000 1.0
C      1  0.5346180000000  0.5887760000000  0.5460670000000 1.0
C      1  0.4511720000000  0.4936340000000  0.4481790000000 1.0
C      1  0.5609070000000  0.4719470000000  0.4229760000000 1.0
C      1  0.4120730000000  0.4592800000000  0.5050460000000 1.0
C      1  0.5587220000000  0.5700750000000  0.4547110000000 1.0
C      1  0.5708490000000  0.4655100000000  0.5341310000000 1.0
C      1  0.4670490000000  0.5770600000000  0.4779270000000 1.0
C      1  0.4459080000000  0.4019390000000  0.4785440000000 1.0
C      1  0.4285940000000  0.4258280000000  0.4819100000000 1.0
C      1  0.5127560000000  0.5996000000000  0.4862650000000 1.0
C      1  0.4688850000000  0.5445190000000  0.5760540000000 1.0
C      1  0.5383960000000  0.5225270000000  0.5487290000000 1.0
C      1  0.5124700000000  0.5337900000000  0.5192360000000 1.0
C      1  0.4736580000000  0.5236170000000  0.5523830000000 1.0
C      1  0.5138860000000  0.4651960000000  0.5109650000000 1.0
C      1  0.4354310000000  0.5061420000000  0.4939020000000 1.0
C      1  0.4681610000000  0.4271610000000  0.4569870000000 1.0
C      1  0.5215940000000  0.5651530000000  0.5253700000000 1.0
C      1  0.5045530000000  0.5211520000000  0.4808570000000 1.0
C      1  0.5132770000000  0.5060030000000  0.4195950000000 1.0
C      1  0.4509750000000  0.5264280000000  0.4762900000000 1.0
C      1  0.4904160000000  0.4968590000000  0.5588490000000 1.0
C      1  0.4745550000000  0.4156020000000  0.5307610000000 1.0
C      1  0.4476570000000  0.5014450000000  0.5517620000000 1.0
C      1  0.4308810000000  0.5636190000000  0.5143090000000 1.0
C      1  0.6034430000000  0.5064850000000  0.5169820000000 1.0
C      1  0.5418200000000  0.5462300000000  0.4149030000000 1.0
C      1  0.5098540000000  0.5664470000000  0.4453280000000 1.0
C      1  0.4063530000000  0.5314240000000  0.4831680000000 1.0
C      1  0.5075850000000  0.4730880000000  0.5994700000000 1.0
C      1  0.5272540000000  0.5426040000000  0.5738120000000 1.0
C      1  0.5483710000000  0.5514070000000  0.5412120000000 1.0
C      1  0.5382080000000  0.4513130000000  0.4187100000000 1.0
C      1  0.4307100000000  0.5736840000000  0.4422720000000 1.0
C      1  0.5773080000000  0.5752250000000  0.5280910000000 1.0
C      1  0.3998170000000  0.5215790000000  0.4450310000000 1.0
C      1  0.4810510000000  0.5768320000000  0.5558610000000 1.0
C      1  0.4974400000000  0.4626720000000  0.3878030000000 1.0
C      1  0.4517530000000  0.4279990000000  0.5169420000000 1.0
C      1  0.5349280000000  0.5043000000000  0.3934350000000 1.0
C      1  0.5213340000000  0.4739600000000  0.5688130000000 1.0
C      1  0.5542790000000  0.5141910000000  0.4498540000000 1.0
C      1  0.5518700000000  0.5224600000000  0.5858360000000 1.0
C      1  0.4924150000000  0.5557160000000  0.5876810000000 1.0
C      1  0.5471330000000  0.5290640000000  0.4798470000000 1.0
C      1  0.5241750000000  0.4363450000000  0.5439290000000 1.0
C      1  0.4351800000000  0.5740390000000  0.4693810000000 1.0
C      1  0.3970460000000  0.4976370000000  0.4523960000000 1.0
C      1  0.4218100000000  0.4446490000000  0.4464160000000 1.0
C      1  0.4761930000000  0.4817440000000  0.6045840000000 1.0
C      1  0.4515430000000  0.4726180000000  0.4749270000000 1.0
C      1  0.5064210000000  0.4497240000000  0.4684020000000 1.0
C      1  0.4741920000000  0.4926760000000  0.5012160000000 1.0
C      1  0.4439500000000  0.5204080000000  0.5235680000000 1.0
C      1  0.4920930000000  0.5817630000000  0.5256650000000 1.0
C      1  0.4899620000000  0.4510960000000  0.3656640000000 1.0
C      1  0.4892360000000  0.5477760000000  0.4019330000000 1.0
C      1  0.4853990000000  0.4489510000000  0.6010090000000 1.0
C      1  0.4452760000000  0.5203370000000  0.5799440000000 1.0
C      1  0.5059640000000  0.5225330000000  0.5465730000000 1.0
C      1  0.5527060000000  0.5597230000000  0.4837490000000 1.0
C      1  0.5587480000000  0.4673470000000  0.5809810000000 1.0
C      1  0.4375510000000  0.4212970000000  0.4433780000000 1.0
C      1  0.4200620000000  0.4854090000000  0.4717610000000 1.0
C      1  0.4165510000000  0.5239930000000  0.5412690000000 1.0
C      1  0.5327460000000  0.5855170000000  0.4469740000000 1.0
C      1  0.5253650000000  0.6074210000000  0.4621440000000 1.0
C      1  0.5625550000000  0.4328900000000  0.5127410000000 1.0
C      1  0.3951080000000  0.5084920000000  0.5243390000000 1.0
C      1  0.5315600000000  0.4658780000000  0.4818270000000 1.0
C      1  0.5221470000000  0.4778990000000  0.4325560000000 1.0
C      1  0.4163800000000  0.4901560000000  0.5446200000000 1.0
C      1  0.4652800000000  0.4557530000000  0.4388130000000 1.0
C      1  0.5817410000000  0.5110540000000  0.4694860000000 1.0
C      1  0.5413340000000  0.4916160000000  0.5898900000000 1.0
C      1  0.4598180000000  0.4827170000000  0.5259900000000 1.0
C      1  0.6032340000000  0.5307870000000  0.4599390000000 1.0
C      1  0.6124500000000  0.4864940000000  0.4951100000000 1.0
C      1  0.5473160000000  0.4387470000000  0.4687120000000 1.0
C      1  0.5685840000000  0.4254130000000  0.5651240000000 1.0
C      1  0.5009570000000  0.4724010000000  0.5415910000000 1.0
C      1  0.4585210000000  0.4718650000000  0.5645560000000 1.0
C      1  0.4749230000000  0.5209160000000  0.4937430000000 1.0
C      1  0.5702720000000  0.4621680000000  0.4725080000000 1.0
C      1  0.5878420000000  0.5626230000000  0.5760350000000 1.0
C      1  0.4400970000000  0.5452120000000  0.4262130000000 1.0
C      1  0.5862930000000  0.4942580000000  0.5436820000000 1.0
END
