TITL C-2847947-6848-110 -0.000330138241131337 125000 -1045.98551367801 0 0 195 (C1) n - 1
REM
REM in /home/bkarasulu/work/CARBON/AIRSS/Generating-Clusters/AIREBO/with-SteepDescent/Only-C1/SD-CG-opt/Try1-1.4A-POS3A/HFTN-CG
REM
REM
REM
REM
REM
REM ./C.cell (11c1c37f851c82e70ff6c80c92926a4b)
REM
REM compiler GCC version 9.2.1 20190827 (Red Hat 9.2.1-1)
REM options -cpp -mtune=generic -march=x86-64 -g -O0 -fpre-include=/usr/include/finclude/math-vector-fortran.h
REM seed 1763552492 537309237 -1731723115 936157776 -222105432 -2116802670 1483989303 -300864324 312555537 -1934325631 -1941216476 -2077198210 481898328 -632148772 1712973963 1261322234 -1032939371 1033534949 -1677081029 -1443517134 -976042357 -556865537 431267371 1301602341 -432923800 -1259315011 944265046 -348505795 146389286 -1540568977 1237723242 -326847635 -616872273
REM
CELL 1.54180   50.00000   50.00000   50.00000   90.00000   90.00000   90.00000
LATT -1
SFAC C  
C      1  0.3821310000000  0.5342040000000  0.4500430000000 1.0
C      1  0.5955270000000  0.4301270000000  0.4439630000000 1.0
C      1  0.5256080000000  0.5788860000000  0.5560290000000 1.0
C      1  0.5404140000000  0.5245160000000  0.5030010000000 1.0
C      1  0.4361450000000  0.4948180000000  0.5546610000000 1.0
C      1  0.5400620000000  0.5671200000000  0.3996070000000 1.0
C      1  0.4719750000000  0.5799170000000  0.4667160000000 1.0
C      1  0.5196470000000  0.4845240000000  0.5791610000000 1.0
C      1  0.5020930000000  0.4710640000000  0.5442810000000 1.0
C      1  0.6101590000000  0.4852050000000  0.5124100000000 1.0
C      1  0.4495040000000  0.4516930000000  0.4310600000000 1.0
C      1  0.5932570000000  0.5770130000000  0.5619440000000 1.0
C      1  0.3939270000000  0.5459610000000  0.4707480000000 1.0
C      1  0.4602720000000  0.5860440000000  0.5421900000000 1.0
C      1  0.4727980000000  0.4805730000000  0.5483010000000 1.0
C      1  0.4822370000000  0.5772370000000  0.4370660000000 1.0
C      1  0.4980090000000  0.5419460000000  0.4768770000000 1.0
C      1  0.5501550000000  0.4502550000000  0.4391730000000 1.0
C      1  0.4523590000000  0.4538670000000  0.3995900000000 1.0
C      1  0.5387800000000  0.4596710000000  0.5659270000000 1.0
C      1  0.4970540000000  0.3858530000000  0.4788920000000 1.0
C      1  0.6025140000000  0.5421300000000  0.5271460000000 1.0
C      1  0.3934810000000  0.4727180000000  0.5190290000000 1.0
C      1  0.4114400000000  0.5283420000000  0.5321410000000 1.0
C      1  0.4498540000000  0.4829270000000  0.3934100000000 1.0
C      1  0.4967840000000  0.5886780000000  0.4864820000000 1.0
C      1  0.5874500000000  0.5164260000000  0.5226940000000 1.0
C      1  0.4863880000000  0.5183520000000  0.4307060000000 1.0
C      1  0.4713010000000  0.4610920000000  0.5939860000000 1.0
C      1  0.4072000000000  0.4863770000000  0.5802520000000 1.0
C      1  0.6086570000000  0.5320330000000  0.4826340000000 1.0
C      1  0.4908920000000  0.5991310000000  0.4252560000000 1.0
C      1  0.4405030000000  0.5184240000000  0.5175340000000 1.0
C      1  0.4475750000000  0.4526190000000  0.4771500000000 1.0
C      1  0.5802230000000  0.5277030000000  0.4350040000000 1.0
C      1  0.5160300000000  0.5176010000000  0.5862480000000 1.0
C      1  0.5545230000000  0.5159740000000  0.3970380000000 1.0
C      1  0.4282290000000  0.5559450000000  0.5215400000000 1.0
C      1  0.4345910000000  0.4630350000000  0.5546660000000 1.0
C      1  0.5117470000000  0.5351540000000  0.4187040000000 1.0
C      1  0.4998080000000  0.5504550000000  0.5667070000000 1.0
C      1  0.5093700000000  0.4473550000000  0.5670210000000 1.0
C      1  0.4751350000000  0.3925230000000  0.5053520000000 1.0
C      1  0.4972780000000  0.4740500000000  0.4687980000000 1.0
C      1  0.5627730000000  0.4549840000000  0.4706760000000 1.0
C      1  0.4415710000000  0.5594760000000  0.5852360000000 1.0
C      1  0.5525540000000  0.4705840000000  0.4120010000000 1.0
C      1  0.5695050000000  0.5864970000000  0.4718870000000 1.0
C      1  0.5199290000000  0.3998480000000  0.5389780000000 1.0
C      1  0.4251490000000  0.4607230000000  0.5220690000000 1.0
C      1  0.4392690000000  0.4947670000000  0.5878630000000 1.0
C      1  0.5757140000000  0.4864170000000  0.4718360000000 1.0
C      1  0.5588030000000  0.5401820000000  0.5523620000000 1.0
C      1  0.5546560000000  0.5403450000000  0.4319460000000 1.0
C      1  0.5701360000000  0.5679080000000  0.4919930000000 1.0
C      1  0.5372160000000  0.4934000000000  0.5278510000000 1.0
C      1  0.4243050000000  0.4210090000000  0.4711450000000 1.0
C      1  0.5687210000000  0.4970740000000  0.5708310000000 1.0
C      1  0.4872550000000  0.5572290000000  0.5360450000000 1.0
C      1  0.4931670000000  0.5179450000000  0.5344640000000 1.0
C      1  0.4603310000000  0.5111480000000  0.5401030000000 1.0
C      1  0.4945410000000  0.4985520000000  0.4042810000000 1.0
C      1  0.5626330000000  0.5381630000000  0.4811680000000 1.0
C      1  0.5312480000000  0.5432820000000  0.4690720000000 1.0
C      1  0.4424580000000  0.5091450000000  0.4662610000000 1.0
C      1  0.4528160000000  0.6287910000000  0.5187140000000 1.0
C      1  0.4752840000000  0.5736830000000  0.5703410000000 1.0
C      1  0.4920930000000  0.4878450000000  0.5971310000000 1.0
C      1  0.3922280000000  0.4564430000000  0.4719230000000 1.0
C      1  0.3931690000000  0.5104200000000  0.4400180000000 1.0
C      1  0.5261490000000  0.4742600000000  0.4412720000000 1.0
C      1  0.4257230000000  0.4344540000000  0.4406940000000 1.0
C      1  0.4566990000000  0.5334350000000  0.4087040000000 1.0
C      1  0.6191660000000  0.5451880000000  0.5054610000000 1.0
C      1  0.4774620000000  0.5804610000000  0.5132310000000 1.0
C      1  0.5822450000000  0.4492640000000  0.4279460000000 1.0
C      1  0.4156110000000  0.4636880000000  0.4483250000000 1.0
C      1  0.4609460000000  0.4513450000000  0.5369480000000 1.0
C      1  0.4859050000000  0.5205970000000  0.6039700000000 1.0
C      1  0.5304870000000  0.6118060000000  0.5168560000000 1.0
C      1  0.5593150000000  0.4476960000000  0.5898140000000 1.0
C      1  0.4702460000000  0.4063170000000  0.4745730000000 1.0
C      1  0.4969450000000  0.4710560000000  0.4241510000000 1.0
C      1  0.5322390000000  0.5571090000000  0.5083800000000 1.0
C      1  0.4635260000000  0.5090810000000  0.3964050000000 1.0
C      1  0.4512460000000  0.5356500000000  0.5618600000000 1.0
C      1  0.4521720000000  0.4164110000000  0.4522110000000 1.0
C      1  0.5088080000000  0.3946410000000  0.5095620000000 1.0
C      1  0.4906170000000  0.5192690000000  0.5647920000000 1.0
C      1  0.5539030000000  0.4623320000000  0.5026860000000 1.0
C      1  0.4696790000000  0.4968750000000  0.5762000000000 1.0
C      1  0.5823470000000  0.5601800000000  0.5425050000000 1.0
C      1  0.4544170000000  0.5548870000000  0.5378450000000 1.0
C      1  0.5777160000000  0.4664300000000  0.5720530000000 1.0
C      1  0.5823160000000  0.5122740000000  0.4911270000000 1.0
C      1  0.4818360000000  0.5510140000000  0.4218770000000 1.0
C      1  0.5326290000000  0.5729870000000  0.4793140000000 1.0
C      1  0.5517240000000  0.4216800000000  0.5735820000000 1.0
C      1  0.5962000000000  0.4650050000000  0.5351130000000 1.0
C      1  0.4177730000000  0.4468030000000  0.4917260000000 1.0
C      1  0.4706280000000  0.4417140000000  0.4931380000000 1.0
C      1  0.5696740000000  0.4209670000000  0.5240510000000 1.0
C      1  0.5173360000000  0.5966920000000  0.4603340000000 1.0
C      1  0.5571760000000  0.5198810000000  0.5300830000000 1.0
C      1  0.5216010000000  0.6095380000000  0.4908310000000 1.0
C      1  0.4741410000000  0.4388130000000  0.3925940000000 1.0
C      1  0.5341250000000  0.4202860000000  0.4379150000000 1.0
C      1  0.5121230000000  0.6326700000000  0.5300250000000 1.0
C      1  0.4428640000000  0.5886480000000  0.4710940000000 1.0
C      1  0.5453310000000  0.4509860000000  0.5335960000000 1.0
C      1  0.4348210000000  0.5336320000000  0.4258240000000 1.0
C      1  0.4674120000000  0.4218770000000  0.5650210000000 1.0
C      1  0.4779930000000  0.4602170000000  0.5142700000000 1.0
C      1  0.4251650000000  0.5543340000000  0.4812880000000 1.0
C      1  0.5669150000000  0.5734640000000  0.5195360000000 1.0
C      1  0.4941000000000  0.6040520000000  0.5312050000000 1.0
C      1  0.5242140000000  0.4331780000000  0.4817310000000 1.0
C      1  0.4805350000000  0.6316570000000  0.5212170000000 1.0
C      1  0.3908300000000  0.4409180000000  0.5267380000000 1.0
C      1  0.5275980000000  0.5711890000000  0.6074480000000 1.0
C      1  0.5129000000000  0.5412550000000  0.5266990000000 1.0
C      1  0.4948560000000  0.4239950000000  0.5195620000000 1.0
C      1  0.5046400000000  0.4931420000000  0.5185190000000 1.0
C      1  0.3921640000000  0.4868840000000  0.4571360000000 1.0
C      1  0.5705380000000  0.4393750000000  0.5526260000000 1.0
C      1  0.5880550000000  0.4951440000000  0.5463340000000 1.0
C      1  0.4235760000000  0.5014960000000  0.4933850000000 1.0
C      1  0.5085840000000  0.4534880000000  0.5181760000000 1.0
C      1  0.5949580000000  0.4387160000000  0.5187310000000 1.0
C      1  0.4945420000000  0.4245180000000  0.4875050000000 1.0
C      1  0.5060820000000  0.5052750000000  0.4634550000000 1.0
C      1  0.5060920000000  0.5212440000000  0.3817490000000 1.0
C      1  0.5489150000000  0.5672020000000  0.4256920000000 1.0
C      1  0.4723330000000  0.5508760000000  0.5954350000000 1.0
C      1  0.4646350000000  0.4815930000000  0.4253080000000 1.0
C      1  0.4245260000000  0.5310030000000  0.5811010000000 1.0
C      1  0.4036600000000  0.5162260000000  0.5629980000000 1.0
C      1  0.5493790000000  0.4963230000000  0.4527080000000 1.0
C      1  0.4412900000000  0.5476980000000  0.4520840000000 1.0
C      1  0.4947370000000  0.4401310000000  0.4158680000000 1.0
C      1  0.5911300000000  0.4750760000000  0.4226980000000 1.0
C      1  0.4679920000000  0.4123640000000  0.5323700000000 1.0
C      1  0.4748930000000  0.4894740000000  0.5024350000000 1.0
C      1  0.4748480000000  0.5061470000000  0.4761710000000 1.0
C      1  0.5236100000000  0.4282800000000  0.4084010000000 1.0
C      1  0.4378150000000  0.4264610000000  0.5392420000000 1.0
C      1  0.5080930000000  0.5175360000000  0.4950720000000 1.0
C      1  0.5066830000000  0.4069010000000  0.4539320000000 1.0
C      1  0.5670210000000  0.4990350000000  0.4237460000000 1.0
C      1  0.4835340000000  0.4257150000000  0.4423550000000 1.0
C      1  0.5404380000000  0.4987010000000  0.5594510000000 1.0
C      1  0.5389800000000  0.5836230000000  0.5286680000000 1.0
C      1  0.4972370000000  0.4485070000000  0.5950160000000 1.0
C      1  0.5290440000000  0.5225070000000  0.4451040000000 1.0
C      1  0.5239890000000  0.4193590000000  0.5639910000000 1.0
C      1  0.5686550000000  0.4813080000000  0.5232150000000 1.0
C      1  0.5962400000000  0.5325070000000  0.5967530000000 1.0
C      1  0.4273190000000  0.5782050000000  0.4493430000000 1.0
C      1  0.4100920000000  0.4326340000000  0.5468440000000 1.0
C      1  0.5375310000000  0.4050150000000  0.4681080000000 1.0
C      1  0.4487060000000  0.5323900000000  0.4903890000000 1.0
C      1  0.4553680000000  0.4465750000000  0.5759890000000 1.0
C      1  0.4437280000000  0.6028510000000  0.5203530000000 1.0
C      1  0.4440910000000  0.4757530000000  0.4999360000000 1.0
C      1  0.5278630000000  0.5579880000000  0.5799380000000 1.0
C      1  0.4059740000000  0.4559670000000  0.5707540000000 1.0
C      1  0.5131650000000  0.4488960000000  0.4556510000000 1.0
C      1  0.4521050000000  0.5238950000000  0.5998170000000 1.0
C      1  0.4363620000000  0.4882730000000  0.4421660000000 1.0
C      1  0.5003040000000  0.5893620000000  0.5558260000000 1.0
C      1  0.5869700000000  0.4336590000000  0.4704960000000 1.0
C      1  0.5388150000000  0.4266270000000  0.5107980000000 1.0
C      1  0.4305090000000  0.5818430000000  0.5009660000000 1.0
C      1  0.4719510000000  0.5554260000000  0.4901580000000 1.0
C      1  0.5312670000000  0.5371560000000  0.3932360000000 1.0
C      1  0.5894940000000  0.5350070000000  0.4592760000000 1.0
C      1  0.4191620000000  0.5113580000000  0.4294850000000 1.0
C      1  0.5392710000000  0.4955510000000  0.4851770000000 1.0
C      1  0.4720130000000  0.5338050000000  0.4565880000000 1.0
C      1  0.3972790000000  0.4834910000000  0.4906330000000 1.0
C      1  0.5701020000000  0.5169960000000  0.5949360000000 1.0
C      1  0.5225030000000  0.4664010000000  0.4902930000000 1.0
C      1  0.5474530000000  0.3953280000000  0.5195060000000 1.0
C      1  0.5463000000000  0.3879350000000  0.4895090000000 1.0
C      1  0.4726230000000  0.4550680000000  0.4556480000000 1.0
C      1  0.5461980000000  0.5322840000000  0.5801970000000 1.0
C      1  0.4070980000000  0.5312440000000  0.4985420000000 1.0
C      1  0.5615420000000  0.5054910000000  0.6218730000000 1.0
C      1  0.6013190000000  0.4455380000000  0.4917380000000 1.0
C      1  0.4940730000000  0.4034570000000  0.5611130000000 1.0
C      1  0.5230520000000  0.4503170000000  0.3895210000000 1.0
C      1  0.5156200000000  0.4765820000000  0.3891220000000 1.0
C      1  0.6027930000000  0.4743120000000  0.4879210000000 1.0
C      1  0.5466990000000  0.5852580000000  0.4491210000000 1.0
C      1  0.4053830000000  0.4906700000000  0.5408880000000 1.0
END
