TITL C-2847956-8218-601 -0.00565043288864256 125000 -1102.22945301788 0 0 198 (C1) n - 1
REM
REM in /home/bkarasulu/work/CARBON/AIRSS/Generating-Clusters/AIREBO/with-SteepDescent/Only-C1/SD-CG-opt/Try1-1.4A-POS3A/HFTN-CG
REM
REM
REM
REM
REM
REM ./C.cell (11c1c37f851c82e70ff6c80c92926a4b)
REM
REM compiler GCC version 9.2.1 20190827 (Red Hat 9.2.1-1)
REM options -cpp -mtune=generic -march=x86-64 -g -O0 -fpre-include=/usr/include/finclude/math-vector-fortran.h
REM seed -664212365 -1684000705 -78917407 258241008 -192607781 -377168379 -1058676197 -1815247891 1878560292 -550834068 512834921 -1376985163 1299234005 18524214 -159681010 663346141 -1906205290 -1087966485 439638905 1652870985 842849395 1393433390 1250053392 1238972599 520245512 309235702 1161019227 1499273310 -850063236 1976041259 -514602108 1748713782 426065357
REM
CELL 1.54180   50.00000   50.00000   50.00000   90.00000   90.00000   90.00000
LATT -1
SFAC C  
C      1  0.4873830000000  0.4817930000000  0.4760560000000 1.0
C      1  0.5732930000000  0.5355570000000  0.4727980000000 1.0
C      1  0.4415550000000  0.4338380000000  0.4435350000000 1.0
C      1  0.4572370000000  0.5886090000000  0.4433010000000 1.0
C      1  0.3952900000000  0.5290640000000  0.5107390000000 1.0
C      1  0.5276910000000  0.4988870000000  0.3999950000000 1.0
C      1  0.5463560000000  0.5033700000000  0.4277730000000 1.0
C      1  0.4497570000000  0.5143050000000  0.4735230000000 1.0
C      1  0.5817890000000  0.5767980000000  0.5452570000000 1.0
C      1  0.5182010000000  0.5192070000000  0.5717290000000 1.0
C      1  0.5117180000000  0.4720480000000  0.3911420000000 1.0
C      1  0.4560840000000  0.5127700000000  0.3962170000000 1.0
C      1  0.5802270000000  0.5081950000000  0.4072060000000 1.0
C      1  0.4939060000000  0.5641570000000  0.5925580000000 1.0
C      1  0.5045520000000  0.6059130000000  0.4652320000000 1.0
C      1  0.4927650000000  0.4418640000000  0.5454510000000 1.0
C      1  0.4831300000000  0.4190300000000  0.4496860000000 1.0
C      1  0.5923500000000  0.5118670000000  0.5661340000000 1.0
C      1  0.4339400000000  0.5687300000000  0.4528580000000 1.0
C      1  0.4579850000000  0.5983660000000  0.4891590000000 1.0
C      1  0.4178450000000  0.5624570000000  0.5404390000000 1.0
C      1  0.6183060000000  0.4599230000000  0.5387730000000 1.0
C      1  0.4458350000000  0.3998460000000  0.4825980000000 1.0
C      1  0.4624080000000  0.4993980000000  0.6068860000000 1.0
C      1  0.4023750000000  0.5196120000000  0.5612510000000 1.0
C      1  0.4839640000000  0.5950490000000  0.5490750000000 1.0
C      1  0.4297780000000  0.4680310000000  0.4633910000000 1.0
C      1  0.5414020000000  0.4051010000000  0.5293070000000 1.0
C      1  0.5601100000000  0.4945040000000  0.3913930000000 1.0
C      1  0.4078150000000  0.4559770000000  0.5658730000000 1.0
C      1  0.4779780000000  0.4719790000000  0.3868250000000 1.0
C      1  0.4628110000000  0.5367210000000  0.5541300000000 1.0
C      1  0.5568630000000  0.4590300000000  0.4902230000000 1.0
C      1  0.4575160000000  0.5259600000000  0.5257480000000 1.0
C      1  0.4110560000000  0.4499070000000  0.5108700000000 1.0
C      1  0.5656860000000  0.5314300000000  0.4228810000000 1.0
C      1  0.5597920000000  0.4684260000000  0.5781140000000 1.0
C      1  0.4429030000000  0.4923970000000  0.4921940000000 1.0
C      1  0.5841810000000  0.5126930000000  0.4941300000000 1.0
C      1  0.3845450000000  0.4854290000000  0.4847560000000 1.0
C      1  0.5359000000000  0.4505050000000  0.4409180000000 1.0
C      1  0.5553350000000  0.5485660000000  0.5354980000000 1.0
C      1  0.5694230000000  0.5144850000000  0.5201910000000 1.0
C      1  0.5869120000000  0.4621810000000  0.4499030000000 1.0
C      1  0.5233280000000  0.4375880000000  0.4918870000000 1.0
C      1  0.5650030000000  0.5880360000000  0.5627580000000 1.0
C      1  0.6095480000000  0.5458580000000  0.4598050000000 1.0
C      1  0.4702680000000  0.4320250000000  0.5008600000000 1.0
C      1  0.4183680000000  0.5271280000000  0.4222470000000 1.0
C      1  0.5522610000000  0.4885000000000  0.6019340000000 1.0
C      1  0.4406450000000  0.5022000000000  0.5216200000000 1.0
C      1  0.4027970000000  0.4388460000000  0.4675270000000 1.0
C      1  0.4550190000000  0.5218650000000  0.4349430000000 1.0
C      1  0.4423620000000  0.5411150000000  0.5802320000000 1.0
C      1  0.5097660000000  0.3934070000000  0.5233890000000 1.0
C      1  0.4368750000000  0.5718470000000  0.4863980000000 1.0
C      1  0.4136550000000  0.4821280000000  0.5003090000000 1.0
C      1  0.4694170000000  0.5388650000000  0.4606270000000 1.0
C      1  0.5354210000000  0.4687930000000  0.5543900000000 1.0
C      1  0.5743940000000  0.5669280000000  0.5141480000000 1.0
C      1  0.4930020000000  0.5028590000000  0.5563160000000 1.0
C      1  0.4096810000000  0.4991090000000  0.4409920000000 1.0
C      1  0.4847650000000  0.6074900000000  0.5172800000000 1.0
C      1  0.4796820000000  0.5391060000000  0.4918000000000 1.0
C      1  0.4736290000000  0.5002430000000  0.4534470000000 1.0
C      1  0.4014960000000  0.5392850000000  0.5408130000000 1.0
C      1  0.4616370000000  0.4345750000000  0.4709640000000 1.0
C      1  0.4331590000000  0.6036120000000  0.5098540000000 1.0
C      1  0.4708220000000  0.5132840000000  0.5770110000000 1.0
C      1  0.5132030000000  0.4035780000000  0.4473690000000 1.0
C      1  0.5028570000000  0.5862750000000  0.5740190000000 1.0
C      1  0.5316280000000  0.5148160000000  0.4516990000000 1.0
C      1  0.5033350000000  0.5693160000000  0.4812370000000 1.0
C      1  0.4991510000000  0.4354160000000  0.5146460000000 1.0
C      1  0.5252430000000  0.4841470000000  0.5262440000000 1.0
C      1  0.4358010000000  0.5652460000000  0.5613860000000 1.0
C      1  0.4630340000000  0.4347590000000  0.5587160000000 1.0
C      1  0.5799830000000  0.5487080000000  0.4443410000000 1.0
C      1  0.5732080000000  0.4008120000000  0.5235980000000 1.0
C      1  0.6156520000000  0.5297380000000  0.5116710000000 1.0
C      1  0.5202960000000  0.4434180000000  0.5605940000000 1.0
C      1  0.4667030000000  0.3933280000000  0.4648300000000 1.0
C      1  0.5744300000000  0.4255010000000  0.5488080000000 1.0
C      1  0.5814940000000  0.4627650000000  0.4178950000000 1.0
C      1  0.3924740000000  0.4712770000000  0.5396080000000 1.0
C      1  0.5380040000000  0.4519000000000  0.3934270000000 1.0
C      1  0.4221780000000  0.5769120000000  0.5168350000000 1.0
C      1  0.4668070000000  0.5765360000000  0.6005580000000 1.0
C      1  0.3986380000000  0.4710620000000  0.4572470000000 1.0
C      1  0.5359170000000  0.4337110000000  0.4146580000000 1.0
C      1  0.4939920000000  0.4729120000000  0.5592740000000 1.0
C      1  0.3867340000000  0.4354100000000  0.4920330000000 1.0
C      1  0.6215820000000  0.4756250000000  0.4781670000000 1.0
C      1  0.4755940000000  0.5726090000000  0.4960140000000 1.0
C      1  0.5244310000000  0.5079730000000  0.6032160000000 1.0
C      1  0.5636620000000  0.5964740000000  0.4636970000000 1.0
C      1  0.5723020000000  0.4643760000000  0.5171050000000 1.0
C      1  0.5329490000000  0.5047690000000  0.4809380000000 1.0
C      1  0.4479250000000  0.4915800000000  0.5643110000000 1.0
C      1  0.4629790000000  0.4697500000000  0.4893880000000 1.0
C      1  0.5544740000000  0.4271010000000  0.4831050000000 1.0
C      1  0.5247450000000  0.4078240000000  0.5010280000000 1.0
C      1  0.5966370000000  0.4926810000000  0.4270760000000 1.0
C      1  0.4166160000000  0.4919520000000  0.5517060000000 1.0
C      1  0.5108460000000  0.5533390000000  0.4052080000000 1.0
C      1  0.4549710000000  0.4478610000000  0.4235240000000 1.0
C      1  0.5096030000000  0.5489310000000  0.5270570000000 1.0
C      1  0.4847070000000  0.4445440000000  0.4303150000000 1.0
C      1  0.4181820000000  0.5369900000000  0.4919130000000 1.0
C      1  0.6186000000000  0.5433140000000  0.4827540000000 1.0
C      1  0.4856740000000  0.6176760000000  0.4888270000000 1.0
C      1  0.4360080000000  0.4981770000000  0.4194680000000 1.0
C      1  0.3746460000000  0.5122930000000  0.4917560000000 1.0
C      1  0.4861920000000  0.5154530000000  0.5272510000000 1.0
C      1  0.5191260000000  0.4587610000000  0.4685040000000 1.0
C      1  0.4939380000000  0.5355090000000  0.5891170000000 1.0
C      1  0.5137150000000  0.4246630000000  0.6021090000000 1.0
C      1  0.5561230000000  0.4348510000000  0.5218830000000 1.0
C      1  0.5370310000000  0.5865330000000  0.4362000000000 1.0
C      1  0.4626790000000  0.4470180000000  0.5904470000000 1.0
C      1  0.4598230000000  0.4047920000000  0.5133280000000 1.0
C      1  0.5247040000000  0.5663880000000  0.5020920000000 1.0
C      1  0.6101660000000  0.4978390000000  0.5012380000000 1.0
C      1  0.5195800000000  0.5165780000000  0.5304610000000 1.0
C      1  0.4200410000000  0.4766980000000  0.5887890000000 1.0
C      1  0.5305900000000  0.4767190000000  0.4950080000000 1.0
C      1  0.3799100000000  0.4635640000000  0.5105400000000 1.0
C      1  0.5435390000000  0.5007220000000  0.5576650000000 1.0
C      1  0.5638590000000  0.5036200000000  0.4721880000000 1.0
C      1  0.5512300000000  0.5415500000000  0.5649100000000 1.0
C      1  0.5327660000000  0.5843310000000  0.5642330000000 1.0
C      1  0.5384820000000  0.5654290000000  0.4625860000000 1.0
C      1  0.4918850000000  0.3808680000000  0.4566700000000 1.0
C      1  0.5211600000000  0.5523740000000  0.5647930000000 1.0
C      1  0.5083280000000  0.5971740000000  0.4309340000000 1.0
C      1  0.4199330000000  0.5198540000000  0.4625250000000 1.0
C      1  0.5281400000000  0.4082430000000  0.4194510000000 1.0
C      1  0.5797350000000  0.4143230000000  0.4972450000000 1.0
C      1  0.5623520000000  0.4660160000000  0.3931140000000 1.0
C      1  0.4141380000000  0.5053520000000  0.5889580000000 1.0
C      1  0.4496250000000  0.4118680000000  0.5416300000000 1.0
C      1  0.4909150000000  0.4418750000000  0.6010370000000 1.0
C      1  0.5328450000000  0.4281980000000  0.5810160000000 1.0
C      1  0.6014030000000  0.4312520000000  0.5031230000000 1.0
C      1  0.5364250000000  0.4227690000000  0.4573440000000 1.0
C      1  0.5628980000000  0.5142130000000  0.5814290000000 1.0
C      1  0.4990140000000  0.4426160000000  0.4024720000000 1.0
C      1  0.4082420000000  0.5040260000000  0.5231780000000 1.0
C      1  0.5614570000000  0.4355400000000  0.5753740000000 1.0
C      1  0.5695540000000  0.5779320000000  0.4411320000000 1.0
C      1  0.4370650000000  0.5200400000000  0.5971770000000 1.0
C      1  0.4256100000000  0.4187090000000  0.4658590000000 1.0
C      1  0.5703420000000  0.4744710000000  0.4686140000000 1.0
C      1  0.5409430000000  0.5303830000000  0.5105620000000 1.0
C      1  0.4845110000000  0.3856110000000  0.5209730000000 1.0
C      1  0.4795260000000  0.4984250000000  0.4002240000000 1.0
C      1  0.4962920000000  0.4685710000000  0.5892060000000 1.0
C      1  0.4976640000000  0.4985370000000  0.5000800000000 1.0
C      1  0.4455590000000  0.4834110000000  0.4485700000000 1.0
C      1  0.6016520000000  0.5544940000000  0.5303040000000 1.0
C      1  0.4691260000000  0.4609630000000  0.5186760000000 1.0
C      1  0.5327980000000  0.5959470000000  0.4764800000000 1.0
C      1  0.5542810000000  0.5543230000000  0.4904350000000 1.0
C      1  0.4469100000000  0.4703890000000  0.5981840000000 1.0
C      1  0.4404120000000  0.4587350000000  0.5596260000000 1.0
C      1  0.4498620000000  0.4763650000000  0.5348740000000 1.0
C      1  0.4938640000000  0.5552590000000  0.4548610000000 1.0
C      1  0.5118680000000  0.5281060000000  0.4930450000000 1.0
C      1  0.4946960000000  0.4972500000000  0.4278560000000 1.0
C      1  0.5410520000000  0.5495700000000  0.4160310000000 1.0
C      1  0.4122030000000  0.4370730000000  0.5392480000000 1.0
C      1  0.5943500000000  0.5245160000000  0.5385980000000 1.0
C      1  0.4106440000000  0.5517780000000  0.4639610000000 1.0
C      1  0.4653650000000  0.5744620000000  0.5666470000000 1.0
C      1  0.5206580000000  0.5442470000000  0.4428220000000 1.0
C      1  0.6049530000000  0.4647980000000  0.5074210000000 1.0
C      1  0.4929050000000  0.5732560000000  0.4123180000000 1.0
C      1  0.5384250000000  0.6019520000000  0.5364200000000 1.0
C      1  0.4953730000000  0.4934130000000  0.6037360000000 1.0
C      1  0.5642300000000  0.4874800000000  0.5340540000000 1.0
C      1  0.4479150000000  0.5448180000000  0.5025340000000 1.0
C      1  0.4846310000000  0.5848680000000  0.4495920000000 1.0
C      1  0.4896820000000  0.5541420000000  0.5541500000000 1.0
C      1  0.5797750000000  0.4841780000000  0.5612130000000 1.0
C      1  0.5355330000000  0.5958220000000  0.5100300000000 1.0
C      1  0.6141670000000  0.4756070000000  0.4506970000000 1.0
C      1  0.4940440000000  0.4763640000000  0.5256110000000 1.0
C      1  0.4227720000000  0.4128680000000  0.5433340000000 1.0
C      1  0.4515050000000  0.4706590000000  0.4067880000000 1.0
C      1  0.4424920000000  0.5511900000000  0.4264720000000 1.0
C      1  0.4658290000000  0.5676590000000  0.4103580000000 1.0
C      1  0.5534060000000  0.4732700000000  0.4314100000000 1.0
C      1  0.4966390000000  0.4684820000000  0.4461540000000 1.0
C      1  0.4366710000000  0.4496780000000  0.4884520000000 1.0
C      1  0.4917550000000  0.5766440000000  0.5219690000000 1.0
C      1  0.5115570000000  0.5227910000000  0.4180500000000 1.0
C      1  0.6032220000000  0.4347880000000  0.5337120000000 1.0
C      1  0.5428880000000  0.5360740000000  0.5981020000000 1.0
END
