TITL C-2847959-7740-171 0.000201030934554053 125000 -364.928192614468 0 0 68 (C1) n - 1
REM
REM in /home/bkarasulu/work/CARBON/AIRSS/Generating-Clusters/AIREBO/with-SteepDescent/Only-C1/SD-CG-opt/Try1-1.4A-POS3A/HFTN-CG
REM
REM
REM
REM
REM
REM ./C.cell (11c1c37f851c82e70ff6c80c92926a4b)
REM
REM compiler GCC version 9.2.1 20190827 (Red Hat 9.2.1-1)
REM options -cpp -mtune=generic -march=x86-64 -g -O0 -fpre-include=/usr/include/finclude/math-vector-fortran.h
REM seed -927005393 1280817626 803747684 557694116 -1922410414 1462960605 1241442080 1653610695 1834016946 -575683607 1021936628 2091589238 1740114459 463905541 1255477017 -1951452692 -1620015049 -1522026681 235422941 96646958 -1530440977 1172474499 -1098640959 85239150 -246945035 728025902 1475732200 -1250147735 -1037954254 -768959674 430330942 -1141359407 29149864
REM
CELL 1.54180   50.00000   50.00000   50.00000   90.00000   90.00000   90.00000
LATT -1
SFAC C  
C      1  0.5197800000000  0.4634140000000  0.4282410000000 1.0
C      1  0.4789830000000  0.4783840000000  0.5381730000000 1.0
C      1  0.4431660000000  0.5311410000000  0.4682400000000 1.0
C      1  0.4227270000000  0.5381570000000  0.4848210000000 1.0
C      1  0.5021020000000  0.5184650000000  0.4625970000000 1.0
C      1  0.4853980000000  0.5476840000000  0.4854040000000 1.0
C      1  0.4449120000000  0.5221720000000  0.5580040000000 1.0
C      1  0.5393150000000  0.5503270000000  0.5284070000000 1.0
C      1  0.5640480000000  0.4684590000000  0.5180510000000 1.0
C      1  0.5084970000000  0.5481780000000  0.5036230000000 1.0
C      1  0.4931980000000  0.5092740000000  0.5382400000000 1.0
C      1  0.4653710000000  0.4487180000000  0.5286490000000 1.0
C      1  0.5108970000000  0.4601820000000  0.4834410000000 1.0
C      1  0.4682200000000  0.5112510000000  0.4348520000000 1.0
C      1  0.5322470000000  0.5648290000000  0.4620990000000 1.0
C      1  0.4722810000000  0.5169850000000  0.4788770000000 1.0
C      1  0.4414450000000  0.4687640000000  0.4907430000000 1.0
C      1  0.5717310000000  0.5096090000000  0.4860350000000 1.0
C      1  0.5401600000000  0.4721230000000  0.4746990000000 1.0
C      1  0.5129930000000  0.5097860000000  0.5659090000000 1.0
C      1  0.4866190000000  0.5497460000000  0.5534390000000 1.0
C      1  0.4327730000000  0.5393200000000  0.5316010000000 1.0
C      1  0.5266290000000  0.4505230000000  0.5188960000000 1.0
C      1  0.4656770000000  0.5149550000000  0.5790530000000 1.0
C      1  0.5356840000000  0.5590370000000  0.4928980000000 1.0
C      1  0.4272950000000  0.4757880000000  0.5356880000000 1.0
C      1  0.4379470000000  0.4571320000000  0.5181180000000 1.0
C      1  0.5053990000000  0.4775740000000  0.5591200000000 1.0
C      1  0.4747160000000  0.4894330000000  0.4590600000000 1.0
C      1  0.4583640000000  0.5522740000000  0.5468580000000 1.0
C      1  0.5348630000000  0.4998760000000  0.5443420000000 1.0
C      1  0.5590100000000  0.5403400000000  0.4789330000000 1.0
C      1  0.5540990000000  0.5325200000000  0.4462060000000 1.0
C      1  0.5080300000000  0.5543430000000  0.5361450000000 1.0
C      1  0.5273910000000  0.4970930000000  0.4939910000000 1.0
C      1  0.4869410000000  0.5137330000000  0.4142660000000 1.0
C      1  0.5532940000000  0.5029210000000  0.4411430000000 1.0
C      1  0.4673270000000  0.4882320000000  0.5889670000000 1.0
C      1  0.4894340000000  0.4569650000000  0.5060770000000 1.0
C      1  0.4609750000000  0.5363560000000  0.4458100000000 1.0
C      1  0.5250810000000  0.4952440000000  0.4345020000000 1.0
C      1  0.5335540000000  0.4354910000000  0.4891890000000 1.0
C      1  0.5926150000000  0.5368710000000  0.4828610000000 1.0
C      1  0.4624470000000  0.4625230000000  0.4716730000000 1.0
C      1  0.5116860000000  0.5196140000000  0.4238770000000 1.0
C      1  0.5311690000000  0.4482830000000  0.4516450000000 1.0
C      1  0.5125020000000  0.5454650000000  0.4447310000000 1.0
C      1  0.4800910000000  0.4661080000000  0.5759080000000 1.0
C      1  0.4896350000000  0.5287240000000  0.5728640000000 1.0
C      1  0.4826720000000  0.5523590000000  0.4555210000000 1.0
C      1  0.4958630000000  0.4892940000000  0.5041010000000 1.0
C      1  0.4807330000000  0.4360400000000  0.4733810000000 1.0
C      1  0.4348840000000  0.4962410000000  0.5023480000000 1.0
C      1  0.4689110000000  0.4442810000000  0.5621790000000 1.0
C      1  0.5624130000000  0.4467210000000  0.5019310000000 1.0
C      1  0.4719930000000  0.5077600000000  0.5116890000000 1.0
C      1  0.4466990000000  0.5020920000000  0.5336920000000 1.0
C      1  0.5172230000000  0.4763670000000  0.5272240000000 1.0
C      1  0.5159360000000  0.5205380000000  0.5158290000000 1.0
C      1  0.5541340000000  0.4743290000000  0.5442380000000 1.0
C      1  0.5045330000000  0.4778610000000  0.4553020000000 1.0
C      1  0.5325950000000  0.5207970000000  0.4701750000000 1.0
C      1  0.4243390000000  0.5245740000000  0.5093380000000 1.0
C      1  0.5567720000000  0.4994290000000  0.5109540000000 1.0
C      1  0.5627190000000  0.4900920000000  0.4645480000000 1.0
C      1  0.5119920000000  0.4257900000000  0.4647080000000 1.0
C      1  0.5515830000000  0.5248740000000  0.5326330000000 1.0
C      1  0.4752890000000  0.4261730000000  0.5032450000000 1.0
END
