TITL C-2848497-6229-731 4.23292884818833e-05 125000 -505.741279751727 0 0 95 (C1) n - 1
REM
REM in /home/bkarasulu/work/CARBON/AIRSS/Generating-Clusters/AIREBO/with-SteepDescent/Only-C1/SD-CG-opt/Try1-1.4A-POS3A/HFTN-CG
REM
REM
REM
REM
REM
REM ./C.cell (11c1c37f851c82e70ff6c80c92926a4b)
REM
REM compiler GCC version 9.2.1 20190827 (Red Hat 9.2.1-1)
REM options -cpp -mtune=generic -march=x86-64 -g -O0 -fpre-include=/usr/include/finclude/math-vector-fortran.h
REM seed 1941621340 631547170 443403949 1347259191 262319236 753878314 19458418 -748754086 -747636768 159761789 -1652012745 -1148355929 1145044858 -252477550 -519489504 -1300635075 355654055 -850017476 563592146 986433020 1162503353 -48351603 1329916019 1328944293 1748725972 100488576 1011415166 -1870829950 -1140360427 1317326889 1507695134 -1905582187 947541398
REM
CELL 1.54180   50.00000   50.00000   50.00000   90.00000   90.00000   90.00000
LATT -1
SFAC C  
C      1  0.5419740000000  0.4990730000000  0.5070140000000 1.0
C      1  0.5588530000000  0.5623430000000  0.5222800000000 1.0
C      1  0.4451010000000  0.4846600000000  0.4798250000000 1.0
C      1  0.5205610000000  0.4604700000000  0.4839480000000 1.0
C      1  0.4803580000000  0.5748780000000  0.5530040000000 1.0
C      1  0.4554230000000  0.5386780000000  0.5158620000000 1.0
C      1  0.5089490000000  0.5424040000000  0.5153180000000 1.0
C      1  0.4952060000000  0.5152160000000  0.4420150000000 1.0
C      1  0.4750810000000  0.5217100000000  0.5378170000000 1.0
C      1  0.4698870000000  0.4678880000000  0.4754020000000 1.0
C      1  0.5659630000000  0.4985800000000  0.4858240000000 1.0
C      1  0.4463520000000  0.5588410000000  0.4693030000000 1.0
C      1  0.5339730000000  0.5224640000000  0.4668010000000 1.0
C      1  0.4598590000000  0.5289150000000  0.4225220000000 1.0
C      1  0.5566580000000  0.4997240000000  0.4556470000000 1.0
C      1  0.4707000000000  0.3988860000000  0.4566000000000 1.0
C      1  0.4470040000000  0.5546350000000  0.5446880000000 1.0
C      1  0.4769340000000  0.5563130000000  0.4787580000000 1.0
C      1  0.4992430000000  0.4775600000000  0.5199790000000 1.0
C      1  0.5024670000000  0.5108490000000  0.5262000000000 1.0
C      1  0.4186230000000  0.4890090000000  0.4633850000000 1.0
C      1  0.5706310000000  0.5868500000000  0.5270720000000 1.0
C      1  0.4489540000000  0.5773630000000  0.5225500000000 1.0
C      1  0.5626690000000  0.4788060000000  0.5394440000000 1.0
C      1  0.4784400000000  0.4556700000000  0.5059810000000 1.0
C      1  0.5201470000000  0.5451320000000  0.4329470000000 1.0
C      1  0.5820050000000  0.5351320000000  0.4836790000000 1.0
C      1  0.4535690000000  0.4726080000000  0.5695110000000 1.0
C      1  0.5510090000000  0.4762700000000  0.5881270000000 1.0
C      1  0.5028270000000  0.4238030000000  0.4208400000000 1.0
C      1  0.4888470000000  0.5486170000000  0.4414780000000 1.0
C      1  0.5530330000000  0.5435850000000  0.5463970000000 1.0
C      1  0.5543790000000  0.5508460000000  0.5713510000000 1.0
C      1  0.5435730000000  0.4269670000000  0.5451290000000 1.0
C      1  0.4710420000000  0.4534340000000  0.5503830000000 1.0
C      1  0.4890780000000  0.5080450000000  0.4964200000000 1.0
C      1  0.5271920000000  0.5741570000000  0.4761740000000 1.0
C      1  0.3961010000000  0.4930190000000  0.5078350000000 1.0
C      1  0.4298710000000  0.4393630000000  0.4998970000000 1.0
C      1  0.5477350000000  0.4726810000000  0.4480170000000 1.0
C      1  0.4950990000000  0.4492980000000  0.4702140000000 1.0
C      1  0.4929920000000  0.4881930000000  0.4621300000000 1.0
C      1  0.5015920000000  0.5258020000000  0.4717040000000 1.0
C      1  0.5073160000000  0.4940990000000  0.4198900000000 1.0
C      1  0.4683310000000  0.5488180000000  0.5664010000000 1.0
C      1  0.5015750000000  0.5882190000000  0.4935670000000 1.0
C      1  0.5462990000000  0.4842460000000  0.5624480000000 1.0
C      1  0.5199320000000  0.4186690000000  0.4700900000000 1.0
C      1  0.5575540000000  0.4510530000000  0.5255380000000 1.0
C      1  0.5631740000000  0.5386820000000  0.4603950000000 1.0
C      1  0.4446950000000  0.5011000000000  0.4227660000000 1.0
C      1  0.4969640000000  0.5741460000000  0.4626170000000 1.0
C      1  0.4748770000000  0.5002000000000  0.4116870000000 1.0
C      1  0.4556580000000  0.5533050000000  0.4411350000000 1.0
C      1  0.4742510000000  0.4935140000000  0.5859430000000 1.0
C      1  0.4333860000000  0.4848380000000  0.5535350000000 1.0
C      1  0.4770100000000  0.4289130000000  0.5303360000000 1.0
C      1  0.4541300000000  0.4333780000000  0.5087070000000 1.0
C      1  0.5498750000000  0.4566320000000  0.4710100000000 1.0
C      1  0.5230350000000  0.5239440000000  0.4147970000000 1.0
C      1  0.5936580000000  0.5064080000000  0.4962220000000 1.0
C      1  0.4926780000000  0.4867920000000  0.5581970000000 1.0
C      1  0.5289900000000  0.4234080000000  0.4961840000000 1.0
C      1  0.5182420000000  0.4380350000000  0.5253290000000 1.0
C      1  0.4816510000000  0.5256640000000  0.5770700000000 1.0
C      1  0.4381170000000  0.5631350000000  0.4968520000000 1.0
C      1  0.4815030000000  0.5848930000000  0.5205050000000 1.0
C      1  0.4558930000000  0.5106480000000  0.4966110000000 1.0
C      1  0.4677400000000  0.5262230000000  0.4685110000000 1.0
C      1  0.3963410000000  0.4909990000000  0.4803810000000 1.0
C      1  0.5235950000000  0.4681680000000  0.4332590000000 1.0
C      1  0.4964310000000  0.4085230000000  0.5411600000000 1.0
C      1  0.4707770000000  0.4822400000000  0.5348820000000 1.0
C      1  0.5471620000000  0.5158300000000  0.5361510000000 1.0
C      1  0.5207380000000  0.5041650000000  0.5540880000000 1.0
C      1  0.4460490000000  0.4960880000000  0.5240090000000 1.0
C      1  0.5739120000000  0.5198440000000  0.4346810000000 1.0
C      1  0.5035540000000  0.4453030000000  0.5551740000000 1.0
C      1  0.5157320000000  0.4917790000000  0.4865160000000 1.0
C      1  0.4930780000000  0.4642430000000  0.5816710000000 1.0
C      1  0.4234570000000  0.4658040000000  0.4954940000000 1.0
C      1  0.5390300000000  0.5584190000000  0.4507930000000 1.0
C      1  0.5300410000000  0.4684130000000  0.5156210000000 1.0
C      1  0.5527980000000  0.4401540000000  0.4958140000000 1.0
C      1  0.5735890000000  0.5355880000000  0.5131530000000 1.0
C      1  0.4834970000000  0.5557050000000  0.5081140000000 1.0
C      1  0.5096630000000  0.5267360000000  0.5746590000000 1.0
C      1  0.5348130000000  0.5603480000000  0.5037160000000 1.0
C      1  0.5228520000000  0.4063330000000  0.5490880000000 1.0
C      1  0.5769160000000  0.5040220000000  0.5258100000000 1.0
C      1  0.4888360000000  0.4161390000000  0.4660390000000 1.0
C      1  0.4140620000000  0.4883890000000  0.5280160000000 1.0
C      1  0.4228720000000  0.4914330000000  0.4360140000000 1.0
C      1  0.5320140000000  0.5287250000000  0.4972410000000 1.0
C      1  0.5117040000000  0.4389120000000  0.4426420000000 1.0
END
