TITL C-2848500-1637-500 0.00329463951031022 125000 -804.415764312762 0 0 141 (C1) n - 1
REM
REM in /home/bkarasulu/work/CARBON/AIRSS/Generating-Clusters/AIREBO/with-SteepDescent/Only-C1/SD-CG-opt/Try1-1.4A-POS3A/HFTN-CG
REM
REM
REM
REM
REM
REM ./C.cell (11c1c37f851c82e70ff6c80c92926a4b)
REM
REM compiler GCC version 9.2.1 20190827 (Red Hat 9.2.1-1)
REM options -cpp -mtune=generic -march=x86-64 -g -O0 -fpre-include=/usr/include/finclude/math-vector-fortran.h
REM seed -100108072 -2008618543 767439386 829553316 902054743 -1214862306 -906008017 -1780287187 595756646 -1638172374 85154109 747917316 912307145 -2103832230 -1483134118 920716510 -1770271785 -1046273160 1059903869 802901369 2132793883 1923201383 -1716342034 -1892366326 412953143 -1511345076 -505870322 -1395019608 -2059254410 -978415900 1516500212 628214971 834617882
REM
CELL 1.54180   50.00000   50.00000   50.00000   90.00000   90.00000   90.00000
LATT -1
SFAC C  
C      1  0.4637280000000  0.5624950000000  0.5291740000000 1.0
C      1  0.4485260000000  0.4544070000000  0.5706000000000 1.0
C      1  0.4676190000000  0.4904570000000  0.4993020000000 1.0
C      1  0.4798760000000  0.5160580000000  0.4187280000000 1.0
C      1  0.4980550000000  0.5660550000000  0.4226050000000 1.0
C      1  0.5938280000000  0.5681280000000  0.5007710000000 1.0
C      1  0.4289680000000  0.4629480000000  0.5449910000000 1.0
C      1  0.4386030000000  0.4913340000000  0.5903460000000 1.0
C      1  0.4702430000000  0.5290840000000  0.5285010000000 1.0
C      1  0.5665920000000  0.4231510000000  0.5085840000000 1.0
C      1  0.4034160000000  0.4775300000000  0.4974990000000 1.0
C      1  0.4203470000000  0.5217400000000  0.5220340000000 1.0
C      1  0.4660720000000  0.4069780000000  0.4597950000000 1.0
C      1  0.4379080000000  0.5732760000000  0.4683440000000 1.0
C      1  0.5505110000000  0.4324720000000  0.5366730000000 1.0
C      1  0.5890660000000  0.5202960000000  0.4740820000000 1.0
C      1  0.5575620000000  0.4617870000000  0.5779350000000 1.0
C      1  0.4713460000000  0.5033150000000  0.5712820000000 1.0
C      1  0.5267440000000  0.4770660000000  0.5435230000000 1.0
C      1  0.4933710000000  0.4586210000000  0.5951480000000 1.0
C      1  0.3995790000000  0.5558380000000  0.4381560000000 1.0
C      1  0.3925330000000  0.5153520000000  0.4664980000000 1.0
C      1  0.4570350000000  0.4450970000000  0.5379180000000 1.0
C      1  0.4222300000000  0.4800170000000  0.4480200000000 1.0
C      1  0.5988670000000  0.4603450000000  0.5215650000000 1.0
C      1  0.4059860000000  0.4844950000000  0.5476610000000 1.0
C      1  0.5292370000000  0.5532290000000  0.5090860000000 1.0
C      1  0.4579470000000  0.3946500000000  0.5276550000000 1.0
C      1  0.6079180000000  0.5479340000000  0.5195630000000 1.0
C      1  0.5774530000000  0.4876870000000  0.5817190000000 1.0
C      1  0.5248530000000  0.4656890000000  0.5854990000000 1.0
C      1  0.5184130000000  0.5980990000000  0.5450630000000 1.0
C      1  0.5913990000000  0.4368010000000  0.5031590000000 1.0
C      1  0.4822480000000  0.4199110000000  0.4365570000000 1.0
C      1  0.4208350000000  0.5015100000000  0.4689410000000 1.0
C      1  0.5599970000000  0.5268550000000  0.5410370000000 1.0
C      1  0.4415200000000  0.4887450000000  0.5295430000000 1.0
C      1  0.5356420000000  0.5026970000000  0.4177680000000 1.0
C      1  0.4265570000000  0.5644870000000  0.4372930000000 1.0
C      1  0.4913480000000  0.5707990000000  0.4746250000000 1.0
C      1  0.4856400000000  0.4486230000000  0.4769250000000 1.0
C      1  0.4621060000000  0.4579940000000  0.4555830000000 1.0
C      1  0.4549240000000  0.5320820000000  0.5754420000000 1.0
C      1  0.4555820000000  0.4594380000000  0.5063500000000 1.0
C      1  0.5071390000000  0.4544120000000  0.5428010000000 1.0
C      1  0.4402790000000  0.5714850000000  0.5514920000000 1.0
C      1  0.5014190000000  0.5675600000000  0.5069450000000 1.0
C      1  0.5917000000000  0.4524060000000  0.4779150000000 1.0
C      1  0.5321630000000  0.5304950000000  0.4157240000000 1.0
C      1  0.5630750000000  0.4988520000000  0.5286390000000 1.0
C      1  0.4727020000000  0.5239930000000  0.4968120000000 1.0
C      1  0.5584000000000  0.4672180000000  0.4465040000000 1.0
C      1  0.5342050000000  0.5945120000000  0.4803200000000 1.0
C      1  0.5071720000000  0.4639360000000  0.4305120000000 1.0
C      1  0.4899410000000  0.4193040000000  0.4756960000000 1.0
C      1  0.5330490000000  0.4926040000000  0.5139450000000 1.0
C      1  0.5681400000000  0.4778830000000  0.5510850000000 1.0
C      1  0.3834850000000  0.4899410000000  0.4771330000000 1.0
C      1  0.5274610000000  0.4945190000000  0.5727230000000 1.0
C      1  0.4830370000000  0.4013090000000  0.5394060000000 1.0
C      1  0.4266880000000  0.4537340000000  0.4901060000000 1.0
C      1  0.6046080000000  0.4953160000000  0.4590940000000 1.0
C      1  0.4470340000000  0.5629100000000  0.4995480000000 1.0
C      1  0.4815760000000  0.4732910000000  0.4104930000000 1.0
C      1  0.5427780000000  0.5850820000000  0.5535740000000 1.0
C      1  0.5527890000000  0.4961260000000  0.4429740000000 1.0
C      1  0.5249360000000  0.5374960000000  0.4650160000000 1.0
C      1  0.4419110000000  0.4072620000000  0.4742290000000 1.0
C      1  0.5787450000000  0.5509540000000  0.5335430000000 1.0
C      1  0.4803540000000  0.4697630000000  0.5358230000000 1.0
C      1  0.4335540000000  0.4235330000000  0.4962270000000 1.0
C      1  0.4674640000000  0.4737830000000  0.5861910000000 1.0
C      1  0.5394720000000  0.5224170000000  0.4988710000000 1.0
C      1  0.4582620000000  0.5932530000000  0.5042140000000 1.0
C      1  0.6136870000000  0.5204670000000  0.5151900000000 1.0
C      1  0.4436010000000  0.5181010000000  0.5465820000000 1.0
C      1  0.5509020000000  0.4472570000000  0.4286090000000 1.0
C      1  0.6098130000000  0.4750030000000  0.4776850000000 1.0
C      1  0.4834000000000  0.5962690000000  0.5041520000000 1.0
C      1  0.5418410000000  0.5493460000000  0.4400110000000 1.0
C      1  0.4558520000000  0.4955110000000  0.4094650000000 1.0
C      1  0.4922120000000  0.5221650000000  0.4482670000000 1.0
C      1  0.5155140000000  0.5847850000000  0.4623210000000 1.0
C      1  0.5114310000000  0.4193900000000  0.4420450000000 1.0
C      1  0.4252970000000  0.4968660000000  0.5658390000000 1.0
C      1  0.5032290000000  0.5370260000000  0.4198300000000 1.0
C      1  0.4712770000000  0.5707150000000  0.4301550000000 1.0
C      1  0.5373800000000  0.5081000000000  0.4680980000000 1.0
C      1  0.4288680000000  0.4853850000000  0.4223270000000 1.0
C      1  0.5129140000000  0.5064290000000  0.5461420000000 1.0
C      1  0.5476810000000  0.4660080000000  0.4985210000000 1.0
C      1  0.5014380000000  0.4377160000000  0.5702630000000 1.0
C      1  0.5355670000000  0.4392690000000  0.5664650000000 1.0
C      1  0.4819750000000  0.5001470000000  0.5429550000000 1.0
C      1  0.5821110000000  0.5523090000000  0.4762150000000 1.0
C      1  0.4512050000000  0.5153830000000  0.4726950000000 1.0
C      1  0.5684180000000  0.5375640000000  0.5036250000000 1.0
C      1  0.4585970000000  0.5606710000000  0.5710190000000 1.0
C      1  0.4330160000000  0.4573670000000  0.4602840000000 1.0
C      1  0.4782930000000  0.4246070000000  0.5547950000000 1.0
C      1  0.4715480000000  0.4465810000000  0.4290740000000 1.0
C      1  0.3948950000000  0.5426780000000  0.4629950000000 1.0
C      1  0.5240480000000  0.4402540000000  0.4288630000000 1.0
C      1  0.5654600000000  0.4605230000000  0.4719460000000 1.0
C      1  0.4993180000000  0.4720540000000  0.4575870000000 1.0
C      1  0.5080770000000  0.5005350000000  0.4634420000000 1.0
C      1  0.4336460000000  0.4919990000000  0.4990390000000 1.0
C      1  0.5467430000000  0.5781520000000  0.4990820000000 1.0
C      1  0.4438420000000  0.4185620000000  0.5212170000000 1.0
C      1  0.4674260000000  0.5768610000000  0.4574560000000 1.0
C      1  0.5930620000000  0.5008220000000  0.5967120000000 1.0
C      1  0.5064550000000  0.3996310000000  0.4964280000000 1.0
C      1  0.5020870000000  0.4876230000000  0.5007920000000 1.0
C      1  0.5130610000000  0.4869350000000  0.4097220000000 1.0
C      1  0.5200900000000  0.4285410000000  0.5312970000000 1.0
C      1  0.4333140000000  0.5328440000000  0.4957960000000 1.0
C      1  0.4027800000000  0.4981290000000  0.5234190000000 1.0
C      1  0.4928840000000  0.5778600000000  0.5380100000000 1.0
C      1  0.5660470000000  0.4590820000000  0.5258200000000 1.0
C      1  0.5839210000000  0.5073480000000  0.5052910000000 1.0
C      1  0.6092360000000  0.4849250000000  0.5068750000000 1.0
C      1  0.5716690000000  0.5833210000000  0.5114480000000 1.0
C      1  0.5713750000000  0.5435100000000  0.4470730000000 1.0
C      1  0.4895400000000  0.4579010000000  0.5055840000000 1.0
C      1  0.4513480000000  0.5292150000000  0.4148710000000 1.0
C      1  0.5788830000000  0.5116220000000  0.4437200000000 1.0
C      1  0.4704100000000  0.4876620000000  0.4664200000000 1.0
C      1  0.4479780000000  0.5560810000000  0.4204760000000 1.0
C      1  0.5233990000000  0.4168510000000  0.4737820000000 1.0
C      1  0.4936980000000  0.5383940000000  0.4766560000000 1.0
C      1  0.5213340000000  0.5741100000000  0.4375700000000 1.0
C      1  0.4831260000000  0.5718640000000  0.5687040000000 1.0
C      1  0.5434290000000  0.4332060000000  0.4904120000000 1.0
C      1  0.5683680000000  0.5821340000000  0.5412660000000 1.0
C      1  0.5024040000000  0.5340340000000  0.5345110000000 1.0
C      1  0.4446180000000  0.5164270000000  0.6022070000000 1.0
C      1  0.4915920000000  0.4476110000000  0.6233960000000 1.0
C      1  0.5332010000000  0.5402120000000  0.5402540000000 1.0
C      1  0.4138490000000  0.5535630000000  0.4806460000000 1.0
C      1  0.5346770000000  0.5598600000000  0.5641170000000 1.0
C      1  0.5058710000000  0.4057020000000  0.5233680000000 1.0
END
