TITL C-2847950-6905-319 -0.000533102123169795 125000 -861.822355128676 0 0 161 (C1) n - 1
REM
REM in /home/bkarasulu/work/CARBON/AIRSS/Generating-Clusters/AIREBO/with-SteepDescent/Only-C1/SD-CG-opt/Try1-1.4A-POS3A/HFTN-CG
REM
REM
REM
REM
REM
REM ./C.cell (11c1c37f851c82e70ff6c80c92926a4b)
REM
REM compiler GCC version 9.2.1 20190827 (Red Hat 9.2.1-1)
REM options -cpp -mtune=generic -march=x86-64 -g -O0 -fpre-include=/usr/include/finclude/math-vector-fortran.h
REM seed 1800814463 -103826811 -2029813199 -456015800 -1665554385 -1988560835 -1231740530 -648151541 -1750629905 -824222391 2015217376 -2091439096 2030081791 2089624100 776542617 1883254567 1374574952 73457035 1456020569 -914806406 -1893191885 1876226007 1595180128 -619944994 1046633843 -80319283 1489681854 -2103648871 -4725517 1947098915 -533478486 -580277623 -576623903
REM
CELL 1.54180   50.00000   50.00000   50.00000   90.00000   90.00000   90.00000
LATT -1
SFAC C  
C      1  0.5628620000000  0.4696010000000  0.4983030000000 1.0
C      1  0.5669610000000  0.5644250000000  0.4424650000000 1.0
C      1  0.5580180000000  0.5509980000000  0.5973970000000 1.0
C      1  0.4040970000000  0.4577970000000  0.4634340000000 1.0
C      1  0.5262640000000  0.5628120000000  0.4287630000000 1.0
C      1  0.5968760000000  0.5010200000000  0.5541260000000 1.0
C      1  0.5564460000000  0.4337130000000  0.5468760000000 1.0
C      1  0.5177680000000  0.3963440000000  0.4586480000000 1.0
C      1  0.5555430000000  0.5045080000000  0.4695980000000 1.0
C      1  0.4636010000000  0.5430360000000  0.5496620000000 1.0
C      1  0.5447500000000  0.4341410000000  0.4754060000000 1.0
C      1  0.5243570000000  0.4866840000000  0.5314260000000 1.0
C      1  0.4359210000000  0.4154780000000  0.5207980000000 1.0
C      1  0.4867510000000  0.5630760000000  0.5562970000000 1.0
C      1  0.4957560000000  0.5126060000000  0.3975900000000 1.0
C      1  0.4765870000000  0.4281380000000  0.4318680000000 1.0
C      1  0.5299320000000  0.5730610000000  0.5683810000000 1.0
C      1  0.5064420000000  0.5741350000000  0.4092570000000 1.0
C      1  0.5144210000000  0.6009150000000  0.5334700000000 1.0
C      1  0.4221380000000  0.5524840000000  0.4812540000000 1.0
C      1  0.4255660000000  0.4513650000000  0.5612600000000 1.0
C      1  0.4175300000000  0.5901830000000  0.4991490000000 1.0
C      1  0.5908090000000  0.5195130000000  0.4568420000000 1.0
C      1  0.5130760000000  0.3953140000000  0.4923150000000 1.0
C      1  0.5111550000000  0.5611710000000  0.5878030000000 1.0
C      1  0.4634010000000  0.4637500000000  0.6012530000000 1.0
C      1  0.4781630000000  0.5220120000000  0.5988680000000 1.0
C      1  0.4930970000000  0.4516930000000  0.5538720000000 1.0
C      1  0.5704700000000  0.5483920000000  0.5719240000000 1.0
C      1  0.4618910000000  0.4103120000000  0.4748490000000 1.0
C      1  0.4937100000000  0.5162290000000  0.4981460000000 1.0
C      1  0.4178480000000  0.5468750000000  0.5264320000000 1.0
C      1  0.4770480000000  0.4356770000000  0.5017050000000 1.0
C      1  0.5182950000000  0.4279010000000  0.6093920000000 1.0
C      1  0.4373610000000  0.4568690000000  0.4827670000000 1.0
C      1  0.4575540000000  0.5909640000000  0.5280480000000 1.0
C      1  0.5755380000000  0.5358830000000  0.4312260000000 1.0
C      1  0.5320430000000  0.4412590000000  0.5058130000000 1.0
C      1  0.5354960000000  0.4367790000000  0.4285280000000 1.0
C      1  0.4878840000000  0.5757390000000  0.4719810000000 1.0
C      1  0.5000380000000  0.4757420000000  0.4364120000000 1.0
C      1  0.4145270000000  0.4110870000000  0.4980500000000 1.0
C      1  0.5200920000000  0.4708230000000  0.5612150000000 1.0
C      1  0.5776120000000  0.5934100000000  0.5136880000000 1.0
C      1  0.5534040000000  0.4583460000000  0.4337210000000 1.0
C      1  0.5771340000000  0.4320030000000  0.5264870000000 1.0
C      1  0.5024570000000  0.4505300000000  0.5168440000000 1.0
C      1  0.3916300000000  0.5033160000000  0.4885920000000 1.0
C      1  0.5292910000000  0.4747250000000  0.4999790000000 1.0
C      1  0.5360830000000  0.5959610000000  0.5512820000000 1.0
C      1  0.4693390000000  0.5242170000000  0.4155780000000 1.0
C      1  0.5768980000000  0.4353070000000  0.4761720000000 1.0
C      1  0.5191580000000  0.5596100000000  0.4909560000000 1.0
C      1  0.4968680000000  0.5599610000000  0.5166740000000 1.0
C      1  0.5645680000000  0.5902190000000  0.5386460000000 1.0
C      1  0.4878530000000  0.5849440000000  0.5345930000000 1.0
C      1  0.5794950000000  0.5213260000000  0.4869400000000 1.0
C      1  0.4698670000000  0.4797820000000  0.4503660000000 1.0
C      1  0.5888670000000  0.4642730000000  0.4629850000000 1.0
C      1  0.4545020000000  0.4720510000000  0.5069690000000 1.0
C      1  0.5550620000000  0.5914880000000  0.4595240000000 1.0
C      1  0.4489200000000  0.5469570000000  0.5015830000000 1.0
C      1  0.5330850000000  0.4194510000000  0.5398410000000 1.0
C      1  0.4187660000000  0.4297190000000  0.4749430000000 1.0
C      1  0.4646460000000  0.5570480000000  0.4556260000000 1.0
C      1  0.4819120000000  0.4543140000000  0.4172180000000 1.0
C      1  0.4829270000000  0.5751970000000  0.5853090000000 1.0
C      1  0.5358190000000  0.4085290000000  0.5077570000000 1.0
C      1  0.4742990000000  0.5259790000000  0.4490710000000 1.0
C      1  0.4323820000000  0.5488010000000  0.4534010000000 1.0
C      1  0.5050200000000  0.5203890000000  0.4580450000000 1.0
C      1  0.5171560000000  0.5195190000000  0.5225680000000 1.0
C      1  0.5556490000000  0.4712240000000  0.4651140000000 1.0
C      1  0.5441010000000  0.5266040000000  0.5418120000000 1.0
C      1  0.4468980000000  0.4315950000000  0.5690780000000 1.0
C      1  0.4264900000000  0.4778010000000  0.5691230000000 1.0
C      1  0.4672010000000  0.4586240000000  0.5337020000000 1.0
C      1  0.5432610000000  0.5378570000000  0.4872980000000 1.0
C      1  0.4554260000000  0.4671580000000  0.4111960000000 1.0
C      1  0.4570740000000  0.5059230000000  0.4677790000000 1.0
C      1  0.4069190000000  0.4779140000000  0.4873130000000 1.0
C      1  0.5001050000000  0.4175380000000  0.4422510000000 1.0
C      1  0.5862780000000  0.4572080000000  0.5167930000000 1.0
C      1  0.4688480000000  0.4951540000000  0.4954300000000 1.0
C      1  0.5184570000000  0.4819280000000  0.4090200000000 1.0
C      1  0.4539310000000  0.4951470000000  0.4241980000000 1.0
C      1  0.3883400000000  0.5044510000000  0.5533590000000 1.0
C      1  0.4273470000000  0.4419690000000  0.4443150000000 1.0
C      1  0.4149830000000  0.5264900000000  0.4368490000000 1.0
C      1  0.4948770000000  0.5436080000000  0.4780170000000 1.0
C      1  0.5729060000000  0.4922440000000  0.5752150000000 1.0
C      1  0.4670240000000  0.4388970000000  0.5882120000000 1.0
C      1  0.4817800000000  0.5533860000000  0.4032880000000 1.0
C      1  0.4163180000000  0.5020080000000  0.5520350000000 1.0
C      1  0.5584290000000  0.5259040000000  0.4027040000000 1.0
C      1  0.4214290000000  0.4729610000000  0.5148040000000 1.0
C      1  0.5731050000000  0.5871810000000  0.4880390000000 1.0
C      1  0.5055960000000  0.4220500000000  0.5523890000000 1.0
C      1  0.5365950000000  0.5078230000000  0.4972300000000 1.0
C      1  0.4453530000000  0.5474640000000  0.4219760000000 1.0
C      1  0.4876820000000  0.5026360000000  0.5537400000000 1.0
C      1  0.5062530000000  0.6022660000000  0.4832630000000 1.0
C      1  0.4366400000000  0.5174480000000  0.4924120000000 1.0
C      1  0.5211960000000  0.4481610000000  0.5851500000000 1.0
C      1  0.4933660000000  0.4182200000000  0.4813640000000 1.0
C      1  0.5482970000000  0.4800300000000  0.4163810000000 1.0
C      1  0.4744380000000  0.4913220000000  0.6132110000000 1.0
C      1  0.5428900000000  0.5675150000000  0.5139970000000 1.0
C      1  0.5346630000000  0.5178780000000  0.4488810000000 1.0
C      1  0.5221640000000  0.4688340000000  0.4596650000000 1.0
C      1  0.5539090000000  0.4701000000000  0.5577460000000 1.0
C      1  0.3657460000000  0.5048360000000  0.4827010000000 1.0
C      1  0.4562320000000  0.4320000000000  0.4539720000000 1.0
C      1  0.4918060000000  0.4808570000000  0.5279470000000 1.0
C      1  0.4843340000000  0.5661990000000  0.4334890000000 1.0
C      1  0.5062240000000  0.4948930000000  0.4746430000000 1.0
C      1  0.4860900000000  0.3932890000000  0.5117410000000 1.0
C      1  0.6072400000000  0.4926430000000  0.4570140000000 1.0
C      1  0.4973200000000  0.4681600000000  0.4904200000000 1.0
C      1  0.5144810000000  0.4481160000000  0.4115270000000 1.0
C      1  0.5123160000000  0.4385300000000  0.4661800000000 1.0
C      1  0.4551240000000  0.4165090000000  0.5468760000000 1.0
C      1  0.5596340000000  0.4846170000000  0.5279320000000 1.0
C      1  0.4246530000000  0.5048060000000  0.4290290000000 1.0
C      1  0.5515700000000  0.5595280000000  0.5459110000000 1.0
C      1  0.4475850000000  0.4827930000000  0.5850460000000 1.0
C      1  0.4949410000000  0.4265670000000  0.5844690000000 1.0
C      1  0.5243210000000  0.5952860000000  0.5074300000000 1.0
C      1  0.5327610000000  0.5428750000000  0.6026700000000 1.0
C      1  0.4350930000000  0.4475560000000  0.5317150000000 1.0
C      1  0.4525700000000  0.5336570000000  0.5792850000000 1.0
C      1  0.5841300000000  0.4855820000000  0.4369140000000 1.0
C      1  0.5601700000000  0.5055750000000  0.4299070000000 1.0
C      1  0.5977500000000  0.5049790000000  0.5054140000000 1.0
C      1  0.5259150000000  0.5140620000000  0.4012930000000 1.0
C      1  0.5277790000000  0.6106420000000  0.4594300000000 1.0
C      1  0.5038130000000  0.5910640000000  0.4452780000000 1.0
C      1  0.5820740000000  0.5244410000000  0.5683400000000 1.0
C      1  0.4614890000000  0.5071360000000  0.5325310000000 1.0
C      1  0.5681790000000  0.4178160000000  0.5029890000000 1.0
C      1  0.4817800000000  0.4195210000000  0.5313110000000 1.0
C      1  0.5697600000000  0.5484310000000  0.5051590000000 1.0
C      1  0.5887940000000  0.4953150000000  0.5285340000000 1.0
C      1  0.4702410000000  0.4553840000000  0.4743030000000 1.0
C      1  0.4325870000000  0.4517300000000  0.4155220000000 1.0
C      1  0.5437630000000  0.5029650000000  0.5623100000000 1.0
C      1  0.5274290000000  0.5716870000000  0.4602210000000 1.0
C      1  0.4739550000000  0.5353370000000  0.5181920000000 1.0
C      1  0.4330240000000  0.5018650000000  0.5225340000000 1.0
C      1  0.5062880000000  0.5284220000000  0.5865140000000 1.0
C      1  0.4890460000000  0.6242630000000  0.4891440000000 1.0
C      1  0.4583640000000  0.4003770000000  0.5018750000000 1.0
C      1  0.5352220000000  0.5361380000000  0.4237470000000 1.0
C      1  0.5003690000000  0.5327680000000  0.5490460000000 1.0
C      1  0.4067860000000  0.5286030000000  0.4999710000000 1.0
C      1  0.5393740000000  0.4156910000000  0.4483050000000 1.0
C      1  0.5140120000000  0.4999040000000  0.5750930000000 1.0
C      1  0.4318720000000  0.5317950000000  0.5489540000000 1.0
C      1  0.5681000000000  0.5569040000000  0.4733960000000 1.0
C      1  0.4645580000000  0.5037730000000  0.5761810000000 1.0
C      1  0.4340210000000  0.5737130000000  0.5150210000000 1.0
END
