TITL C-2847949-8115-315 -0.00229114357825076 125000 -174.417770546238 0 0 32 (C1) n - 1
REM
REM in /home/bkarasulu/work/CARBON/AIRSS/Generating-Clusters/AIREBO/with-SteepDescent/Only-C1/SD-CG-opt/Try1-1.4A-POS3A/HFTN-CG
REM
REM
REM
REM
REM
REM ./C.cell (11c1c37f851c82e70ff6c80c92926a4b)
REM
REM compiler GCC version 9.2.1 20190827 (Red Hat 9.2.1-1)
REM options -cpp -mtune=generic -march=x86-64 -g -O0 -fpre-include=/usr/include/finclude/math-vector-fortran.h
REM seed -1723033429 -694572455 -181174493 -158488043 -2043810238 1941891036 707366653 -694134055 1889377693 1227028470 1588193465 2083127115 1080784150 520272055 467628769 1539251951 1410172263 -351333000 -1371485360 2075254438 1670003374 -216257101 848024841 -436196471 1929561997 25477296 1215242965 584299384 -318859827 -426562746 -715943906 -1797163683 -72924215
REM
CELL 1.54180   50.00000   50.00000   50.00000   90.00000   90.00000   90.00000
LATT -1
SFAC C  
C      1  0.4698300000000  0.4368440000000  0.4456910000000 1.0
C      1  0.5162190000000  0.4491200000000  0.4565790000000 1.0
C      1  0.4920850000000  0.5642090000000  0.5135200000000 1.0
C      1  0.5040580000000  0.5483000000000  0.5343100000000 1.0
C      1  0.4879910000000  0.4525380000000  0.4575820000000 1.0
C      1  0.4880360000000  0.5099850000000  0.4515710000000 1.0
C      1  0.4946330000000  0.5285830000000  0.4701250000000 1.0
C      1  0.4959470000000  0.4688280000000  0.5416730000000 1.0
C      1  0.4813780000000  0.5542900000000  0.4765460000000 1.0
C      1  0.5035870000000  0.4422850000000  0.5411470000000 1.0
C      1  0.4747540000000  0.5215450000000  0.5358330000000 1.0
C      1  0.4521490000000  0.4744320000000  0.5195840000000 1.0
C      1  0.4459630000000  0.5035760000000  0.5036850000000 1.0
C      1  0.5122290000000  0.5160850000000  0.4957030000000 1.0
C      1  0.4612160000000  0.4788500000000  0.4893090000000 1.0
C      1  0.4640180000000  0.5529910000000  0.5026580000000 1.0
C      1  0.5480830000000  0.4630410000000  0.4928290000000 1.0
C      1  0.4683420000000  0.4766110000000  0.5430960000000 1.0
C      1  0.5804030000000  0.5421440000000  0.4755160000000 1.0
C      1  0.5332630000000  0.4727220000000  0.4707860000000 1.0
C      1  0.5144230000000  0.4902100000000  0.5398910000000 1.0
C      1  0.5551010000000  0.5425320000000  0.4823370000000 1.0
C      1  0.5281830000000  0.5424810000000  0.4868470000000 1.0
C      1  0.4828440000000  0.4761920000000  0.4722110000000 1.0
C      1  0.5072380000000  0.4888920000000  0.4796080000000 1.0
C      1  0.4573980000000  0.5276210000000  0.5142160000000 1.0
C      1  0.5053310000000  0.5158340000000  0.5262090000000 1.0
C      1  0.5403200000000  0.4882660000000  0.5487260000000 1.0
C      1  0.5098270000000  0.5642860000000  0.4876370000000 1.0
C      1  0.5106130000000  0.4172230000000  0.5380740000000 1.0
C      1  0.4656670000000  0.5024990000000  0.5545230000000 1.0
C      1  0.5488720000000  0.4869860000000  0.4519770000000 1.0
END
