TITL C-2848508-1660-355 -0.00163286022035046 125000 -552.59690077408 0 0 106 (C1) n - 1
REM
REM in /home/bkarasulu/work/CARBON/AIRSS/Generating-Clusters/AIREBO/with-SteepDescent/Only-C1/SD-CG-opt/Try1-1.4A-POS3A/HFTN-CG
REM
REM
REM
REM
REM
REM ./C.cell (11c1c37f851c82e70ff6c80c92926a4b)
REM
REM compiler GCC version 9.2.1 20190827 (Red Hat 9.2.1-1)
REM options -cpp -mtune=generic -march=x86-64 -g -O0 -fpre-include=/usr/include/finclude/math-vector-fortran.h
REM seed -975329609 -646634086 2121628655 1222385442 1088939053 482938362 15721697 -1029717209 -431763718 -301598153 -1345279781 -1813314295 -295098285 1281159025 1569824436 533772777 1532950607 109608302 -42698292 818414817 132010051 -1255655488 -942014822 -1802403347 97262857 909960217 -380093652 1165628886 -109100090 -1249212395 -550299641 -1161296132 572034607
REM
CELL 1.54180   50.00000   50.00000   50.00000   90.00000   90.00000   90.00000
LATT -1
SFAC C  
C      1  0.4870610000000  0.4561190000000  0.4997410000000 1.0
C      1  0.4630010000000  0.4324290000000  0.5446820000000 1.0
C      1  0.4406520000000  0.5165040000000  0.5447500000000 1.0
C      1  0.5673050000000  0.5335050000000  0.4324320000000 1.0
C      1  0.5153110000000  0.4424780000000  0.4656880000000 1.0
C      1  0.4439430000000  0.5671170000000  0.4798850000000 1.0
C      1  0.4766360000000  0.5441750000000  0.5708320000000 1.0
C      1  0.4719400000000  0.5780830000000  0.5344450000000 1.0
C      1  0.5076330000000  0.5498250000000  0.5118380000000 1.0
C      1  0.4924280000000  0.5179520000000  0.5801980000000 1.0
C      1  0.4647630000000  0.4053430000000  0.5275610000000 1.0
C      1  0.4414990000000  0.4778460000000  0.4454830000000 1.0
C      1  0.5299580000000  0.4495670000000  0.4171850000000 1.0
C      1  0.4677510000000  0.4815310000000  0.5087180000000 1.0
C      1  0.5556450000000  0.5679070000000  0.5018170000000 1.0
C      1  0.5240500000000  0.5202220000000  0.4608460000000 1.0
C      1  0.4952180000000  0.4973770000000  0.4452830000000 1.0
C      1  0.5337240000000  0.5703470000000  0.5186040000000 1.0
C      1  0.5416670000000  0.3936790000000  0.4487000000000 1.0
C      1  0.4446370000000  0.5308300000000  0.4430050000000 1.0
C      1  0.5939430000000  0.4644110000000  0.4862550000000 1.0
C      1  0.5111790000000  0.5383240000000  0.4350840000000 1.0
C      1  0.5515430000000  0.4743300000000  0.5093690000000 1.0
C      1  0.5008180000000  0.5216410000000  0.5420150000000 1.0
C      1  0.5432240000000  0.4935060000000  0.5854350000000 1.0
C      1  0.4652070000000  0.5217800000000  0.4656680000000 1.0
C      1  0.4769720000000  0.4446360000000  0.5949490000000 1.0
C      1  0.5077250000000  0.4340570000000  0.5596960000000 1.0
C      1  0.5644530000000  0.5007380000000  0.4972130000000 1.0
C      1  0.5703600000000  0.4811630000000  0.5448700000000 1.0
C      1  0.4858050000000  0.4945960000000  0.5562260000000 1.0
C      1  0.4633930000000  0.4422680000000  0.5146960000000 1.0
C      1  0.5813880000000  0.5512030000000  0.5127950000000 1.0
C      1  0.4675270000000  0.5280190000000  0.5447310000000 1.0
C      1  0.4612910000000  0.4607450000000  0.5792760000000 1.0
C      1  0.4970810000000  0.4923470000000  0.4788600000000 1.0
C      1  0.5388010000000  0.5729980000000  0.5462430000000 1.0
C      1  0.5418330000000  0.5234130000000  0.4882120000000 1.0
C      1  0.4456370000000  0.5507570000000  0.5055220000000 1.0
C      1  0.4486580000000  0.4486480000000  0.4613730000000 1.0
C      1  0.4950930000000  0.4908480000000  0.5177210000000 1.0
C      1  0.4462630000000  0.5668360000000  0.5319490000000 1.0
C      1  0.5377590000000  0.5271360000000  0.4170670000000 1.0
C      1  0.4699540000000  0.4823530000000  0.4624910000000 1.0
C      1  0.4389310000000  0.4982860000000  0.5160320000000 1.0
C      1  0.5003510000000  0.4342230000000  0.5850100000000 1.0
C      1  0.4363800000000  0.4407340000000  0.4855060000000 1.0
C      1  0.4829340000000  0.4546280000000  0.4325880000000 1.0
C      1  0.5231270000000  0.5198650000000  0.5164050000000 1.0
C      1  0.4498080000000  0.4157420000000  0.4983300000000 1.0
C      1  0.5729560000000  0.5201190000000  0.4633290000000 1.0
C      1  0.5555830000000  0.5521620000000  0.5546660000000 1.0
C      1  0.5125190000000  0.5187990000000  0.4003990000000 1.0
C      1  0.4972240000000  0.4535020000000  0.5327900000000 1.0
C      1  0.5297300000000  0.4442350000000  0.5366630000000 1.0
C      1  0.4538510000000  0.5009240000000  0.4855840000000 1.0
C      1  0.4583740000000  0.5593830000000  0.4553400000000 1.0
C      1  0.5317650000000  0.4584110000000  0.4880050000000 1.0
C      1  0.5491450000000  0.5025630000000  0.4353050000000 1.0
C      1  0.4889570000000  0.5156220000000  0.4205970000000 1.0
C      1  0.4686550000000  0.4659240000000  0.5464850000000 1.0
C      1  0.5650660000000  0.4841740000000  0.5720280000000 1.0
C      1  0.5618630000000  0.4543050000000  0.5314880000000 1.0
C      1  0.5129830000000  0.5538470000000  0.4793540000000 1.0
C      1  0.4084030000000  0.4781290000000  0.4835560000000 1.0
C      1  0.5256100000000  0.4881160000000  0.4496220000000 1.0
C      1  0.4163280000000  0.4627960000000  0.5526440000000 1.0
C      1  0.5249390000000  0.4101680000000  0.4612160000000 1.0
C      1  0.4254620000000  0.4619580000000  0.5005890000000 1.0
C      1  0.5087190000000  0.5681680000000  0.4189710000000 1.0
C      1  0.4875010000000  0.5179120000000  0.4986030000000 1.0
C      1  0.5140430000000  0.5758200000000  0.5630030000000 1.0
C      1  0.5853840000000  0.5535090000000  0.4213590000000 1.0
C      1  0.4380480000000  0.4680860000000  0.5316370000000 1.0
C      1  0.4104390000000  0.5297060000000  0.5364300000000 1.0
C      1  0.4939760000000  0.5306990000000  0.4701580000000 1.0
C      1  0.4212930000000  0.5307560000000  0.5687970000000 1.0
C      1  0.5427390000000  0.4219990000000  0.5178370000000 1.0
C      1  0.4991560000000  0.4141250000000  0.4797630000000 1.0
C      1  0.5744120000000  0.5329560000000  0.5358340000000 1.0
C      1  0.4823780000000  0.4509410000000  0.4663930000000 1.0
C      1  0.4756390000000  0.5392930000000  0.5166840000000 1.0
C      1  0.5254740000000  0.5147920000000  0.5725120000000 1.0
C      1  0.4713770000000  0.4729460000000  0.4196140000000 1.0
C      1  0.5806980000000  0.4966700000000  0.4399560000000 1.0
C      1  0.4172390000000  0.4914820000000  0.4594060000000 1.0
C      1  0.4847000000000  0.5703660000000  0.5597320000000 1.0
C      1  0.4819100000000  0.5784490000000  0.4750110000000 1.0
C      1  0.5152630000000  0.5815380000000  0.4691550000000 1.0
C      1  0.5237250000000  0.4876210000000  0.5055800000000 1.0
C      1  0.4588820000000  0.5028190000000  0.4300170000000 1.0
C      1  0.5854990000000  0.4911560000000  0.4760120000000 1.0
C      1  0.4832680000000  0.4101110000000  0.5006820000000 1.0
C      1  0.4868730000000  0.5765800000000  0.5086530000000 1.0
C      1  0.4251060000000  0.5280880000000  0.5072670000000 1.0
C      1  0.4265240000000  0.5575050000000  0.5488880000000 1.0
C      1  0.5803010000000  0.4476430000000  0.5027220000000 1.0
C      1  0.5535310000000  0.4364020000000  0.4968490000000 1.0
C      1  0.5259620000000  0.4590320000000  0.4410420000000 1.0
C      1  0.4892370000000  0.5621310000000  0.4460830000000 1.0
C      1  0.5426840000000  0.5230340000000  0.5440640000000 1.0
C      1  0.5685550000000  0.5424860000000  0.4839610000000 1.0
C      1  0.4160360000000  0.5178720000000  0.4507900000000 1.0
C      1  0.5133920000000  0.4813190000000  0.5437840000000 1.0
C      1  0.5153520000000  0.5448890000000  0.5621350000000 1.0
C      1  0.5730110000000  0.5028940000000  0.5276720000000 1.0
END
