TITL C-2848494-1720-396 -0.000287551538981343 125000 -840.295459454446 0 0 150 (C1) n - 1
REM
REM in /home/bkarasulu/work/CARBON/AIRSS/Generating-Clusters/AIREBO/with-SteepDescent/Only-C1/SD-CG-opt/Try1-1.4A-POS3A/HFTN-CG
REM
REM
REM
REM
REM
REM ./C.cell (11c1c37f851c82e70ff6c80c92926a4b)
REM
REM compiler GCC version 9.2.1 20190827 (Red Hat 9.2.1-1)
REM options -cpp -mtune=generic -march=x86-64 -g -O0 -fpre-include=/usr/include/finclude/math-vector-fortran.h
REM seed -57119937 1044357214 -1294021189 1142143162 -927652866 1044950342 -332997036 -2108939510 684854388 -1044558594 -1410945100 -1965365163 -1931983359 -1401209259 572838820 -999324169 -1696631514 1028788441 -635712171 1170978950 622745842 516080870 385715236 -988553120 50085643 1100972777 -1638364039 -69145494 -693169916 -1744228063 5862834 380666624 -623260100
REM
CELL 1.54180   50.00000   50.00000   50.00000   90.00000   90.00000   90.00000
LATT -1
SFAC C  
C      1  0.4717380000000  0.5861100000000  0.5209830000000 1.0
C      1  0.6016600000000  0.4819520000000  0.5069290000000 1.0
C      1  0.4874120000000  0.4244820000000  0.4929030000000 1.0
C      1  0.5540730000000  0.4846630000000  0.4976600000000 1.0
C      1  0.4958050000000  0.5413730000000  0.5315460000000 1.0
C      1  0.4220320000000  0.4675580000000  0.4280980000000 1.0
C      1  0.4061260000000  0.4755900000000  0.5055210000000 1.0
C      1  0.4461600000000  0.4610810000000  0.4163920000000 1.0
C      1  0.4521780000000  0.4899630000000  0.5733750000000 1.0
C      1  0.5219580000000  0.4410060000000  0.4512210000000 1.0
C      1  0.5792650000000  0.5125740000000  0.4183650000000 1.0
C      1  0.5458120000000  0.4043030000000  0.4994140000000 1.0
C      1  0.5082230000000  0.4677800000000  0.4602510000000 1.0
C      1  0.5894040000000  0.5306310000000  0.5361450000000 1.0
C      1  0.5251830000000  0.5523650000000  0.5184040000000 1.0
C      1  0.4778550000000  0.5040870000000  0.5462720000000 1.0
C      1  0.4993150000000  0.5535380000000  0.5898280000000 1.0
C      1  0.5251520000000  0.4580680000000  0.5549370000000 1.0
C      1  0.4403970000000  0.5771440000000  0.5238170000000 1.0
C      1  0.5494020000000  0.5419230000000  0.4502380000000 1.0
C      1  0.5463410000000  0.5161070000000  0.5379960000000 1.0
C      1  0.4351100000000  0.4239980000000  0.5422790000000 1.0
C      1  0.5382000000000  0.4822850000000  0.5832830000000 1.0
C      1  0.4252660000000  0.4591850000000  0.5260300000000 1.0
C      1  0.4251990000000  0.4348130000000  0.4791110000000 1.0
C      1  0.5466400000000  0.4540600000000  0.5220680000000 1.0
C      1  0.4942720000000  0.4672230000000  0.4894830000000 1.0
C      1  0.5194980000000  0.5844160000000  0.4659700000000 1.0
C      1  0.4165990000000  0.4997220000000  0.4510180000000 1.0
C      1  0.5339000000000  0.5693860000000  0.4902290000000 1.0
C      1  0.4888050000000  0.4761600000000  0.5199960000000 1.0
C      1  0.4966040000000  0.4663230000000  0.4135680000000 1.0
C      1  0.4822710000000  0.4244390000000  0.4291170000000 1.0
C      1  0.5861240000000  0.5519500000000  0.4945500000000 1.0
C      1  0.5121760000000  0.4964860000000  0.5999610000000 1.0
C      1  0.3943430000000  0.5040450000000  0.5309240000000 1.0
C      1  0.4971910000000  0.5541860000000  0.4256370000000 1.0
C      1  0.4243760000000  0.5371720000000  0.4611200000000 1.0
C      1  0.5932720000000  0.4682140000000  0.5301510000000 1.0
C      1  0.5405100000000  0.4781450000000  0.4192540000000 1.0
C      1  0.5099950000000  0.5122040000000  0.4369030000000 1.0
C      1  0.5184110000000  0.4341320000000  0.6004780000000 1.0
C      1  0.5142450000000  0.5792370000000  0.4405090000000 1.0
C      1  0.5045390000000  0.5791950000000  0.5152160000000 1.0
C      1  0.5388190000000  0.5371400000000  0.4822530000000 1.0
C      1  0.5647120000000  0.5340000000000  0.4988050000000 1.0
C      1  0.4068480000000  0.5470260000000  0.4982410000000 1.0
C      1  0.5296270000000  0.5772290000000  0.5561330000000 1.0
C      1  0.4749590000000  0.5717020000000  0.4400760000000 1.0
C      1  0.4465710000000  0.5842650000000  0.4922990000000 1.0
C      1  0.4784260000000  0.4379210000000  0.5221960000000 1.0
C      1  0.5003330000000  0.5326490000000  0.5627240000000 1.0
C      1  0.5038700000000  0.4416280000000  0.4252030000000 1.0
C      1  0.5560880000000  0.5320560000000  0.4120670000000 1.0
C      1  0.5984220000000  0.5150850000000  0.5090580000000 1.0
C      1  0.4800680000000  0.5275700000000  0.5895480000000 1.0
C      1  0.4788870000000  0.5932500000000  0.4884860000000 1.0
C      1  0.4484150000000  0.4273700000000  0.5190800000000 1.0
C      1  0.5566200000000  0.4523680000000  0.4911290000000 1.0
C      1  0.4972990000000  0.3975630000000  0.5105640000000 1.0
C      1  0.5611460000000  0.4216590000000  0.4825430000000 1.0
C      1  0.4958160000000  0.4321940000000  0.5470590000000 1.0
C      1  0.4610620000000  0.4731740000000  0.4916440000000 1.0
C      1  0.5938080000000  0.5062220000000  0.4764820000000 1.0
C      1  0.4293730000000  0.4730570000000  0.4888570000000 1.0
C      1  0.4852540000000  0.4495840000000  0.5694550000000 1.0
C      1  0.4937730000000  0.5099520000000  0.5187030000000 1.0
C      1  0.5160660000000  0.4846810000000  0.4065920000000 1.0
C      1  0.5050970000000  0.5382650000000  0.4780400000000 1.0
C      1  0.4751230000000  0.4665080000000  0.4543910000000 1.0
C      1  0.4230190000000  0.5181040000000  0.5007410000000 1.0
C      1  0.4642590000000  0.4348560000000  0.4554670000000 1.0
C      1  0.4528900000000  0.5028060000000  0.5062410000000 1.0
C      1  0.4862660000000  0.5159540000000  0.4887560000000 1.0
C      1  0.5656800000000  0.5073410000000  0.5139580000000 1.0
C      1  0.5467210000000  0.4070590000000  0.5279670000000 1.0
C      1  0.4473040000000  0.4859670000000  0.4563490000000 1.0
C      1  0.5384000000000  0.4194220000000  0.5791380000000 1.0
C      1  0.5323580000000  0.5037660000000  0.4829510000000 1.0
C      1  0.5572550000000  0.4922510000000  0.5577390000000 1.0
C      1  0.4544840000000  0.4585220000000  0.5696520000000 1.0
C      1  0.4370260000000  0.5180060000000  0.5725320000000 1.0
C      1  0.5980110000000  0.4741220000000  0.4771510000000 1.0
C      1  0.5409310000000  0.4522900000000  0.5845200000000 1.0
C      1  0.5043080000000  0.5135790000000  0.3974670000000 1.0
C      1  0.4060440000000  0.4924130000000  0.4249170000000 1.0
C      1  0.5608660000000  0.5588700000000  0.4247500000000 1.0
C      1  0.4366150000000  0.5407940000000  0.5628110000000 1.0
C      1  0.5257530000000  0.5067700000000  0.5149100000000 1.0
C      1  0.4788670000000  0.5098660000000  0.4373010000000 1.0
C      1  0.5255270000000  0.4929250000000  0.4559030000000 1.0
C      1  0.5785300000000  0.5763550000000  0.5111540000000 1.0
C      1  0.5800710000000  0.5174140000000  0.5592970000000 1.0
C      1  0.5308780000000  0.5213630000000  0.4116700000000 1.0
C      1  0.5530270000000  0.4999030000000  0.4371310000000 1.0
C      1  0.5496610000000  0.4530930000000  0.4250240000000 1.0
C      1  0.3898570000000  0.4837930000000  0.5509170000000 1.0
C      1  0.4852670000000  0.5338350000000  0.4060720000000 1.0
C      1  0.4583070000000  0.5248260000000  0.4160110000000 1.0
C      1  0.5455040000000  0.5492720000000  0.5454970000000 1.0
C      1  0.4227950000000  0.5171060000000  0.5338170000000 1.0
C      1  0.5756170000000  0.5554350000000  0.5329280000000 1.0
C      1  0.4480350000000  0.4951760000000  0.5399880000000 1.0
C      1  0.5191850000000  0.4005760000000  0.4899790000000 1.0
C      1  0.5759650000000  0.5207000000000  0.4512200000000 1.0
C      1  0.4349470000000  0.5339270000000  0.4287560000000 1.0
C      1  0.4313880000000  0.4444880000000  0.5624970000000 1.0
C      1  0.6021450000000  0.5386840000000  0.4754510000000 1.0
C      1  0.5143840000000  0.5052900000000  0.5613500000000 1.0
C      1  0.4123070000000  0.4362990000000  0.5044790000000 1.0
C      1  0.5803480000000  0.4537930000000  0.4699990000000 1.0
C      1  0.4786900000000  0.4950770000000  0.5941000000000 1.0
C      1  0.4089820000000  0.4632210000000  0.5535410000000 1.0
C      1  0.4585850000000  0.5098980000000  0.4734610000000 1.0
C      1  0.5239530000000  0.4693240000000  0.5014110000000 1.0
C      1  0.5073580000000  0.6039980000000  0.4841110000000 1.0
C      1  0.5366500000000  0.5151580000000  0.5844740000000 1.0
C      1  0.4435060000000  0.5606290000000  0.4456270000000 1.0
C      1  0.5170670000000  0.4833960000000  0.5374580000000 1.0
C      1  0.5569480000000  0.5330160000000  0.5730910000000 1.0
C      1  0.4906020000000  0.4815310000000  0.5665380000000 1.0
C      1  0.5542440000000  0.4387010000000  0.4538620000000 1.0
C      1  0.3887870000000  0.4981010000000  0.5011040000000 1.0
C      1  0.4239780000000  0.4613120000000  0.4586270000000 1.0
C      1  0.4945940000000  0.4009740000000  0.5371950000000 1.0
C      1  0.5174140000000  0.5403690000000  0.4487280000000 1.0
C      1  0.5983610000000  0.5459740000000  0.4471270000000 1.0
C      1  0.5475340000000  0.4036060000000  0.5583980000000 1.0
C      1  0.4704350000000  0.4795290000000  0.4244300000000 1.0
C      1  0.5285010000000  0.5926260000000  0.5320500000000 1.0
C      1  0.5281020000000  0.6095020000000  0.5045500000000 1.0
C      1  0.4367540000000  0.5480240000000  0.5314120000000 1.0
C      1  0.4932010000000  0.4452120000000  0.5986690000000 1.0
C      1  0.4798130000000  0.4662240000000  0.6120670000000 1.0
C      1  0.5880260000000  0.5655370000000  0.4298380000000 1.0
C      1  0.4586090000000  0.4643390000000  0.5303020000000 1.0
C      1  0.4572240000000  0.4394730000000  0.4884100000000 1.0
C      1  0.4369630000000  0.5533960000000  0.4882590000000 1.0
C      1  0.4535600000000  0.4348730000000  0.4231850000000 1.0
C      1  0.4576820000000  0.5364550000000  0.5076700000000 1.0
C      1  0.5675290000000  0.4686840000000  0.5394160000000 1.0
C      1  0.5034730000000  0.5727870000000  0.5674640000000 1.0
C      1  0.5281520000000  0.4315520000000  0.5374670000000 1.0
C      1  0.5551490000000  0.5895730000000  0.5028290000000 1.0
C      1  0.4833020000000  0.5690100000000  0.5469110000000 1.0
C      1  0.4722360000000  0.5638530000000  0.4727500000000 1.0
C      1  0.4653770000000  0.5359500000000  0.4545450000000 1.0
C      1  0.4859710000000  0.5538080000000  0.5014630000000 1.0
C      1  0.5097760000000  0.4198660000000  0.4692450000000 1.0
C      1  0.4025900000000  0.5150350000000  0.4749830000000 1.0
END
