TITL C-2848500-1637-180 0.434904881798027 125000 -229.258247187958 0 0 41 (C1) n - 1
REM
REM in /home/bkarasulu/work/CARBON/AIRSS/Generating-Clusters/AIREBO/with-SteepDescent/Only-C1/SD-CG-opt/Try1-1.4A-POS3A/HFTN-CG
REM
REM
REM
REM
REM
REM ./C.cell (11c1c37f851c82e70ff6c80c92926a4b)
REM
REM compiler GCC version 9.2.1 20190827 (Red Hat 9.2.1-1)
REM options -cpp -mtune=generic -march=x86-64 -g -O0 -fpre-include=/usr/include/finclude/math-vector-fortran.h
REM seed 788649673 -1208742733 33605300 1989623014 1773085739 -2132718221 -2030248629 -117564722 1304091488 -2140485770 1535441879 1348080254 -847238442 -1152237782 188888320 432436995 1735417922 -2011009768 -1778436982 -983242106 1820812590 -82069936 1395610561 1871655529 -1493528486 -964588524 1462403642 -1458192886 1348929866 -445347690 767023128 595120771 163427038
REM
CELL 1.54180   50.00000   50.00000   50.00000   90.00000   90.00000   90.00000
LATT -1
SFAC C  
C      1  0.4471740000000  0.4639910000000  0.4839800000000 1.0
C      1  0.4925970000000  0.3995360000000  0.4786990000000 1.0
C      1  0.5213020000000  0.5005910000000  0.5263640000000 1.0
C      1  0.4229920000000  0.5114800000000  0.5132780000000 1.0
C      1  0.4663870000000  0.4397030000000  0.4807850000000 1.0
C      1  0.6076180000000  0.5785950000000  0.6028570000000 1.0
C      1  0.4779340000000  0.5417260000000  0.4245520000000 1.0
C      1  0.4283960000000  0.4672760000000  0.4609800000000 1.0
C      1  0.5551480000000  0.5443030000000  0.4779060000000 1.0
C      1  0.4706600000000  0.5237920000000  0.5274720000000 1.0
C      1  0.4067140000000  0.5327850000000  0.5152860000000 1.0
C      1  0.5043400000000  0.5068350000000  0.4481590000000 1.0
C      1  0.5836650000000  0.5179780000000  0.5497390000000 1.0
C      1  0.5309850000000  0.4752020000000  0.5353780000000 1.0
C      1  0.4508110000000  0.5132420000000  0.5099010000000 1.0
C      1  0.4040130000000  0.4546890000000  0.4622080000000 1.0
C      1  0.5148360000000  0.5072130000000  0.4801130000000 1.0
C      1  0.5979350000000  0.5461720000000  0.5623140000000 1.0
C      1  0.5127920000000  0.4871320000000  0.4304650000000 1.0
C      1  0.5831600000000  0.4933010000000  0.5606630000000 1.0
C      1  0.5236740000000  0.5505210000000  0.4395670000000 1.0
C      1  0.5308070000000  0.5111400000000  0.5015300000000 1.0
C      1  0.5530570000000  0.5283090000000  0.5006950000000 1.0
C      1  0.5722620000000  0.5275630000000  0.5191570000000 1.0
C      1  0.4870340000000  0.4232200000000  0.4902820000000 1.0
C      1  0.5011770000000  0.5344110000000  0.4371360000000 1.0
C      1  0.4641310000000  0.4898960000000  0.4922130000000 1.0
C      1  0.6016500000000  0.5630810000000  0.5825900000000 1.0
C      1  0.4548840000000  0.5495460000000  0.4148310000000 1.0
C      1  0.4369180000000  0.4803840000000  0.4384270000000 1.0
C      1  0.4524230000000  0.4607080000000  0.5322800000000 1.0
C      1  0.5417260000000  0.5575850000000  0.4585290000000 1.0
C      1  0.4945820000000  0.5063810000000  0.5322330000000 1.0
C      1  0.4325830000000  0.4637630000000  0.5117750000000 1.0
C      1  0.4750890000000  0.4843170000000  0.5227950000000 1.0
C      1  0.5165480000000  0.4514880000000  0.5326200000000 1.0
C      1  0.4138260000000  0.4846260000000  0.5151340000000 1.0
C      1  0.5977560000000  0.5424450000000  0.5308060000000 1.0
C      1  0.5005940000000  0.4326980000000  0.5121980000000 1.0
C      1  0.4853510000000  0.4975350000000  0.4737850000000 1.0
C      1  0.4844690000000  0.4548420000000  0.5303190000000 1.0
END
