TITL C-2848508-1660-448 -0.00143656804713764 125000 -773.01805106011 0 0 142 (C1) n - 1
REM
REM in /home/bkarasulu/work/CARBON/AIRSS/Generating-Clusters/AIREBO/with-SteepDescent/Only-C1/SD-CG-opt/Try1-1.4A-POS3A/HFTN-CG
REM
REM
REM
REM
REM
REM ./C.cell (11c1c37f851c82e70ff6c80c92926a4b)
REM
REM compiler GCC version 9.2.1 20190827 (Red Hat 9.2.1-1)
REM options -cpp -mtune=generic -march=x86-64 -g -O0 -fpre-include=/usr/include/finclude/math-vector-fortran.h
REM seed -1258948192 1475393702 1152112024 -860589459 1834008031 13914025 1409904010 585063712 -1434702466 -1977532330 -1315200439 1348444467 -457309497 -678768349 -1402958054 1329582405 -875039858 199044241 424723019 -1443840423 -1460725665 1923268662 -1388156643 816201020 1359157894 -1103578735 -314687231 -664907921 -1304648264 582192957 -2021549075 1335521801 1778109032
REM
CELL 1.54180   50.00000   50.00000   50.00000   90.00000   90.00000   90.00000
LATT -1
SFAC C  
C      1  0.5515890000000  0.5146810000000  0.5660010000000 1.0
C      1  0.5044860000000  0.4238820000000  0.4409370000000 1.0
C      1  0.5685220000000  0.4658520000000  0.5208210000000 1.0
C      1  0.4584710000000  0.4903360000000  0.5654160000000 1.0
C      1  0.5089580000000  0.4774450000000  0.4131120000000 1.0
C      1  0.6207610000000  0.5306380000000  0.4933530000000 1.0
C      1  0.5016670000000  0.3966890000000  0.5294580000000 1.0
C      1  0.5381460000000  0.4509070000000  0.4729940000000 1.0
C      1  0.4665430000000  0.5723270000000  0.4334260000000 1.0
C      1  0.5699640000000  0.5754850000000  0.5138030000000 1.0
C      1  0.4502700000000  0.5445310000000  0.5064060000000 1.0
C      1  0.5527140000000  0.4291150000000  0.5510200000000 1.0
C      1  0.5498080000000  0.4126860000000  0.4740280000000 1.0
C      1  0.4310300000000  0.4807180000000  0.4611440000000 1.0
C      1  0.4696570000000  0.5184950000000  0.5165360000000 1.0
C      1  0.5022400000000  0.4899300000000  0.5400920000000 1.0
C      1  0.4637810000000  0.5978090000000  0.5097610000000 1.0
C      1  0.3903990000000  0.4912840000000  0.5035720000000 1.0
C      1  0.4121630000000  0.4566820000000  0.4694030000000 1.0
C      1  0.5574120000000  0.5089540000000  0.5329960000000 1.0
C      1  0.4865350000000  0.5404090000000  0.4202040000000 1.0
C      1  0.5155710000000  0.5133280000000  0.4181210000000 1.0
C      1  0.4720470000000  0.4848210000000  0.4954390000000 1.0
C      1  0.4989070000000  0.4738920000000  0.4776840000000 1.0
C      1  0.5733860000000  0.5377430000000  0.5556770000000 1.0
C      1  0.5951360000000  0.4720400000000  0.5396650000000 1.0
C      1  0.5908560000000  0.4764010000000  0.5668170000000 1.0
C      1  0.5572930000000  0.4551710000000  0.5624900000000 1.0
C      1  0.4880110000000  0.4341810000000  0.5507650000000 1.0
C      1  0.5314350000000  0.4112280000000  0.5371480000000 1.0
C      1  0.4493720000000  0.4629620000000  0.4825850000000 1.0
C      1  0.5240180000000  0.5131480000000  0.5281410000000 1.0
C      1  0.3826010000000  0.4960260000000  0.4708190000000 1.0
C      1  0.5461500000000  0.5788910000000  0.4563510000000 1.0
C      1  0.5130780000000  0.4603080000000  0.5760740000000 1.0
C      1  0.4566580000000  0.5347090000000  0.5654730000000 1.0
C      1  0.4665860000000  0.5896160000000  0.4579900000000 1.0
C      1  0.5359060000000  0.5538870000000  0.4365960000000 1.0
C      1  0.4633880000000  0.4606420000000  0.4298060000000 1.0
C      1  0.5224540000000  0.4645030000000  0.4987860000000 1.0
C      1  0.4570280000000  0.4378470000000  0.4618920000000 1.0
C      1  0.5883840000000  0.4605740000000  0.4801620000000 1.0
C      1  0.4862400000000  0.5015170000000  0.4117850000000 1.0
C      1  0.5236670000000  0.5338330000000  0.5696500000000 1.0
C      1  0.4433490000000  0.4751630000000  0.5264610000000 1.0
C      1  0.4761670000000  0.5067080000000  0.5447910000000 1.0
C      1  0.4226230000000  0.5014890000000  0.5248510000000 1.0
C      1  0.5062440000000  0.5984940000000  0.4764090000000 1.0
C      1  0.4037670000000  0.5476180000000  0.5182370000000 1.0
C      1  0.5416420000000  0.5922570000000  0.5177430000000 1.0
C      1  0.5248360000000  0.4934980000000  0.5027810000000 1.0
C      1  0.5507020000000  0.5279080000000  0.4483280000000 1.0
C      1  0.4327060000000  0.4502620000000  0.5091420000000 1.0
C      1  0.4959980000000  0.4048640000000  0.4749590000000 1.0
C      1  0.5458000000000  0.5038820000000  0.4837790000000 1.0
C      1  0.4007350000000  0.5212750000000  0.5132920000000 1.0
C      1  0.5025100000000  0.4522940000000  0.4556170000000 1.0
C      1  0.4865990000000  0.4605860000000  0.5849060000000 1.0
C      1  0.5162820000000  0.5812630000000  0.5004100000000 1.0
C      1  0.4049120000000  0.4661420000000  0.5191170000000 1.0
C      1  0.4759170000000  0.5312000000000  0.4752730000000 1.0
C      1  0.5210980000000  0.5507940000000  0.4889130000000 1.0
C      1  0.4446910000000  0.5368070000000  0.4768040000000 1.0
C      1  0.4380380000000  0.4119320000000  0.4855410000000 1.0
C      1  0.5401330000000  0.4799450000000  0.4172920000000 1.0
C      1  0.4480540000000  0.4297670000000  0.5315850000000 1.0
C      1  0.6038010000000  0.5524340000000  0.4832260000000 1.0
C      1  0.5647810000000  0.4643580000000  0.4642470000000 1.0
C      1  0.4770790000000  0.4708650000000  0.5260660000000 1.0
C      1  0.4307780000000  0.5099860000000  0.4740610000000 1.0
C      1  0.5262930000000  0.5044550000000  0.4455610000000 1.0
C      1  0.4790830000000  0.4987760000000  0.4652260000000 1.0
C      1  0.5302530000000  0.4508490000000  0.5261670000000 1.0
C      1  0.4694180000000  0.5621070000000  0.5257920000000 1.0
C      1  0.4822670000000  0.4418770000000  0.5089120000000 1.0
C      1  0.5180080000000  0.5445860000000  0.4173220000000 1.0
C      1  0.5015060000000  0.5390130000000  0.5284130000000 1.0
C      1  0.4309900000000  0.5560630000000  0.4580370000000 1.0
C      1  0.5726290000000  0.5150270000000  0.4279110000000 1.0
C      1  0.4375720000000  0.5905000000000  0.5145840000000 1.0
C      1  0.4773240000000  0.4129900000000  0.5359450000000 1.0
C      1  0.4790880000000  0.5819490000000  0.4863070000000 1.0
C      1  0.5737320000000  0.5504310000000  0.4940080000000 1.0
C      1  0.5343660000000  0.5454020000000  0.5312330000000 1.0
C      1  0.4969020000000  0.5077370000000  0.4992700000000 1.0
C      1  0.5197580000000  0.5073360000000  0.5888790000000 1.0
C      1  0.5745150000000  0.4877950000000  0.4951240000000 1.0
C      1  0.5538880000000  0.5873170000000  0.4862770000000 1.0
C      1  0.4285030000000  0.5022930000000  0.4348810000000 1.0
C      1  0.4927000000000  0.5852880000000  0.5235550000000 1.0
C      1  0.5161670000000  0.5880270000000  0.4524060000000 1.0
C      1  0.5615270000000  0.4905850000000  0.4575170000000 1.0
C      1  0.5219500000000  0.4233850000000  0.4847350000000 1.0
C      1  0.4678870000000  0.4588890000000  0.5565600000000 1.0
C      1  0.5333090000000  0.5054430000000  0.6157870000000 1.0
C      1  0.4027440000000  0.4668250000000  0.5469350000000 1.0
C      1  0.4839020000000  0.4816840000000  0.4362130000000 1.0
C      1  0.5502640000000  0.5497000000000  0.4734920000000 1.0
C      1  0.5691250000000  0.4205640000000  0.4929760000000 1.0
C      1  0.5174920000000  0.5202770000000  0.4743430000000 1.0
C      1  0.4258390000000  0.4332710000000  0.4688220000000 1.0
C      1  0.4624300000000  0.5616660000000  0.5543100000000 1.0
C      1  0.6100300000000  0.5182030000000  0.5194800000000 1.0
C      1  0.5930460000000  0.4335830000000  0.4854130000000 1.0
C      1  0.4396270000000  0.4723840000000  0.4231510000000 1.0
C      1  0.4393740000000  0.4404580000000  0.5598150000000 1.0
C      1  0.4030880000000  0.5086480000000  0.4565680000000 1.0
C      1  0.5584680000000  0.4336720000000  0.5180860000000 1.0
C      1  0.4902290000000  0.5336520000000  0.5600640000000 1.0
C      1  0.4845770000000  0.5648340000000  0.5748250000000 1.0
C      1  0.4332390000000  0.5211800000000  0.5687650000000 1.0
C      1  0.5296580000000  0.4111090000000  0.4476350000000 1.0
C      1  0.4420130000000  0.5279800000000  0.4211750000000 1.0
C      1  0.4888710000000  0.5521960000000  0.4996990000000 1.0
C      1  0.4897780000000  0.5169760000000  0.5896950000000 1.0
C      1  0.4272720000000  0.5635520000000  0.5151480000000 1.0
C      1  0.3889350000000  0.4666630000000  0.4799810000000 1.0
C      1  0.5140240000000  0.4424830000000  0.5547870000000 1.0
C      1  0.4843310000000  0.4336780000000  0.4765710000000 1.0
C      1  0.5630580000000  0.5534140000000  0.5354090000000 1.0
C      1  0.4670170000000  0.5017620000000  0.5926270000000 1.0
C      1  0.5930350000000  0.5139860000000  0.4838230000000 1.0
C      1  0.4989220000000  0.5377370000000  0.4517880000000 1.0
C      1  0.5213990000000  0.5758000000000  0.5392320000000 1.0
C      1  0.5445780000000  0.4785740000000  0.5413380000000 1.0
C      1  0.4573880000000  0.4195780000000  0.5024540000000 1.0
C      1  0.4445420000000  0.5054220000000  0.5014730000000 1.0
C      1  0.4746120000000  0.4327590000000  0.4350670000000 1.0
C      1  0.5636690000000  0.4859030000000  0.5755680000000 1.0
C      1  0.5849550000000  0.5085910000000  0.4552570000000 1.0
C      1  0.5626260000000  0.4937850000000  0.4115120000000 1.0
C      1  0.5996000000000  0.4906990000000  0.5179010000000 1.0
C      1  0.4660050000000  0.5236480000000  0.4079120000000 1.0
C      1  0.4978570000000  0.5703730000000  0.4423030000000 1.0
C      1  0.5107060000000  0.4257190000000  0.5142150000000 1.0
C      1  0.5278600000000  0.4713740000000  0.4478270000000 1.0
C      1  0.5267660000000  0.5630560000000  0.5662090000000 1.0
C      1  0.5769730000000  0.5232080000000  0.5132770000000 1.0
C      1  0.4430800000000  0.5545810000000  0.4325820000000 1.0
C      1  0.5227700000000  0.4868860000000  0.5660700000000 1.0
C      1  0.4215010000000  0.5009110000000  0.5554570000000 1.0
C      1  0.4305580000000  0.4709650000000  0.5641110000000 1.0
END
