TITL C-2848496-4490-514 -0.00132781933610553 125000 -1028.50348296312 0 0 190 (C1) n - 1
REM
REM in /home/bkarasulu/work/CARBON/AIRSS/Generating-Clusters/AIREBO/with-SteepDescent/Only-C1/SD-CG-opt/Try1-1.4A-POS3A/HFTN-CG
REM
REM
REM
REM
REM
REM ./C.cell (11c1c37f851c82e70ff6c80c92926a4b)
REM
REM compiler GCC version 9.2.1 20190827 (Red Hat 9.2.1-1)
REM options -cpp -mtune=generic -march=x86-64 -g -O0 -fpre-include=/usr/include/finclude/math-vector-fortran.h
REM seed -1271549445 -1187414610 -1978770794 -1318615353 1693253243 -1586915364 140827382 -1252719276 1527597198 -1716142119 -2136232658 -1738629500 -1843558616 1212221317 -1040614877 474736458 -1079305999 1796619779 1185630955 -1825884321 559993845 -644624439 1414803198 1467274896 -2147301729 -401720061 105308003 -1060871564 -1568077397 -1551959253 -1088688978 -1280307214 -1248650975
REM
CELL 1.54180   50.00000   50.00000   50.00000   90.00000   90.00000   90.00000
LATT -1
SFAC C  
C      1  0.4760220000000  0.4829650000000  0.4788380000000 1.0
C      1  0.4361350000000  0.5737130000000  0.5166500000000 1.0
C      1  0.4806330000000  0.4643450000000  0.4527330000000 1.0
C      1  0.4022340000000  0.4812710000000  0.4640150000000 1.0
C      1  0.5017860000000  0.5358570000000  0.4354170000000 1.0
C      1  0.4405840000000  0.5374110000000  0.5925080000000 1.0
C      1  0.4772000000000  0.5489860000000  0.5296930000000 1.0
C      1  0.5709680000000  0.4716280000000  0.5516780000000 1.0
C      1  0.4398820000000  0.4230100000000  0.4605400000000 1.0
C      1  0.4059940000000  0.4849050000000  0.4968340000000 1.0
C      1  0.4413260000000  0.4511370000000  0.5359630000000 1.0
C      1  0.4660900000000  0.4831120000000  0.5904070000000 1.0
C      1  0.5832330000000  0.5393800000000  0.5454380000000 1.0
C      1  0.5173130000000  0.5178560000000  0.4145070000000 1.0
C      1  0.5113570000000  0.6109720000000  0.4711190000000 1.0
C      1  0.5988660000000  0.5045520000000  0.5572310000000 1.0
C      1  0.5077680000000  0.4503420000000  0.6146060000000 1.0
C      1  0.5582360000000  0.5331240000000  0.5020930000000 1.0
C      1  0.4798850000000  0.4289470000000  0.3952620000000 1.0
C      1  0.4754900000000  0.5173920000000  0.4592170000000 1.0
C      1  0.4217200000000  0.5232490000000  0.4289430000000 1.0
C      1  0.4715380000000  0.4074690000000  0.5585580000000 1.0
C      1  0.4757530000000  0.5599360000000  0.5618530000000 1.0
C      1  0.4798330000000  0.5328670000000  0.4871450000000 1.0
C      1  0.5153440000000  0.4967450000000  0.3889950000000 1.0
C      1  0.5925710000000  0.5119370000000  0.5276560000000 1.0
C      1  0.6109200000000  0.5157520000000  0.5032560000000 1.0
C      1  0.5156370000000  0.4358240000000  0.5197000000000 1.0
C      1  0.4852210000000  0.4771440000000  0.5209980000000 1.0
C      1  0.4503070000000  0.4981310000000  0.4689210000000 1.0
C      1  0.5563840000000  0.4636310000000  0.5032470000000 1.0
C      1  0.4526670000000  0.5114760000000  0.5581070000000 1.0
C      1  0.5591070000000  0.4473080000000  0.4433250000000 1.0
C      1  0.4951010000000  0.5788290000000  0.5749170000000 1.0
C      1  0.6011060000000  0.5519220000000  0.4585760000000 1.0
C      1  0.5483790000000  0.4378050000000  0.4745520000000 1.0
C      1  0.5101180000000  0.5771600000000  0.4687210000000 1.0
C      1  0.3979350000000  0.5231450000000  0.5052560000000 1.0
C      1  0.5974280000000  0.4317430000000  0.5313970000000 1.0
C      1  0.4429590000000  0.5442160000000  0.4201980000000 1.0
C      1  0.5384570000000  0.5931970000000  0.4780210000000 1.0
C      1  0.4546870000000  0.5551570000000  0.4581450000000 1.0
C      1  0.4614770000000  0.4339410000000  0.4175410000000 1.0
C      1  0.5512140000000  0.4986870000000  0.4063270000000 1.0
C      1  0.4997640000000  0.5391060000000  0.6132800000000 1.0
C      1  0.5281690000000  0.4666740000000  0.5849710000000 1.0
C      1  0.5692030000000  0.5566490000000  0.4473710000000 1.0
C      1  0.4459820000000  0.5352930000000  0.4849530000000 1.0
C      1  0.5164300000000  0.3842750000000  0.4952530000000 1.0
C      1  0.3941750000000  0.5297360000000  0.4168290000000 1.0
C      1  0.4023710000000  0.5710800000000  0.4957210000000 1.0
C      1  0.3810910000000  0.4143940000000  0.5652200000000 1.0
C      1  0.6112290000000  0.4828170000000  0.4947920000000 1.0
C      1  0.4198930000000  0.5506920000000  0.5689930000000 1.0
C      1  0.5754740000000  0.4949460000000  0.5760160000000 1.0
C      1  0.4621440000000  0.5581310000000  0.3976930000000 1.0
C      1  0.4296290000000  0.4747620000000  0.4054220000000 1.0
C      1  0.5270190000000  0.5895140000000  0.5705940000000 1.0
C      1  0.5210250000000  0.4748140000000  0.5385150000000 1.0
C      1  0.4223120000000  0.5637850000000  0.4639510000000 1.0
C      1  0.5596360000000  0.5211900000000  0.6008940000000 1.0
C      1  0.4488790000000  0.5621610000000  0.5741590000000 1.0
C      1  0.5871710000000  0.5714260000000  0.4799030000000 1.0
C      1  0.5973840000000  0.4608350000000  0.5149040000000 1.0
C      1  0.4482370000000  0.5476280000000  0.5167890000000 1.0
C      1  0.5067770000000  0.5544860000000  0.5138360000000 1.0
C      1  0.5086690000000  0.5035410000000  0.5489520000000 1.0
C      1  0.5478570000000  0.5251240000000  0.5334860000000 1.0
C      1  0.4885570000000  0.5655100000000  0.4873250000000 1.0
C      1  0.5380030000000  0.4753690000000  0.3893080000000 1.0
C      1  0.5102670000000  0.5121470000000  0.6062410000000 1.0
C      1  0.4313480000000  0.4814670000000  0.4511750000000 1.0
C      1  0.5097000000000  0.5625890000000  0.5997340000000 1.0
C      1  0.6088100000000  0.5475610000000  0.4914080000000 1.0
C      1  0.4599080000000  0.4627520000000  0.5103810000000 1.0
C      1  0.4906800000000  0.4865350000000  0.3834020000000 1.0
C      1  0.5129260000000  0.5208470000000  0.5747790000000 1.0
C      1  0.5748730000000  0.4856150000000  0.5209330000000 1.0
C      1  0.5363930000000  0.5588540000000  0.5939730000000 1.0
C      1  0.5207500000000  0.4554550000000  0.4749330000000 1.0
C      1  0.4384450000000  0.4875480000000  0.5197040000000 1.0
C      1  0.3991480000000  0.4717260000000  0.5222550000000 1.0
C      1  0.5331700000000  0.4326710000000  0.4268490000000 1.0
C      1  0.4973920000000  0.4085540000000  0.5729160000000 1.0
C      1  0.5628450000000  0.5826190000000  0.4683060000000 1.0
C      1  0.5256530000000  0.5450840000000  0.5409430000000 1.0
C      1  0.3959300000000  0.4285560000000  0.5500390000000 1.0
C      1  0.5098220000000  0.4515660000000  0.5606560000000 1.0
C      1  0.4496480000000  0.4557430000000  0.4638120000000 1.0
C      1  0.5586830000000  0.4027970000000  0.4586280000000 1.0
C      1  0.4241990000000  0.4295200000000  0.5057930000000 1.0
C      1  0.5872250000000  0.4666120000000  0.4769410000000 1.0
C      1  0.3929680000000  0.4485560000000  0.4648960000000 1.0
C      1  0.5777850000000  0.4105600000000  0.4736020000000 1.0
C      1  0.4892220000000  0.4468100000000  0.5340270000000 1.0
C      1  0.4882530000000  0.6260340000000  0.4664510000000 1.0
C      1  0.4287950000000  0.4937450000000  0.4245390000000 1.0
C      1  0.5436640000000  0.4986940000000  0.5159010000000 1.0
C      1  0.4650690000000  0.4293150000000  0.5379230000000 1.0
C      1  0.4212810000000  0.5304920000000  0.4620640000000 1.0
C      1  0.5212510000000  0.5816440000000  0.5239180000000 1.0
C      1  0.4844300000000  0.4817840000000  0.5528010000000 1.0
C      1  0.5471140000000  0.4943600000000  0.5481850000000 1.0
C      1  0.5279540000000  0.4172790000000  0.4567310000000 1.0
C      1  0.4991530000000  0.4842420000000  0.5825510000000 1.0
C      1  0.4753450000000  0.4316560000000  0.4449550000000 1.0
C      1  0.3713810000000  0.4716120000000  0.4523060000000 1.0
C      1  0.4323710000000  0.5840990000000  0.4864180000000 1.0
C      1  0.4660520000000  0.4074870000000  0.4670260000000 1.0
C      1  0.5070200000000  0.4032510000000  0.5406970000000 1.0
C      1  0.4333900000000  0.5049220000000  0.4936300000000 1.0
C      1  0.5853210000000  0.5817010000000  0.5213160000000 1.0
C      1  0.4815910000000  0.5285340000000  0.5634830000000 1.0
C      1  0.5279890000000  0.5737070000000  0.4217230000000 1.0
C      1  0.5469330000000  0.5323650000000  0.4082320000000 1.0
C      1  0.4928050000000  0.4807410000000  0.4276460000000 1.0
C      1  0.5003340000000  0.6063070000000  0.5294150000000 1.0
C      1  0.4535050000000  0.4233820000000  0.5095820000000 1.0
C      1  0.5263090000000  0.4863600000000  0.4259370000000 1.0
C      1  0.5248600000000  0.6078650000000  0.5055210000000 1.0
C      1  0.5470720000000  0.4932350000000  0.5946400000000 1.0
C      1  0.3978900000000  0.5502050000000  0.5145340000000 1.0
C      1  0.5237010000000  0.5261450000000  0.4595390000000 1.0
C      1  0.5359030000000  0.4486640000000  0.3969650000000 1.0
C      1  0.5308270000000  0.4271470000000  0.5488610000000 1.0
C      1  0.5248300000000  0.4883690000000  0.4724590000000 1.0
C      1  0.5203970000000  0.4568300000000  0.4417440000000 1.0
C      1  0.4867850000000  0.6297540000000  0.5714790000000 1.0
C      1  0.5761050000000  0.4550640000000  0.5784620000000 1.0
C      1  0.5836090000000  0.5488480000000  0.5127050000000 1.0
C      1  0.4707710000000  0.5370580000000  0.4350350000000 1.0
C      1  0.4131360000000  0.5087810000000  0.5277550000000 1.0
C      1  0.4984130000000  0.4311140000000  0.4699280000000 1.0
C      1  0.4642460000000  0.5865340000000  0.4913420000000 1.0
C      1  0.5017310000000  0.5006000000000  0.4537990000000 1.0
C      1  0.4715330000000  0.4028800000000  0.4947950000000 1.0
C      1  0.5140570000000  0.5626340000000  0.4437970000000 1.0
C      1  0.4854440000000  0.5177660000000  0.5314300000000 1.0
C      1  0.5532000000000  0.4785750000000  0.4452390000000 1.0
C      1  0.4487680000000  0.5114470000000  0.5977880000000 1.0
C      1  0.4294340000000  0.5720400000000  0.4329120000000 1.0
C      1  0.5077270000000  0.5864960000000  0.4058130000000 1.0
C      1  0.4754290000000  0.6093770000000  0.5129970000000 1.0
C      1  0.4391710000000  0.4492900000000  0.4101760000000 1.0
C      1  0.5689030000000  0.5278720000000  0.5697110000000 1.0
C      1  0.5937760000000  0.4891290000000  0.4351050000000 1.0
C      1  0.4614040000000  0.5773730000000  0.4326770000000 1.0
C      1  0.5412460000000  0.5743500000000  0.5474800000000 1.0
C      1  0.4328930000000  0.4919140000000  0.5776980000000 1.0
C      1  0.4220710000000  0.4516020000000  0.4819990000000 1.0
C      1  0.4114540000000  0.4449160000000  0.5299530000000 1.0
C      1  0.4543210000000  0.4803090000000  0.5461880000000 1.0
C      1  0.4091540000000  0.5501570000000  0.5411230000000 1.0
C      1  0.5696740000000  0.5073700000000  0.4295310000000 1.0
C      1  0.4802960000000  0.5796090000000  0.4091150000000 1.0
C      1  0.4047460000000  0.4873390000000  0.5713180000000 1.0
C      1  0.4705990000000  0.4419500000000  0.4867740000000 1.0
C      1  0.4900250000000  0.5038670000000  0.5017390000000 1.0
C      1  0.5856290000000  0.4369350000000  0.4935930000000 1.0
C      1  0.5250060000000  0.4626850000000  0.5078890000000 1.0
C      1  0.5205580000000  0.3863650000000  0.4688020000000 1.0
C      1  0.4102080000000  0.4210040000000  0.4754470000000 1.0
C      1  0.5562610000000  0.4237570000000  0.5045670000000 1.0
C      1  0.4940820000000  0.6078420000000  0.5592100000000 1.0
C      1  0.5583200000000  0.4845420000000  0.4770100000000 1.0
C      1  0.3962700000000  0.4896700000000  0.5458930000000 1.0
C      1  0.5587190000000  0.4078150000000  0.5509790000000 1.0
C      1  0.4923430000000  0.3932130000000  0.5112440000000 1.0
C      1  0.6103560000000  0.5050780000000  0.4516670000000 1.0
C      1  0.4684830000000  0.6195430000000  0.4839000000000 1.0
C      1  0.5218770000000  0.4813830000000  0.6149830000000 1.0
C      1  0.5219940000000  0.5057210000000  0.4971300000000 1.0
C      1  0.5981500000000  0.5138180000000  0.4740340000000 1.0
C      1  0.5702710000000  0.5694830000000  0.5438770000000 1.0
C      1  0.5518890000000  0.5575560000000  0.4197380000000 1.0
C      1  0.5259940000000  0.5370510000000  0.4916810000000 1.0
C      1  0.5893940000000  0.4627540000000  0.4456530000000 1.0
C      1  0.5528490000000  0.4454770000000  0.5305320000000 1.0
C      1  0.4352990000000  0.5284710000000  0.5396220000000 1.0
C      1  0.3991090000000  0.5132240000000  0.4752380000000 1.0
C      1  0.5393900000000  0.5384490000000  0.5711470000000 1.0
C      1  0.4851460000000  0.4622410000000  0.4021410000000 1.0
C      1  0.5553540000000  0.4490320000000  0.5916150000000 1.0
C      1  0.5561920000000  0.5273980000000  0.4512450000000 1.0
C      1  0.5680570000000  0.5147110000000  0.4775780000000 1.0
C      1  0.5299060000000  0.4052300000000  0.5156150000000 1.0
C      1  0.5766070000000  0.4134520000000  0.5297920000000 1.0
C      1  0.4994390000000  0.4292700000000  0.5921780000000 1.0
C      1  0.5088120000000  0.4389300000000  0.3958440000000 1.0
C      1  0.4833890000000  0.4548520000000  0.5820390000000 1.0
END
