TITL C-2847946-5639-260 0.00263201578890086 125000 -956.967694617885 0 0 181 (C1) n - 1
REM
REM in /home/bkarasulu/work/CARBON/AIRSS/Generating-Clusters/AIREBO/with-SteepDescent/Only-C1/SD-CG-opt/Try1-1.4A-POS3A/HFTN-CG
REM
REM
REM
REM
REM
REM ./C.cell (11c1c37f851c82e70ff6c80c92926a4b)
REM
REM compiler GCC version 9.2.1 20190827 (Red Hat 9.2.1-1)
REM options -cpp -mtune=generic -march=x86-64 -g -O0 -fpre-include=/usr/include/finclude/math-vector-fortran.h
REM seed 737196631 1077600865 1846746314 1849080582 2089210016 -1391153806 -1433495179 1811435945 1668779150 720645868 486745493 1096229094 1066922337 281314514 1414829596 -1943880820 1497700378 999563061 807531834 1545493110 -356598311 -780211890 -1673079876 809258072 55209922 -575564588 -1493505976 1606371068 736470754 132420867 1856668402 -242589418 -1174220549
REM
CELL 1.54180   50.00000   50.00000   50.00000   90.00000   90.00000   90.00000
LATT -1
SFAC C  
C      1  0.5395600000000  0.4755020000000  0.4426680000000 1.0
C      1  0.4109540000000  0.5241610000000  0.4130260000000 1.0
C      1  0.4384850000000  0.5758660000000  0.5048280000000 1.0
C      1  0.4365370000000  0.5032930000000  0.5782030000000 1.0
C      1  0.5647520000000  0.5130290000000  0.4123390000000 1.0
C      1  0.5142920000000  0.3917330000000  0.5426250000000 1.0
C      1  0.4050140000000  0.5160930000000  0.4724500000000 1.0
C      1  0.4908180000000  0.5838580000000  0.5307200000000 1.0
C      1  0.5785160000000  0.4797600000000  0.5681650000000 1.0
C      1  0.4038770000000  0.4424420000000  0.5360190000000 1.0
C      1  0.4080060000000  0.4620720000000  0.4944010000000 1.0
C      1  0.4700890000000  0.4525860000000  0.4125120000000 1.0
C      1  0.4397650000000  0.6083480000000  0.4822250000000 1.0
C      1  0.4997220000000  0.3872800000000  0.5131080000000 1.0
C      1  0.4211150000000  0.5792640000000  0.5298580000000 1.0
C      1  0.4027190000000  0.4982420000000  0.5396590000000 1.0
C      1  0.4344360000000  0.5356840000000  0.5487870000000 1.0
C      1  0.5050130000000  0.4648400000000  0.4267580000000 1.0
C      1  0.5691600000000  0.5099300000000  0.5750070000000 1.0
C      1  0.5781440000000  0.5020450000000  0.4748820000000 1.0
C      1  0.5164760000000  0.4337360000000  0.4343750000000 1.0
C      1  0.4412530000000  0.5473940000000  0.5799910000000 1.0
C      1  0.4716900000000  0.4759830000000  0.4624940000000 1.0
C      1  0.4599480000000  0.3962800000000  0.4871830000000 1.0
C      1  0.3964750000000  0.4752030000000  0.4650980000000 1.0
C      1  0.5307080000000  0.6011970000000  0.4858930000000 1.0
C      1  0.5089200000000  0.5082430000000  0.6078610000000 1.0
C      1  0.4847830000000  0.5612990000000  0.5945290000000 1.0
C      1  0.5231500000000  0.4339620000000  0.4965870000000 1.0
C      1  0.4989310000000  0.4068750000000  0.4456400000000 1.0
C      1  0.4284050000000  0.4625930000000  0.5216230000000 1.0
C      1  0.5467060000000  0.5846880000000  0.5052270000000 1.0
C      1  0.5534200000000  0.5410290000000  0.5405430000000 1.0
C      1  0.4840990000000  0.5305830000000  0.6008670000000 1.0
C      1  0.5716660000000  0.5837090000000  0.4584890000000 1.0
C      1  0.4307590000000  0.4343790000000  0.4512570000000 1.0
C      1  0.4792580000000  0.5575450000000  0.5188690000000 1.0
C      1  0.4433290000000  0.4783500000000  0.5864180000000 1.0
C      1  0.4671360000000  0.4476600000000  0.5719570000000 1.0
C      1  0.4146770000000  0.5112270000000  0.5609180000000 1.0
C      1  0.4312000000000  0.4287460000000  0.5234640000000 1.0
C      1  0.5435410000000  0.5734070000000  0.4517520000000 1.0
C      1  0.4176300000000  0.5449630000000  0.4861630000000 1.0
C      1  0.4764040000000  0.5151110000000  0.5036480000000 1.0
C      1  0.5745030000000  0.5303660000000  0.5174910000000 1.0
C      1  0.5658710000000  0.4783600000000  0.5991920000000 1.0
C      1  0.5612650000000  0.4613340000000  0.4124880000000 1.0
C      1  0.4722140000000  0.5714410000000  0.4225610000000 1.0
C      1  0.4117960000000  0.4348020000000  0.4744310000000 1.0
C      1  0.5210680000000  0.4116230000000  0.4710090000000 1.0
C      1  0.4826280000000  0.6025430000000  0.4947320000000 1.0
C      1  0.5173530000000  0.5592040000000  0.5705550000000 1.0
C      1  0.4636260000000  0.5219230000000  0.5772920000000 1.0
C      1  0.5733570000000  0.4855090000000  0.4220740000000 1.0
C      1  0.5303050000000  0.5303760000000  0.5046190000000 1.0
C      1  0.5157590000000  0.5347790000000  0.4330710000000 1.0
C      1  0.5019860000000  0.5691600000000  0.4165980000000 1.0
C      1  0.5426340000000  0.5930340000000  0.5352420000000 1.0
C      1  0.5874190000000  0.5272670000000  0.4540270000000 1.0
C      1  0.4981270000000  0.4792410000000  0.6029750000000 1.0
C      1  0.5030630000000  0.4209040000000  0.5180040000000 1.0
C      1  0.5222730000000  0.6060650000000  0.4602130000000 1.0
C      1  0.5951420000000  0.4770130000000  0.5156560000000 1.0
C      1  0.5064210000000  0.6204290000000  0.5104970000000 1.0
C      1  0.4785670000000  0.5454590000000  0.4884440000000 1.0
C      1  0.5665550000000  0.4334420000000  0.5400570000000 1.0
C      1  0.5720830000000  0.5760430000000  0.5361060000000 1.0
C      1  0.4861780000000  0.4674620000000  0.4888580000000 1.0
C      1  0.5351740000000  0.5242730000000  0.4589060000000 1.0
C      1  0.5369760000000  0.4856990000000  0.6001630000000 1.0
C      1  0.5020890000000  0.4155750000000  0.5721920000000 1.0
C      1  0.3974340000000  0.5428100000000  0.5127540000000 1.0
C      1  0.4610990000000  0.4175350000000  0.5712020000000 1.0
C      1  0.4962050000000  0.4648010000000  0.3944500000000 1.0
C      1  0.6009800000000  0.5472770000000  0.4662000000000 1.0
C      1  0.5822200000000  0.5612200000000  0.5134450000000 1.0
C      1  0.6006390000000  0.4265490000000  0.4598740000000 1.0
C      1  0.4774270000000  0.4644940000000  0.5213430000000 1.0
C      1  0.5822400000000  0.5654170000000  0.4840990000000 1.0
C      1  0.5218020000000  0.4247180000000  0.5460390000000 1.0
C      1  0.5201670000000  0.4612700000000  0.5877820000000 1.0
C      1  0.4468460000000  0.5431300000000  0.5004830000000 1.0
C      1  0.4257680000000  0.5462030000000  0.4272290000000 1.0
C      1  0.4440330000000  0.5141000000000  0.4119760000000 1.0
C      1  0.5219900000000  0.4665160000000  0.5064050000000 1.0
C      1  0.5073310000000  0.5816560000000  0.5009950000000 1.0
C      1  0.4731520000000  0.3778790000000  0.5020720000000 1.0
C      1  0.5694110000000  0.4161780000000  0.5606050000000 1.0
C      1  0.5117250000000  0.5449110000000  0.3948410000000 1.0
C      1  0.5486030000000  0.4183580000000  0.5808960000000 1.0
C      1  0.4000000000000  0.5132560000000  0.5029510000000 1.0
C      1  0.5260320000000  0.4057370000000  0.5899380000000 1.0
C      1  0.4962560000000  0.4967000000000  0.4348770000000 1.0
C      1  0.5579670000000  0.4246590000000  0.4770390000000 1.0
C      1  0.5606400000000  0.4634870000000  0.5488250000000 1.0
C      1  0.4676930000000  0.6064650000000  0.5412190000000 1.0
C      1  0.4559520000000  0.6045830000000  0.5102640000000 1.0
C      1  0.4415080000000  0.5902170000000  0.5497040000000 1.0
C      1  0.4575900000000  0.5103780000000  0.4429410000000 1.0
C      1  0.4330860000000  0.4837300000000  0.4242990000000 1.0
C      1  0.4466640000000  0.5787540000000  0.4721720000000 1.0
C      1  0.4283570000000  0.4561910000000  0.5756390000000 1.0
C      1  0.5454530000000  0.5511630000000  0.4306530000000 1.0
C      1  0.5177170000000  0.5035420000000  0.5548870000000 1.0
C      1  0.4363570000000  0.5167490000000  0.4650620000000 1.0
C      1  0.3884470000000  0.4829130000000  0.5128470000000 1.0
C      1  0.5260700000000  0.4797080000000  0.5374770000000 1.0
C      1  0.5536930000000  0.4285680000000  0.5105420000000 1.0
C      1  0.4866590000000  0.5207480000000  0.4569340000000 1.0
C      1  0.6040710000000  0.4938430000000  0.4952160000000 1.0
C      1  0.5558110000000  0.4817190000000  0.5211190000000 1.0
C      1  0.4187880000000  0.4766580000000  0.4463740000000 1.0
C      1  0.5230680000000  0.5275720000000  0.5353360000000 1.0
C      1  0.5079530000000  0.4499550000000  0.4715780000000 1.0
C      1  0.4823490000000  0.3981920000000  0.5530190000000 1.0
C      1  0.4759120000000  0.4332860000000  0.5198180000000 1.0
C      1  0.5560780000000  0.5488370000000  0.4699770000000 1.0
C      1  0.4925460000000  0.5294120000000  0.5302060000000 1.0
C      1  0.4801070000000  0.4369720000000  0.4637290000000 1.0
C      1  0.5802350000000  0.4102770000000  0.4698800000000 1.0
C      1  0.4848800000000  0.4995790000000  0.5629410000000 1.0
C      1  0.4716710000000  0.4038810000000  0.4631420000000 1.0
C      1  0.5381050000000  0.4085190000000  0.4416120000000 1.0
C      1  0.5477120000000  0.5311680000000  0.6068340000000 1.0
C      1  0.4519850000000  0.4227550000000  0.4996790000000 1.0
C      1  0.4889610000000  0.4942560000000  0.3886180000000 1.0
C      1  0.5750370000000  0.5581030000000  0.5604910000000 1.0
C      1  0.5454710000000  0.5573040000000  0.4990700000000 1.0
C      1  0.4996640000000  0.4926240000000  0.5039210000000 1.0
C      1  0.5704860000000  0.4573840000000  0.5038680000000 1.0
C      1  0.4770720000000  0.5418850000000  0.5552580000000 1.0
C      1  0.4832490000000  0.5337900000000  0.4200380000000 1.0
C      1  0.4985040000000  0.4483150000000  0.5680720000000 1.0
C      1  0.4481030000000  0.4644820000000  0.5492250000000 1.0
C      1  0.4256620000000  0.4960930000000  0.5164090000000 1.0
C      1  0.5355680000000  0.4959060000000  0.4157330000000 1.0
C      1  0.4656660000000  0.4912140000000  0.5387780000000 1.0
C      1  0.5798890000000  0.4680860000000  0.4743810000000 1.0
C      1  0.5369390000000  0.5575710000000  0.4010380000000 1.0
C      1  0.4096840000000  0.5541350000000  0.5353530000000 1.0
C      1  0.5076980000000  0.5136500000000  0.4076740000000 1.0
C      1  0.4973720000000  0.6156640000000  0.5538500000000 1.0
C      1  0.5700690000000  0.5336270000000  0.4310930000000 1.0
C      1  0.4549170000000  0.5620020000000  0.5421200000000 1.0
C      1  0.5369070000000  0.5660260000000  0.5522730000000 1.0
C      1  0.5091960000000  0.5346880000000  0.4782510000000 1.0
C      1  0.5293790000000  0.4646310000000  0.4040390000000 1.0
C      1  0.5277570000000  0.4934320000000  0.4873130000000 1.0
C      1  0.5379370000000  0.5120140000000  0.5809730000000 1.0
C      1  0.5240830000000  0.3900600000000  0.4924460000000 1.0
C      1  0.5385860000000  0.4449830000000  0.4576310000000 1.0
C      1  0.5174960000000  0.6133250000000  0.5349220000000 1.0
C      1  0.4625930000000  0.5027050000000  0.3871270000000 1.0
C      1  0.5871250000000  0.4508850000000  0.4529970000000 1.0
C      1  0.4558870000000  0.4979960000000  0.4823710000000 1.0
C      1  0.4896660000000  0.5725590000000  0.5627890000000 1.0
C      1  0.5844870000000  0.5295370000000  0.5629170000000 1.0
C      1  0.5927830000000  0.5174330000000  0.5385470000000 1.0
C      1  0.4770540000000  0.4281020000000  0.4321040000000 1.0
C      1  0.5582930000000  0.5003160000000  0.4495230000000 1.0
C      1  0.4532640000000  0.5468050000000  0.4106660000000 1.0
C      1  0.4366970000000  0.5500780000000  0.4584600000000 1.0
C      1  0.5199180000000  0.4938970000000  0.4581020000000 1.0
C      1  0.4687410000000  0.5481410000000  0.4472440000000 1.0
C      1  0.5557080000000  0.5082950000000  0.4997180000000 1.0
C      1  0.4494950000000  0.5174470000000  0.5243220000000 1.0
C      1  0.4740470000000  0.4771240000000  0.5854120000000 1.0
C      1  0.5644890000000  0.4450450000000  0.4355960000000 1.0
C      1  0.5173710000000  0.5663430000000  0.4722940000000 1.0
C      1  0.4348150000000  0.4720480000000  0.4760090000000 1.0
C      1  0.5932260000000  0.4893050000000  0.5402270000000 1.0
C      1  0.5371060000000  0.4000010000000  0.5186560000000 1.0
C      1  0.5007650000000  0.5829360000000  0.4476990000000 1.0
C      1  0.5025760000000  0.4593380000000  0.5404730000000 1.0
C      1  0.4508250000000  0.4431450000000  0.4761860000000 1.0
C      1  0.4790550000000  0.5764140000000  0.4732490000000 1.0
C      1  0.4567050000000  0.4152630000000  0.5385130000000 1.0
C      1  0.5383380000000  0.4461020000000  0.5653240000000 1.0
C      1  0.5133930000000  0.5345200000000  0.5867310000000 1.0
C      1  0.4452450000000  0.4336720000000  0.4267410000000 1.0
C      1  0.4665240000000  0.4805860000000  0.4292050000000 1.0
END
