TITL C-2848498-1409-394 -0.00367203580815873 125000 -639.544716735865 0 0 117 (C1) n - 1
REM
REM in /home/bkarasulu/work/CARBON/AIRSS/Generating-Clusters/AIREBO/with-SteepDescent/Only-C1/SD-CG-opt/Try1-1.4A-POS3A/HFTN-CG
REM
REM
REM
REM
REM
REM ./C.cell (11c1c37f851c82e70ff6c80c92926a4b)
REM
REM compiler GCC version 9.2.1 20190827 (Red Hat 9.2.1-1)
REM options -cpp -mtune=generic -march=x86-64 -g -O0 -fpre-include=/usr/include/finclude/math-vector-fortran.h
REM seed 1629539981 -410203120 1315441928 846808797 1594258075 2106379291 1894335717 1089640817 1239527909 -1929592352 -1788305559 1462328481 -1144785522 2078687121 1950450631 7723033 1542167432 -1285211450 -1878678648 909182720 562234667 1703305494 -1553879534 514449006 -372797579 -652879980 1983901859 -1288465223 314438170 -1852678318 -163664746 123691834 -1542707729
REM
CELL 1.54180   50.00000   50.00000   50.00000   90.00000   90.00000   90.00000
LATT -1
SFAC C  
C      1  0.4461950000000  0.5246980000000  0.5765200000000 1.0
C      1  0.5660640000000  0.4349500000000  0.5113190000000 1.0
C      1  0.4616860000000  0.5354100000000  0.5267450000000 1.0
C      1  0.4201210000000  0.5238440000000  0.5677140000000 1.0
C      1  0.5048720000000  0.5766910000000  0.4358500000000 1.0
C      1  0.5548970000000  0.5702510000000  0.5022130000000 1.0
C      1  0.5700620000000  0.4810830000000  0.5707750000000 1.0
C      1  0.4739890000000  0.4192090000000  0.4964010000000 1.0
C      1  0.4073010000000  0.4997980000000  0.5771730000000 1.0
C      1  0.4856150000000  0.5053510000000  0.5158160000000 1.0
C      1  0.5027290000000  0.4831630000000  0.5350860000000 1.0
C      1  0.4955380000000  0.5683780000000  0.4108640000000 1.0
C      1  0.5101120000000  0.4044970000000  0.4552680000000 1.0
C      1  0.4701480000000  0.5370180000000  0.4953000000000 1.0
C      1  0.5065550000000  0.4438090000000  0.4616790000000 1.0
C      1  0.5194420000000  0.5942020000000  0.4766500000000 1.0
C      1  0.5055280000000  0.4153950000000  0.5085170000000 1.0
C      1  0.4521960000000  0.4763010000000  0.5158070000000 1.0
C      1  0.5428180000000  0.4607940000000  0.4341000000000 1.0
C      1  0.4205200000000  0.5269070000000  0.5346980000000 1.0
C      1  0.4649270000000  0.4206040000000  0.4449790000000 1.0
C      1  0.3992790000000  0.4878150000000  0.4992920000000 1.0
C      1  0.4675570000000  0.4691710000000  0.4784090000000 1.0
C      1  0.4962280000000  0.5213750000000  0.4183790000000 1.0
C      1  0.5549090000000  0.4930890000000  0.5490980000000 1.0
C      1  0.4169590000000  0.4771360000000  0.5584160000000 1.0
C      1  0.4574360000000  0.3959110000000  0.5148230000000 1.0
C      1  0.4481170000000  0.4242480000000  0.4724610000000 1.0
C      1  0.5465710000000  0.5559800000000  0.4494990000000 1.0
C      1  0.4648450000000  0.5967280000000  0.5074690000000 1.0
C      1  0.4979000000000  0.5943880000000  0.4996990000000 1.0
C      1  0.4770200000000  0.4340940000000  0.4244200000000 1.0
C      1  0.5076580000000  0.5539340000000  0.4571200000000 1.0
C      1  0.5616860000000  0.4507870000000  0.4815530000000 1.0
C      1  0.5420020000000  0.5755090000000  0.4769700000000 1.0
C      1  0.5053830000000  0.5251050000000  0.5300870000000 1.0
C      1  0.5216530000000  0.4169720000000  0.5313200000000 1.0
C      1  0.4533320000000  0.5123790000000  0.4649050000000 1.0
C      1  0.4302450000000  0.4778930000000  0.4949330000000 1.0
C      1  0.5865280000000  0.5264420000000  0.4954310000000 1.0
C      1  0.4921900000000  0.5293580000000  0.4714710000000 1.0
C      1  0.5056670000000  0.4492200000000  0.4255850000000 1.0
C      1  0.5241510000000  0.4261000000000  0.4407510000000 1.0
C      1  0.5726720000000  0.5203710000000  0.5775640000000 1.0
C      1  0.5300570000000  0.4999570000000  0.5113220000000 1.0
C      1  0.5590170000000  0.5229270000000  0.5388310000000 1.0
C      1  0.5289320000000  0.4681440000000  0.3833470000000 1.0
C      1  0.5774190000000  0.4944880000000  0.4456860000000 1.0
C      1  0.4861660000000  0.5046500000000  0.5905060000000 1.0
C      1  0.5518840000000  0.4725550000000  0.5948150000000 1.0
C      1  0.4310810000000  0.4515620000000  0.4764280000000 1.0
C      1  0.5231600000000  0.4621330000000  0.5523020000000 1.0
C      1  0.4691020000000  0.4899280000000  0.4449910000000 1.0
C      1  0.4175260000000  0.4295270000000  0.4968180000000 1.0
C      1  0.5359520000000  0.5013920000000  0.4720660000000 1.0
C      1  0.4734290000000  0.4522710000000  0.5043690000000 1.0
C      1  0.4714130000000  0.4661220000000  0.5736160000000 1.0
C      1  0.5105590000000  0.4889620000000  0.4879590000000 1.0
C      1  0.4529060000000  0.5389500000000  0.4488800000000 1.0
C      1  0.5922200000000  0.5287810000000  0.5602980000000 1.0
C      1  0.5422820000000  0.4736600000000  0.5272880000000 1.0
C      1  0.4195620000000  0.4776060000000  0.4360570000000 1.0
C      1  0.5839290000000  0.4928230000000  0.4981380000000 1.0
C      1  0.5588960000000  0.4470540000000  0.4514080000000 1.0
C      1  0.3941300000000  0.5126870000000  0.4997690000000 1.0
C      1  0.4444600000000  0.5791780000000  0.5127290000000 1.0
C      1  0.4939380000000  0.4723370000000  0.4557710000000 1.0
C      1  0.5355580000000  0.5645480000000  0.5268980000000 1.0
C      1  0.5107220000000  0.6002270000000  0.4503240000000 1.0
C      1  0.5219000000000  0.5082920000000  0.4141840000000 1.0
C      1  0.5534000000000  0.5321820000000  0.4903170000000 1.0
C      1  0.4741230000000  0.5319300000000  0.5842580000000 1.0
C      1  0.5857980000000  0.4602220000000  0.5038360000000 1.0
C      1  0.4968300000000  0.4489500000000  0.5784760000000 1.0
C      1  0.4408260000000  0.5540330000000  0.4926280000000 1.0
C      1  0.5863210000000  0.5335820000000  0.5286890000000 1.0
C      1  0.4730880000000  0.4676550000000  0.5411860000000 1.0
C      1  0.4890830000000  0.5497190000000  0.5377950000000 1.0
C      1  0.4817010000000  0.5436590000000  0.4092510000000 1.0
C      1  0.5798580000000  0.5581350000000  0.5058270000000 1.0
C      1  0.4843300000000  0.4094770000000  0.4654990000000 1.0
C      1  0.5437740000000  0.5284280000000  0.5679660000000 1.0
C      1  0.5246630000000  0.4671980000000  0.5855230000000 1.0
C      1  0.5362800000000  0.5318480000000  0.5175920000000 1.0
C      1  0.4871330000000  0.5637130000000  0.5075220000000 1.0
C      1  0.4561930000000  0.5605430000000  0.4662860000000 1.0
C      1  0.4797800000000  0.5004300000000  0.4826530000000 1.0
C      1  0.5528260000000  0.4808370000000  0.4948210000000 1.0
C      1  0.5431950000000  0.5301630000000  0.4292100000000 1.0
C      1  0.6087820000000  0.5310020000000  0.4771630000000 1.0
C      1  0.5140930000000  0.5866590000000  0.5261360000000 1.0
C      1  0.5723860000000  0.4981620000000  0.5982340000000 1.0
C      1  0.4419200000000  0.4749320000000  0.4568100000000 1.0
C      1  0.4829700000000  0.5679850000000  0.4740070000000 1.0
C      1  0.5508830000000  0.4996450000000  0.4353150000000 1.0
C      1  0.4295460000000  0.5073480000000  0.4820910000000 1.0
C      1  0.5016170000000  0.4850060000000  0.5988140000000 1.0
C      1  0.5908130000000  0.4969750000000  0.4665370000000 1.0
C      1  0.4042590000000  0.4976980000000  0.5376800000000 1.0
C      1  0.4868640000000  0.5147750000000  0.4435500000000 1.0
C      1  0.5496750000000  0.4179520000000  0.5255270000000 1.0
C      1  0.4360810000000  0.4067200000000  0.4987170000000 1.0
C      1  0.4592890000000  0.5042520000000  0.5344680000000 1.0
C      1  0.5425110000000  0.5588630000000  0.5575530000000 1.0
C      1  0.5237820000000  0.4840710000000  0.4488020000000 1.0
C      1  0.4642060000000  0.4983040000000  0.5652450000000 1.0
C      1  0.5081970000000  0.4388280000000  0.4900340000000 1.0
C      1  0.4198070000000  0.5330540000000  0.5012160000000 1.0
C      1  0.5240000000000  0.5072440000000  0.5499400000000 1.0
C      1  0.4554840000000  0.5429140000000  0.4209550000000 1.0
C      1  0.4421420000000  0.4663270000000  0.5563110000000 1.0
C      1  0.4861500000000  0.5522870000000  0.5685700000000 1.0
C      1  0.5043550000000  0.4647500000000  0.5065500000000 1.0
C      1  0.5318660000000  0.5323620000000  0.4674050000000 1.0
C      1  0.4377730000000  0.5556780000000  0.5321620000000 1.0
C      1  0.5227040000000  0.4743550000000  0.4102560000000 1.0
C      1  0.5111420000000  0.4320260000000  0.5526900000000 1.0
END
