TITL C-2847948-6138-68 -9.9150881172847e-05 125000 -385.421887186832 0 0 75 (C1) n - 1
REM
REM in /home/bkarasulu/work/CARBON/AIRSS/Generating-Clusters/AIREBO/with-SteepDescent/Only-C1/SD-CG-opt/Try1-1.4A-POS3A/HFTN-CG
REM
REM
REM
REM
REM
REM ./C.cell (11c1c37f851c82e70ff6c80c92926a4b)
REM
REM compiler GCC version 9.2.1 20190827 (Red Hat 9.2.1-1)
REM options -cpp -mtune=generic -march=x86-64 -g -O0 -fpre-include=/usr/include/finclude/math-vector-fortran.h
REM seed -1924268566 1781350060 -410914567 1400100684 -871457602 1949936777 1795170144 760651923 2048377183 590347580 86534487 2097706289 -1749433768 -169631356 1331669794 833621975 -824197914 -983964633 1166559974 823467536 1629248092 681615181 -149559515 1642472908 1029682936 979168391 615975990 383262016 -1623857014 -1952675258 -1929148491 -1575195713 73955272
REM
CELL 1.54180   50.00000   50.00000   50.00000   90.00000   90.00000   90.00000
LATT -1
SFAC C  
C      1  0.5320770000000  0.5011880000000  0.5186590000000 1.0
C      1  0.4457710000000  0.5258210000000  0.5643130000000 1.0
C      1  0.4581900000000  0.4752750000000  0.4299500000000 1.0
C      1  0.4946760000000  0.5658550000000  0.4295070000000 1.0
C      1  0.5613640000000  0.5260700000000  0.5524340000000 1.0
C      1  0.5366260000000  0.4671530000000  0.4586000000000 1.0
C      1  0.4723410000000  0.4901190000000  0.5228920000000 1.0
C      1  0.4180100000000  0.4972780000000  0.5103660000000 1.0
C      1  0.4156360000000  0.4647740000000  0.5091600000000 1.0
C      1  0.5462830000000  0.4723720000000  0.5074640000000 1.0
C      1  0.5654940000000  0.4798880000000  0.4831710000000 1.0
C      1  0.5055930000000  0.4248030000000  0.4724450000000 1.0
C      1  0.4950470000000  0.4895380000000  0.4977620000000 1.0
C      1  0.4263560000000  0.5277210000000  0.4585940000000 1.0
C      1  0.5075190000000  0.5556810000000  0.4815210000000 1.0
C      1  0.5225370000000  0.5306380000000  0.4290690000000 1.0
C      1  0.4810200000000  0.5166950000000  0.4623980000000 1.0
C      1  0.5310050000000  0.4774810000000  0.5507820000000 1.0
C      1  0.4989120000000  0.4216940000000  0.5338260000000 1.0
C      1  0.4244800000000  0.5146440000000  0.4343000000000 1.0
C      1  0.4797840000000  0.4986200000000  0.4362240000000 1.0
C      1  0.5347700000000  0.4887590000000  0.4427130000000 1.0
C      1  0.5315810000000  0.5203880000000  0.5476950000000 1.0
C      1  0.5077530000000  0.5135410000000  0.4777200000000 1.0
C      1  0.5419860000000  0.4370630000000  0.5420520000000 1.0
C      1  0.5114660000000  0.5091970000000  0.5706610000000 1.0
C      1  0.5256770000000  0.4208080000000  0.5245530000000 1.0
C      1  0.5348360000000  0.5188680000000  0.4585130000000 1.0
C      1  0.5099800000000  0.5247700000000  0.5080660000000 1.0
C      1  0.4692220000000  0.5205340000000  0.4100730000000 1.0
C      1  0.4795040000000  0.5230840000000  0.5186040000000 1.0
C      1  0.4450360000000  0.5244930000000  0.4778330000000 1.0
C      1  0.5358630000000  0.5487100000000  0.4748380000000 1.0
C      1  0.5225450000000  0.5477950000000  0.5297040000000 1.0
C      1  0.5295780000000  0.4550020000000  0.4864640000000 1.0
C      1  0.4783450000000  0.5162400000000  0.5666450000000 1.0
C      1  0.4969690000000  0.4499830000000  0.4954600000000 1.0
C      1  0.5171540000000  0.4775130000000  0.5817020000000 1.0
C      1  0.5010920000000  0.5096660000000  0.4148520000000 1.0
C      1  0.5746470000000  0.5025860000000  0.5611480000000 1.0
C      1  0.5641640000000  0.4789400000000  0.5510380000000 1.0
C      1  0.5273760000000  0.4241000000000  0.4966150000000 1.0
C      1  0.5518570000000  0.5752230000000  0.4896590000000 1.0
C      1  0.5587770000000  0.4571830000000  0.5307490000000 1.0
C      1  0.4784670000000  0.4446960000000  0.4674220000000 1.0
C      1  0.4750570000000  0.5629770000000  0.4908780000000 1.0
C      1  0.5727220000000  0.5401330000000  0.5311730000000 1.0
C      1  0.4548130000000  0.4342420000000  0.4894980000000 1.0
C      1  0.4849200000000  0.5628540000000  0.4594570000000 1.0
C      1  0.4574320000000  0.5400150000000  0.5005560000000 1.0
C      1  0.5546080000000  0.5451430000000  0.5029820000000 1.0
C      1  0.5913020000000  0.5228800000000  0.5138580000000 1.0
C      1  0.4286560000000  0.5107270000000  0.5391050000000 1.0
C      1  0.5598860000000  0.5140760000000  0.5039080000000 1.0
C      1  0.4388350000000  0.4546880000000  0.5279760000000 1.0
C      1  0.4443420000000  0.5015320000000  0.4191230000000 1.0
C      1  0.5022160000000  0.5676120000000  0.5109780000000 1.0
C      1  0.4815920000000  0.4898680000000  0.5527840000000 1.0
C      1  0.4648420000000  0.4502640000000  0.4379060000000 1.0
C      1  0.4437710000000  0.4795340000000  0.4970290000000 1.0
C      1  0.4985350000000  0.5589500000000  0.5505680000000 1.0
C      1  0.5344740000000  0.5769920000000  0.5162400000000 1.0
C      1  0.5282510000000  0.4480300000000  0.5675480000000 1.0
C      1  0.4675040000000  0.4586150000000  0.5101070000000 1.0
C      1  0.5268860000000  0.4917850000000  0.4167580000000 1.0
C      1  0.5097940000000  0.4763990000000  0.5254460000000 1.0
C      1  0.4439030000000  0.4834820000000  0.5368120000000 1.0
C      1  0.4459250000000  0.5392700000000  0.5325410000000 1.0
C      1  0.4770640000000  0.5408850000000  0.5464070000000 1.0
C      1  0.4896010000000  0.4505840000000  0.5346860000000 1.0
C      1  0.4837540000000  0.4776670000000  0.4699620000000 1.0
C      1  0.4581750000000  0.4959990000000  0.4767520000000 1.0
C      1  0.5608080000000  0.5067530000000  0.4735260000000 1.0
C      1  0.4938050000000  0.4671600000000  0.5608620000000 1.0
C      1  0.4791580000000  0.5384350000000  0.4363550000000 1.0
END
