TITL C-2847956-8218-326 -0.00124409055275974 125000 -987.737363212637 0 0 183 (C1) n - 1
REM
REM in /home/bkarasulu/work/CARBON/AIRSS/Generating-Clusters/AIREBO/with-SteepDescent/Only-C1/SD-CG-opt/Try1-1.4A-POS3A/HFTN-CG
REM
REM
REM
REM
REM
REM ./C.cell (11c1c37f851c82e70ff6c80c92926a4b)
REM
REM compiler GCC version 9.2.1 20190827 (Red Hat 9.2.1-1)
REM options -cpp -mtune=generic -march=x86-64 -g -O0 -fpre-include=/usr/include/finclude/math-vector-fortran.h
REM seed 662533177 1263319403 -475356012 -168674191 -1073608789 1147645146 1130530204 -824560152 2145892426 -362728683 493419634 1482932734 -2095998269 -857120989 -1139414345 -583966618 -1341557833 243339373 -378174344 1516807134 -1498201310 1538301521 -1034251661 -913906540 1319816315 -2095372639 1491664972 -365454339 -1524661846 1880411663 -1159003433 -603730369 1926631894
REM
CELL 1.54180   50.00000   50.00000   50.00000   90.00000   90.00000   90.00000
LATT -1
SFAC C  
C      1  0.5357180000000  0.5448570000000  0.5885670000000 1.0
C      1  0.4728190000000  0.5522120000000  0.5578380000000 1.0
C      1  0.5453800000000  0.4292640000000  0.4256270000000 1.0
C      1  0.5091870000000  0.4051690000000  0.5134110000000 1.0
C      1  0.5903070000000  0.5116600000000  0.5513940000000 1.0
C      1  0.5368360000000  0.4312300000000  0.5016950000000 1.0
C      1  0.5817700000000  0.4925270000000  0.4938400000000 1.0
C      1  0.6179830000000  0.4922100000000  0.5277350000000 1.0
C      1  0.5415800000000  0.3990920000000  0.5093610000000 1.0
C      1  0.4588770000000  0.5531630000000  0.4408370000000 1.0
C      1  0.5207970000000  0.3864980000000  0.4681680000000 1.0
C      1  0.5483200000000  0.4618210000000  0.4251900000000 1.0
C      1  0.4497120000000  0.5232610000000  0.4451330000000 1.0
C      1  0.5219700000000  0.4479770000000  0.4416500000000 1.0
C      1  0.4766100000000  0.5159380000000  0.4918930000000 1.0
C      1  0.5317380000000  0.5659630000000  0.4585900000000 1.0
C      1  0.4552810000000  0.5481140000000  0.5289970000000 1.0
C      1  0.5647830000000  0.5268550000000  0.5574000000000 1.0
C      1  0.4239970000000  0.5514390000000  0.4845100000000 1.0
C      1  0.5155770000000  0.5475690000000  0.5304890000000 1.0
C      1  0.3965250000000  0.4766420000000  0.5416830000000 1.0
C      1  0.4819200000000  0.5967390000000  0.5330580000000 1.0
C      1  0.5880660000000  0.5516360000000  0.5206180000000 1.0
C      1  0.4712070000000  0.5075560000000  0.4618310000000 1.0
C      1  0.5486620000000  0.5302940000000  0.5188580000000 1.0
C      1  0.5452420000000  0.5077080000000  0.4348840000000 1.0
C      1  0.4697440000000  0.4110800000000  0.4388170000000 1.0
C      1  0.4075000000000  0.4720390000000  0.4563250000000 1.0
C      1  0.5656640000000  0.5263390000000  0.4776510000000 1.0
C      1  0.5823980000000  0.5582910000000  0.4607810000000 1.0
C      1  0.5477330000000  0.4531640000000  0.5753570000000 1.0
C      1  0.4848650000000  0.5067800000000  0.6153690000000 1.0
C      1  0.4419610000000  0.4939480000000  0.5268160000000 1.0
C      1  0.5661840000000  0.5541670000000  0.5465340000000 1.0
C      1  0.5419760000000  0.5787740000000  0.5435960000000 1.0
C      1  0.5309070000000  0.5983820000000  0.5046100000000 1.0
C      1  0.4997310000000  0.5551440000000  0.4123130000000 1.0
C      1  0.5163770000000  0.4698360000000  0.3862860000000 1.0
C      1  0.5489370000000  0.4968140000000  0.5882430000000 1.0
C      1  0.5027780000000  0.4130940000000  0.4610700000000 1.0
C      1  0.4422240000000  0.4467480000000  0.4561970000000 1.0
C      1  0.5108400000000  0.4606800000000  0.4952260000000 1.0
C      1  0.4837960000000  0.5948370000000  0.4340260000000 1.0
C      1  0.4529180000000  0.5841310000000  0.5459260000000 1.0
C      1  0.5782020000000  0.5589990000000  0.4302710000000 1.0
C      1  0.5700980000000  0.4989450000000  0.4649510000000 1.0
C      1  0.4545860000000  0.4307920000000  0.5416400000000 1.0
C      1  0.5084180000000  0.4613030000000  0.5441440000000 1.0
C      1  0.4009360000000  0.4997020000000  0.5554680000000 1.0
C      1  0.5910130000000  0.4660870000000  0.4730030000000 1.0
C      1  0.4474580000000  0.6048410000000  0.4832040000000 1.0
C      1  0.5042200000000  0.5097130000000  0.5943560000000 1.0
C      1  0.5158010000000  0.5988480000000  0.5351200000000 1.0
C      1  0.5899140000000  0.5441060000000  0.4908010000000 1.0
C      1  0.5051190000000  0.6253540000000  0.5177150000000 1.0
C      1  0.5394420000000  0.4509220000000  0.5447530000000 1.0
C      1  0.4639480000000  0.4606180000000  0.5550860000000 1.0
C      1  0.5422420000000  0.4272850000000  0.5967150000000 1.0
C      1  0.4907440000000  0.5084470000000  0.5646950000000 1.0
C      1  0.5249600000000  0.5568890000000  0.5618330000000 1.0
C      1  0.5619800000000  0.4197880000000  0.4696940000000 1.0
C      1  0.5542270000000  0.4527330000000  0.4650230000000 1.0
C      1  0.4037270000000  0.5058230000000  0.4571550000000 1.0
C      1  0.4019460000000  0.5754380000000  0.5438080000000 1.0
C      1  0.5647320000000  0.4149590000000  0.4394030000000 1.0
C      1  0.5474300000000  0.5035000000000  0.5397800000000 1.0
C      1  0.4382660000000  0.4717840000000  0.5669310000000 1.0
C      1  0.4883040000000  0.3975670000000  0.5391510000000 1.0
C      1  0.5589180000000  0.4299890000000  0.5277290000000 1.0
C      1  0.4422980000000  0.4522700000000  0.5199830000000 1.0
C      1  0.5945290000000  0.4946410000000  0.4462020000000 1.0
C      1  0.4509040000000  0.4780340000000  0.4793810000000 1.0
C      1  0.4597410000000  0.5710700000000  0.5765690000000 1.0
C      1  0.4903070000000  0.3893300000000  0.4822750000000 1.0
C      1  0.5579430000000  0.4810720000000  0.5631080000000 1.0
C      1  0.4855860000000  0.4619610000000  0.4272220000000 1.0
C      1  0.4502070000000  0.4428820000000  0.6016000000000 1.0
C      1  0.5095850000000  0.6186320000000  0.4878730000000 1.0
C      1  0.3690430000000  0.4600280000000  0.4939370000000 1.0
C      1  0.5266670000000  0.6159450000000  0.4551670000000 1.0
C      1  0.4360990000000  0.5229770000000  0.4727610000000 1.0
C      1  0.4975240000000  0.4342210000000  0.5266780000000 1.0
C      1  0.5534460000000  0.5243060000000  0.5848030000000 1.0
C      1  0.4705160000000  0.4139810000000  0.5619020000000 1.0
C      1  0.4529440000000  0.4177650000000  0.4595770000000 1.0
C      1  0.4489860000000  0.4912660000000  0.6070770000000 1.0
C      1  0.5412550000000  0.4043710000000  0.5414410000000 1.0
C      1  0.5646210000000  0.5428520000000  0.4154680000000 1.0
C      1  0.4714640000000  0.3926040000000  0.5103920000000 1.0
C      1  0.4929290000000  0.4732370000000  0.5163200000000 1.0
C      1  0.5074520000000  0.4281550000000  0.4884170000000 1.0
C      1  0.4263750000000  0.5548070000000  0.4506980000000 1.0
C      1  0.4050530000000  0.5261370000000  0.5423040000000 1.0
C      1  0.4767840000000  0.4855690000000  0.5437510000000 1.0
C      1  0.5040970000000  0.4681500000000  0.6004890000000 1.0
C      1  0.5146260000000  0.5790210000000  0.4849220000000 1.0
C      1  0.4599830000000  0.5078050000000  0.5794780000000 1.0
C      1  0.3984070000000  0.5297240000000  0.5124940000000 1.0
C      1  0.4886880000000  0.5421370000000  0.4529820000000 1.0
C      1  0.5443120000000  0.4923290000000  0.5076170000000 1.0
C      1  0.6125470000000  0.5144560000000  0.4487300000000 1.0
C      1  0.5243560000000  0.4890520000000  0.5967670000000 1.0
C      1  0.5076150000000  0.5020190000000  0.4929990000000 1.0
C      1  0.4754520000000  0.5701430000000  0.5127080000000 1.0
C      1  0.4994300000000  0.4591900000000  0.4645180000000 1.0
C      1  0.5339750000000  0.5568920000000  0.5034300000000 1.0
C      1  0.6433550000000  0.4880640000000  0.5222120000000 1.0
C      1  0.4793310000000  0.5307220000000  0.3746460000000 1.0
C      1  0.4289490000000  0.4533650000000  0.5849000000000 1.0
C      1  0.5763590000000  0.4269130000000  0.4986780000000 1.0
C      1  0.4390230000000  0.6040410000000  0.5096600000000 1.0
C      1  0.5977220000000  0.4665850000000  0.5307930000000 1.0
C      1  0.5757820000000  0.4664930000000  0.4426060000000 1.0
C      1  0.5139790000000  0.4168580000000  0.5508700000000 1.0
C      1  0.4324650000000  0.5383530000000  0.5522540000000 1.0
C      1  0.4654250000000  0.4790540000000  0.4486470000000 1.0
C      1  0.3979940000000  0.4696810000000  0.4931330000000 1.0
C      1  0.5779120000000  0.4602550000000  0.5038380000000 1.0
C      1  0.5356230000000  0.5343770000000  0.4015060000000 1.0
C      1  0.4965830000000  0.6045970000000  0.4599320000000 1.0
C      1  0.5336750000000  0.5300140000000  0.4411930000000 1.0
C      1  0.4844510000000  0.4774470000000  0.6191960000000 1.0
C      1  0.4344850000000  0.5044610000000  0.5582890000000 1.0
C      1  0.5187540000000  0.5358370000000  0.4675330000000 1.0
C      1  0.5857980000000  0.4849890000000  0.5523620000000 1.0
C      1  0.4942800000000  0.4623060000000  0.3954480000000 1.0
C      1  0.5130110000000  0.4889650000000  0.4649900000000 1.0
C      1  0.5889680000000  0.4370450000000  0.5400300000000 1.0
C      1  0.4962690000000  0.5326530000000  0.3960770000000 1.0
C      1  0.4666710000000  0.5163650000000  0.5334390000000 1.0
C      1  0.4511480000000  0.5367150000000  0.4980860000000 1.0
C      1  0.4992380000000  0.5117500000000  0.5244850000000 1.0
C      1  0.5577200000000  0.5652090000000  0.4805150000000 1.0
C      1  0.4975660000000  0.5383350000000  0.5564220000000 1.0
C      1  0.4203890000000  0.5208250000000  0.3996390000000 1.0
C      1  0.5775070000000  0.5138040000000  0.5136450000000 1.0
C      1  0.4580590000000  0.4847850000000  0.4100510000000 1.0
C      1  0.4936840000000  0.4316170000000  0.4364100000000 1.0
C      1  0.4819870000000  0.5887690000000  0.4850140000000 1.0
C      1  0.4436700000000  0.4124810000000  0.5168800000000 1.0
C      1  0.5192670000000  0.4337970000000  0.5746930000000 1.0
C      1  0.4185480000000  0.4720300000000  0.5192320000000 1.0
C      1  0.5569610000000  0.5086010000000  0.4048920000000 1.0
C      1  0.4032760000000  0.5626480000000  0.5171520000000 1.0
C      1  0.5156540000000  0.4944760000000  0.5462310000000 1.0
C      1  0.4248210000000  0.5697750000000  0.5586110000000 1.0
C      1  0.5437100000000  0.5965250000000  0.4497180000000 1.0
C      1  0.4007980000000  0.5021010000000  0.5000170000000 1.0
C      1  0.4009720000000  0.5340400000000  0.4572260000000 1.0
C      1  0.4799000000000  0.5696500000000  0.4250920000000 1.0
C      1  0.4575460000000  0.4651650000000  0.6182600000000 1.0
C      1  0.5584140000000  0.5884880000000  0.5016210000000 1.0
C      1  0.5356100000000  0.5196400000000  0.4893240000000 1.0
C      1  0.5433560000000  0.4841670000000  0.4577620000000 1.0
C      1  0.3903890000000  0.5468830000000  0.4846240000000 1.0
C      1  0.4261350000000  0.4950490000000  0.4803530000000 1.0
C      1  0.4583480000000  0.5220460000000  0.6107240000000 1.0
C      1  0.4378750000000  0.5083120000000  0.4205170000000 1.0
C      1  0.5823600000000  0.3966820000000  0.4294290000000 1.0
C      1  0.4662670000000  0.4882480000000  0.5053300000000 1.0
C      1  0.5396200000000  0.4814020000000  0.4046730000000 1.0
C      1  0.4696770000000  0.4507820000000  0.4759760000000 1.0
C      1  0.5450190000000  0.4636470000000  0.4958860000000 1.0
C      1  0.4983210000000  0.5388860000000  0.5046580000000 1.0
C      1  0.4920040000000  0.4531050000000  0.5727990000000 1.0
C      1  0.5287220000000  0.5576280000000  0.4253360000000 1.0
C      1  0.4594760000000  0.4138810000000  0.4873280000000 1.0
C      1  0.4708160000000  0.4396880000000  0.5063530000000 1.0
C      1  0.4339460000000  0.5730400000000  0.5199740000000 1.0
C      1  0.5164590000000  0.5062860000000  0.4034980000000 1.0
C      1  0.4828550000000  0.5553340000000  0.4823780000000 1.0
C      1  0.4895390000000  0.4945710000000  0.4184070000000 1.0
C      1  0.4716570000000  0.4298690000000  0.5870260000000 1.0
C      1  0.6062330000000  0.5238610000000  0.5274830000000 1.0
C      1  0.4454050000000  0.4560710000000  0.4235990000000 1.0
C      1  0.4173350000000  0.4478180000000  0.4780840000000 1.0
C      1  0.4225040000000  0.4250420000000  0.4974820000000 1.0
C      1  0.5719080000000  0.5810070000000  0.5276010000000 1.0
C      1  0.6079070000000  0.5369000000000  0.4628660000000 1.0
C      1  0.4326190000000  0.4820160000000  0.4401940000000 1.0
C      1  0.4975990000000  0.5101250000000  0.4453960000000 1.0
C      1  0.5456110000000  0.3937160000000  0.4797880000000 1.0
C      1  0.4569500000000  0.6181620000000  0.5261590000000 1.0
END
