TITL C-2848496-4490-546 0.00391712100640235 125000 -610.367031589317 0 0 116 (C1) n - 1
REM
REM in /home/bkarasulu/work/CARBON/AIRSS/Generating-Clusters/AIREBO/with-SteepDescent/Only-C1/SD-CG-opt/Try1-1.4A-POS3A/HFTN-CG
REM
REM
REM
REM
REM
REM ./C.cell (11c1c37f851c82e70ff6c80c92926a4b)
REM
REM compiler GCC version 9.2.1 20190827 (Red Hat 9.2.1-1)
REM options -cpp -mtune=generic -march=x86-64 -g -O0 -fpre-include=/usr/include/finclude/math-vector-fortran.h
REM seed 876152942 -1610801174 -1814928634 -485373047 -1347988520 176864787 -2093873831 -1681703854 -1403577544 -497339109 1256079494 1302468776 530818862 2019335341 1579707815 -1594734846 857135807 -1697669462 1651125940 1566814025 1234726515 -92242447 -1402028901 1251016114 1689590338 -1811623360 1755343134 1437054570 -2100338517 -68390952 -2113913520 -1831014173 -1574183668
REM
CELL 1.54180   50.00000   50.00000   50.00000   90.00000   90.00000   90.00000
LATT -1
SFAC C  
C      1  0.4661510000000  0.4832590000000  0.4687860000000 1.0
C      1  0.5880200000000  0.5153580000000  0.4652420000000 1.0
C      1  0.5374080000000  0.5076670000000  0.4609510000000 1.0
C      1  0.5612580000000  0.5305760000000  0.4530220000000 1.0
C      1  0.4690180000000  0.5762730000000  0.5409110000000 1.0
C      1  0.4656820000000  0.4079510000000  0.5655980000000 1.0
C      1  0.4942210000000  0.5138670000000  0.4278040000000 1.0
C      1  0.5259050000000  0.5369140000000  0.4205920000000 1.0
C      1  0.5365830000000  0.4350460000000  0.4623230000000 1.0
C      1  0.5726840000000  0.5031010000000  0.4366990000000 1.0
C      1  0.5372650000000  0.4661600000000  0.4697910000000 1.0
C      1  0.4116980000000  0.5078590000000  0.5090090000000 1.0
C      1  0.5890960000000  0.4646300000000  0.4910530000000 1.0
C      1  0.4019450000000  0.5326000000000  0.5028480000000 1.0
C      1  0.4941920000000  0.4339660000000  0.4610550000000 1.0
C      1  0.5715840000000  0.4952810000000  0.5692300000000 1.0
C      1  0.5434530000000  0.5084890000000  0.5830320000000 1.0
C      1  0.4528250000000  0.5492400000000  0.4958220000000 1.0
C      1  0.5504740000000  0.5653470000000  0.5453500000000 1.0
C      1  0.5091420000000  0.4946650000000  0.4093670000000 1.0
C      1  0.5510930000000  0.5113630000000  0.5311010000000 1.0
C      1  0.4115840000000  0.4336790000000  0.5341080000000 1.0
C      1  0.4935760000000  0.5476100000000  0.4234860000000 1.0
C      1  0.4533130000000  0.5867020000000  0.4773390000000 1.0
C      1  0.5338500000000  0.5861730000000  0.5499530000000 1.0
C      1  0.4716050000000  0.4245540000000  0.5446070000000 1.0
C      1  0.5855080000000  0.5275600000000  0.5187400000000 1.0
C      1  0.4785220000000  0.5023080000000  0.5433780000000 1.0
C      1  0.4911420000000  0.5052160000000  0.4759570000000 1.0
C      1  0.5287360000000  0.4863070000000  0.5368460000000 1.0
C      1  0.4708720000000  0.4624310000000  0.4261360000000 1.0
C      1  0.4561900000000  0.4402640000000  0.4974420000000 1.0
C      1  0.5826190000000  0.5004180000000  0.5374810000000 1.0
C      1  0.4635160000000  0.4272110000000  0.4487810000000 1.0
C      1  0.4741040000000  0.5591820000000  0.4735260000000 1.0
C      1  0.4786950000000  0.4962120000000  0.5756350000000 1.0
C      1  0.4371230000000  0.5856570000000  0.4997050000000 1.0
C      1  0.5195150000000  0.5722870000000  0.5114110000000 1.0
C      1  0.4192270000000  0.5140080000000  0.5628950000000 1.0
C      1  0.4720620000000  0.4127640000000  0.4866510000000 1.0
C      1  0.4677550000000  0.5355950000000  0.4072910000000 1.0
C      1  0.5934850000000  0.4772100000000  0.5225780000000 1.0
C      1  0.4488940000000  0.4798000000000  0.5292520000000 1.0
C      1  0.4430000000000  0.4339230000000  0.4693930000000 1.0
C      1  0.5788130000000  0.4952640000000  0.4898800000000 1.0
C      1  0.5112920000000  0.4411050000000  0.5547520000000 1.0
C      1  0.5708980000000  0.5288340000000  0.5705060000000 1.0
C      1  0.4172900000000  0.4816930000000  0.4983500000000 1.0
C      1  0.5072510000000  0.4784890000000  0.4624250000000 1.0
C      1  0.5264420000000  0.4185960000000  0.4846410000000 1.0
C      1  0.4707850000000  0.4920340000000  0.4362600000000 1.0
C      1  0.4215230000000  0.5561480000000  0.5041030000000 1.0
C      1  0.5332170000000  0.5567580000000  0.4776220000000 1.0
C      1  0.5146290000000  0.5424830000000  0.5006040000000 1.0
C      1  0.5653920000000  0.4471360000000  0.4488950000000 1.0
C      1  0.5012780000000  0.4552990000000  0.4866910000000 1.0
C      1  0.4389730000000  0.4998070000000  0.5769540000000 1.0
C      1  0.5872470000000  0.4512960000000  0.4636470000000 1.0
C      1  0.4381870000000  0.5106610000000  0.4616050000000 1.0
C      1  0.5134760000000  0.5262540000000  0.4503930000000 1.0
C      1  0.5194880000000  0.5207530000000  0.5981600000000 1.0
C      1  0.5213270000000  0.4375910000000  0.4319550000000 1.0
C      1  0.5068080000000  0.4690780000000  0.5173090000000 1.0
C      1  0.4861550000000  0.4945890000000  0.5140660000000 1.0
C      1  0.5022160000000  0.4224730000000  0.5304810000000 1.0
C      1  0.4948790000000  0.5252060000000  0.5829970000000 1.0
C      1  0.5053640000000  0.4778010000000  0.5811010000000 1.0
C      1  0.5182710000000  0.5793940000000  0.4600490000000 1.0
C      1  0.4401410000000  0.5691040000000  0.5294460000000 1.0
C      1  0.5624100000000  0.4847870000000  0.4636920000000 1.0
C      1  0.4917400000000  0.5690210000000  0.4461720000000 1.0
C      1  0.5278500000000  0.4860880000000  0.4364410000000 1.0
C      1  0.5217310000000  0.5033520000000  0.4908370000000 1.0
C      1  0.5344970000000  0.4730770000000  0.4996930000000 1.0
C      1  0.5525160000000  0.5135700000000  0.5010460000000 1.0
C      1  0.4223540000000  0.5238360000000  0.4456300000000 1.0
C      1  0.4934720000000  0.4472810000000  0.4315870000000 1.0
C      1  0.5658490000000  0.5581250000000  0.4548120000000 1.0
C      1  0.4308730000000  0.5398470000000  0.5441120000000 1.0
C      1  0.5445770000000  0.5118760000000  0.4218810000000 1.0
C      1  0.4609240000000  0.5219610000000  0.5889710000000 1.0
C      1  0.5327780000000  0.4218200000000  0.5155110000000 1.0
C      1  0.5593530000000  0.5392310000000  0.5465790000000 1.0
C      1  0.5473640000000  0.4491260000000  0.5201590000000 1.0
C      1  0.4616610000000  0.5122040000000  0.5067320000000 1.0
C      1  0.4808900000000  0.4555190000000  0.5340410000000 1.0
C      1  0.4979950000000  0.5384730000000  0.4739590000000 1.0
C      1  0.4361050000000  0.5109910000000  0.5268580000000 1.0
C      1  0.5431240000000  0.4586260000000  0.4309940000000 1.0
C      1  0.4270880000000  0.4559380000000  0.4570810000000 1.0
C      1  0.5106200000000  0.5175280000000  0.5196990000000 1.0
C      1  0.4598610000000  0.5260020000000  0.5552610000000 1.0
C      1  0.4841220000000  0.4575590000000  0.5670320000000 1.0
C      1  0.5055480000000  0.5303140000000  0.5508620000000 1.0
C      1  0.4614210000000  0.5217430000000  0.4772590000000 1.0
C      1  0.4556020000000  0.4753760000000  0.5617530000000 1.0
C      1  0.5192740000000  0.5014400000000  0.5626580000000 1.0
C      1  0.4834710000000  0.5991580000000  0.5481060000000 1.0
C      1  0.5768160000000  0.4498940000000  0.5174690000000 1.0
C      1  0.5382170000000  0.5876780000000  0.4892920000000 1.0
C      1  0.4475860000000  0.4350260000000  0.5266350000000 1.0
C      1  0.4649910000000  0.5384040000000  0.5240190000000 1.0
C      1  0.5649860000000  0.5667740000000  0.4844410000000 1.0
C      1  0.4323730000000  0.4812380000000  0.4722620000000 1.0
C      1  0.5109210000000  0.6002530000000  0.5464540000000 1.0
C      1  0.4875860000000  0.4006760000000  0.4632220000000 1.0
C      1  0.4567860000000  0.5137620000000  0.4141170000000 1.0
C      1  0.4967710000000  0.4253460000000  0.4998170000000 1.0
C      1  0.5377000000000  0.4499350000000  0.5502980000000 1.0
C      1  0.4674210000000  0.5916550000000  0.4517270000000 1.0
C      1  0.5757360000000  0.5350730000000  0.4904180000000 1.0
C      1  0.4657450000000  0.4709910000000  0.5005190000000 1.0
C      1  0.4454160000000  0.4486660000000  0.4324420000000 1.0
C      1  0.5487970000000  0.4748010000000  0.5617800000000 1.0
C      1  0.4863830000000  0.5522370000000  0.5411680000000 1.0
C      1  0.4247670000000  0.4591910000000  0.5194280000000 1.0
END
