TITL C-2847959-7740-478 -0.000227103816518702 125000 -1039.89688726955 0 0 188 (C1) n - 1
REM
REM in /home/bkarasulu/work/CARBON/AIRSS/Generating-Clusters/AIREBO/with-SteepDescent/Only-C1/SD-CG-opt/Try1-1.4A-POS3A/HFTN-CG
REM
REM
REM
REM
REM
REM ./C.cell (11c1c37f851c82e70ff6c80c92926a4b)
REM
REM compiler GCC version 9.2.1 20190827 (Red Hat 9.2.1-1)
REM options -cpp -mtune=generic -march=x86-64 -g -O0 -fpre-include=/usr/include/finclude/math-vector-fortran.h
REM seed -1170733706 -1984237089 42475271 1241289308 2109982191 -2016559008 -1680528613 1292615298 -445335679 493004601 -1472057264 -630187348 -416350333 -1236770803 764471521 1032836677 -70235417 -736854524 1789113000 -1902482279 675165105 466939613 -1569452876 -1907599302 -1506936593 -1942438358 -1682488530 266677047 611918304 185954280 -51600751 1096241463 34089469
REM
CELL 1.54180   50.00000   50.00000   50.00000   90.00000   90.00000   90.00000
LATT -1
SFAC C  
C      1  0.4550120000000  0.5922440000000  0.4566910000000 1.0
C      1  0.4731690000000  0.4923270000000  0.6119790000000 1.0
C      1  0.5655100000000  0.4521520000000  0.5547110000000 1.0
C      1  0.5392090000000  0.4700450000000  0.5537920000000 1.0
C      1  0.5435780000000  0.4936630000000  0.4752700000000 1.0
C      1  0.5327380000000  0.4034830000000  0.5222380000000 1.0
C      1  0.4895940000000  0.5306180000000  0.4087950000000 1.0
C      1  0.4571010000000  0.5673630000000  0.5074660000000 1.0
C      1  0.5205780000000  0.5144060000000  0.3895340000000 1.0
C      1  0.5125010000000  0.4442260000000  0.4487170000000 1.0
C      1  0.4774410000000  0.4444260000000  0.5651870000000 1.0
C      1  0.5385520000000  0.5177090000000  0.6000350000000 1.0
C      1  0.4860360000000  0.4727750000000  0.4371140000000 1.0
C      1  0.4225120000000  0.4706080000000  0.5447950000000 1.0
C      1  0.5158680000000  0.3983880000000  0.4639260000000 1.0
C      1  0.5846210000000  0.4254780000000  0.4839590000000 1.0
C      1  0.4471780000000  0.4988390000000  0.5635400000000 1.0
C      1  0.4929560000000  0.5434490000000  0.5347890000000 1.0
C      1  0.5372580000000  0.5595670000000  0.4242190000000 1.0
C      1  0.4434950000000  0.5385180000000  0.4956560000000 1.0
C      1  0.5848930000000  0.4563070000000  0.5270710000000 1.0
C      1  0.4017010000000  0.4450250000000  0.5082780000000 1.0
C      1  0.5589250000000  0.5495060000000  0.4990470000000 1.0
C      1  0.4251640000000  0.4421280000000  0.4196040000000 1.0
C      1  0.4896400000000  0.5184900000000  0.6068360000000 1.0
C      1  0.5375480000000  0.4583780000000  0.3986440000000 1.0
C      1  0.5178950000000  0.5166680000000  0.6166940000000 1.0
C      1  0.5777500000000  0.5020540000000  0.5009940000000 1.0
C      1  0.4964230000000  0.4480610000000  0.4189000000000 1.0
C      1  0.5455190000000  0.4939120000000  0.5771920000000 1.0
C      1  0.4349840000000  0.5592870000000  0.5320410000000 1.0
C      1  0.5844060000000  0.5171440000000  0.5307670000000 1.0
C      1  0.4932610000000  0.5617060000000  0.5955210000000 1.0
C      1  0.6130830000000  0.5037810000000  0.5190210000000 1.0
C      1  0.4739330000000  0.5760060000000  0.5516160000000 1.0
C      1  0.5192010000000  0.5293870000000  0.4907350000000 1.0
C      1  0.4558770000000  0.4921030000000  0.4570000000000 1.0
C      1  0.4144070000000  0.5550310000000  0.4894760000000 1.0
C      1  0.5369240000000  0.5884510000000  0.5217370000000 1.0
C      1  0.4741760000000  0.4831670000000  0.5562610000000 1.0
C      1  0.4299360000000  0.5225420000000  0.5752830000000 1.0
C      1  0.5138130000000  0.4876830000000  0.5793100000000 1.0
C      1  0.5120600000000  0.5934600000000  0.5342680000000 1.0
C      1  0.4436640000000  0.4241800000000  0.5363040000000 1.0
C      1  0.4687820000000  0.5438860000000  0.6079340000000 1.0
C      1  0.4007270000000  0.4865020000000  0.5529640000000 1.0
C      1  0.5443420000000  0.6197610000000  0.4860450000000 1.0
C      1  0.5428400000000  0.4494790000000  0.5959780000000 1.0
C      1  0.5072760000000  0.5931540000000  0.4602470000000 1.0
C      1  0.5356640000000  0.4124130000000  0.5656180000000 1.0
C      1  0.4928440000000  0.4354220000000  0.5253770000000 1.0
C      1  0.5539890000000  0.4211300000000  0.4935430000000 1.0
C      1  0.5932550000000  0.5087430000000  0.5699810000000 1.0
C      1  0.4311340000000  0.5204500000000  0.4065140000000 1.0
C      1  0.4896990000000  0.4187200000000  0.4282200000000 1.0
C      1  0.5045530000000  0.5790640000000  0.4914850000000 1.0
C      1  0.5521390000000  0.5407180000000  0.5935780000000 1.0
C      1  0.4220580000000  0.4266860000000  0.5153080000000 1.0
C      1  0.3909770000000  0.5244600000000  0.4716400000000 1.0
C      1  0.5092610000000  0.4533310000000  0.5571310000000 1.0
C      1  0.5633110000000  0.4094240000000  0.5236010000000 1.0
C      1  0.5839260000000  0.5470270000000  0.5460070000000 1.0
C      1  0.6026480000000  0.4834770000000  0.5653930000000 1.0
C      1  0.3788340000000  0.4586100000000  0.5202010000000 1.0
C      1  0.4637770000000  0.5653270000000  0.4741590000000 1.0
C      1  0.5641070000000  0.4355890000000  0.4452870000000 1.0
C      1  0.5772250000000  0.5835600000000  0.4894550000000 1.0
C      1  0.5890080000000  0.5333200000000  0.4591010000000 1.0
C      1  0.3928720000000  0.5148080000000  0.5263540000000 1.0
C      1  0.5650870000000  0.4753730000000  0.4091400000000 1.0
C      1  0.3790610000000  0.4843330000000  0.5324460000000 1.0
C      1  0.4724880000000  0.4201650000000  0.4505430000000 1.0
C      1  0.5302590000000  0.3973560000000  0.4904780000000 1.0
C      1  0.4522530000000  0.5020870000000  0.4002750000000 1.0
C      1  0.4315540000000  0.5214160000000  0.5200810000000 1.0
C      1  0.4739910000000  0.4879960000000  0.3851250000000 1.0
C      1  0.4206620000000  0.4741300000000  0.4226370000000 1.0
C      1  0.4079560000000  0.5056620000000  0.4206980000000 1.0
C      1  0.4726070000000  0.5151600000000  0.4699900000000 1.0
C      1  0.4525210000000  0.4676470000000  0.4336200000000 1.0
C      1  0.3938350000000  0.4823490000000  0.4407410000000 1.0
C      1  0.5922600000000  0.5533310000000  0.4934960000000 1.0
C      1  0.5725740000000  0.4938910000000  0.4574820000000 1.0
C      1  0.5105750000000  0.6000200000000  0.5619240000000 1.0
C      1  0.4409590000000  0.4561850000000  0.5937200000000 1.0
C      1  0.5441510000000  0.5600130000000  0.5250000000000 1.0
C      1  0.5727350000000  0.4933050000000  0.4272990000000 1.0
C      1  0.4513700000000  0.4533530000000  0.5015220000000 1.0
C      1  0.5060180000000  0.5566040000000  0.4107510000000 1.0
C      1  0.4512210000000  0.4513800000000  0.4061180000000 1.0
C      1  0.4269830000000  0.4956710000000  0.4746450000000 1.0
C      1  0.5858120000000  0.4641320000000  0.5774490000000 1.0
C      1  0.4861540000000  0.4675490000000  0.6071650000000 1.0
C      1  0.5027600000000  0.5135610000000  0.4663350000000 1.0
C      1  0.4685060000000  0.4814090000000  0.5104790000000 1.0
C      1  0.5058420000000  0.5508370000000  0.5656880000000 1.0
C      1  0.5587540000000  0.5579140000000  0.5520400000000 1.0
C      1  0.5097160000000  0.5714080000000  0.4402640000000 1.0
C      1  0.5718150000000  0.5267040000000  0.4330540000000 1.0
C      1  0.6096670000000  0.5349740000000  0.5058460000000 1.0
C      1  0.4636250000000  0.4623490000000  0.4715580000000 1.0
C      1  0.4468460000000  0.4153550000000  0.4601750000000 1.0
C      1  0.5403860000000  0.4532800000000  0.4314950000000 1.0
C      1  0.4855980000000  0.5279710000000  0.5758900000000 1.0
C      1  0.6083120000000  0.4991380000000  0.4863750000000 1.0
C      1  0.5396200000000  0.4392910000000  0.4686450000000 1.0
C      1  0.5132050000000  0.4580870000000  0.5905880000000 1.0
C      1  0.5593930000000  0.4632470000000  0.4779880000000 1.0
C      1  0.4763260000000  0.4604460000000  0.3942460000000 1.0
C      1  0.4491320000000  0.4601940000000  0.5548730000000 1.0
C      1  0.5076470000000  0.4496440000000  0.4994970000000 1.0
C      1  0.5767870000000  0.5328320000000  0.5824330000000 1.0
C      1  0.5372960000000  0.5596510000000  0.5751460000000 1.0
C      1  0.4504110000000  0.5153950000000  0.6014880000000 1.0
C      1  0.4325370000000  0.5255170000000  0.4678830000000 1.0
C      1  0.3995860000000  0.5262270000000  0.4453770000000 1.0
C      1  0.5088220000000  0.4853550000000  0.4564140000000 1.0
C      1  0.4125420000000  0.4677780000000  0.4857150000000 1.0
C      1  0.4410350000000  0.5423610000000  0.4212090000000 1.0
C      1  0.4598020000000  0.5360470000000  0.5321180000000 1.0
C      1  0.5917210000000  0.4737160000000  0.4767200000000 1.0
C      1  0.5949320000000  0.4490120000000  0.4954160000000 1.0
C      1  0.4877800000000  0.5739420000000  0.5206320000000 1.0
C      1  0.4080760000000  0.5131700000000  0.4968990000000 1.0
C      1  0.4448850000000  0.4215560000000  0.4913450000000 1.0
C      1  0.4702060000000  0.4025690000000  0.4990730000000 1.0
C      1  0.5660560000000  0.5261010000000  0.4798780000000 1.0
C      1  0.4472850000000  0.4981530000000  0.5310460000000 1.0
C      1  0.5359740000000  0.6038360000000  0.4649490000000 1.0
C      1  0.6128060000000  0.5189940000000  0.4663460000000 1.0
C      1  0.4318280000000  0.5690610000000  0.4657300000000 1.0
C      1  0.5279620000000  0.4898470000000  0.4072450000000 1.0
C      1  0.5521720000000  0.4311590000000  0.5758530000000 1.0
C      1  0.4662130000000  0.5544670000000  0.5670160000000 1.0
C      1  0.5610640000000  0.4738330000000  0.5102650000000 1.0
C      1  0.6067430000000  0.4781840000000  0.5376960000000 1.0
C      1  0.5166690000000  0.4229660000000  0.5424020000000 1.0
C      1  0.5885210000000  0.5659830000000  0.4621550000000 1.0
C      1  0.4031640000000  0.5192880000000  0.5592310000000 1.0
C      1  0.5285450000000  0.5595380000000  0.4881890000000 1.0
C      1  0.4652060000000  0.5046120000000  0.4267770000000 1.0
C      1  0.4782910000000  0.6087510000000  0.4602930000000 1.0
C      1  0.5612960000000  0.5573960000000  0.4435940000000 1.0
C      1  0.5555670000000  0.6021900000000  0.5059040000000 1.0
C      1  0.4432970000000  0.4315760000000  0.5695120000000 1.0
C      1  0.5617340000000  0.4714790000000  0.5939370000000 1.0
C      1  0.4389410000000  0.5488610000000  0.5634550000000 1.0
C      1  0.4980870000000  0.4996930000000  0.4201660000000 1.0
C      1  0.4296880000000  0.4743230000000  0.5143440000000 1.0
C      1  0.5625730000000  0.5150990000000  0.5567590000000 1.0
C      1  0.5403900000000  0.5274490000000  0.5340320000000 1.0
C      1  0.5392730000000  0.5101130000000  0.5047330000000 1.0
C      1  0.5856290000000  0.4236630000000  0.4557390000000 1.0
C      1  0.4321510000000  0.4517910000000  0.4667110000000 1.0
C      1  0.5299750000000  0.4270770000000  0.4124930000000 1.0
C      1  0.4924770000000  0.4076620000000  0.4826260000000 1.0
C      1  0.4895580000000  0.4676120000000  0.5333490000000 1.0
C      1  0.4268920000000  0.4314320000000  0.4455660000000 1.0
C      1  0.5406170000000  0.5225550000000  0.4575710000000 1.0
C      1  0.4921640000000  0.5293460000000  0.5046680000000 1.0
C      1  0.4664550000000  0.5137470000000  0.4996820000000 1.0
C      1  0.4837430000000  0.6057420000000  0.4898280000000 1.0
C      1  0.4684930000000  0.4187770000000  0.5234840000000 1.0
C      1  0.5395790000000  0.4879520000000  0.5305200000000 1.0
C      1  0.5391530000000  0.4478770000000  0.5083960000000 1.0
C      1  0.5104700000000  0.5143580000000  0.5366930000000 1.0
C      1  0.5098810000000  0.4870230000000  0.5182440000000 1.0
C      1  0.4922060000000  0.5105560000000  0.3821400000000 1.0
C      1  0.3875580000000  0.4731270000000  0.4653790000000 1.0
C      1  0.4893240000000  0.4399670000000  0.4724780000000 1.0
C      1  0.4957430000000  0.5034200000000  0.5622690000000 1.0
C      1  0.5129930000000  0.5419860000000  0.4535400000000 1.0
C      1  0.4392580000000  0.4844370000000  0.5925610000000 1.0
C      1  0.5164850000000  0.5836650000000  0.5848200000000 1.0
C      1  0.4243580000000  0.5464220000000  0.4449020000000 1.0
C      1  0.4044270000000  0.5450430000000  0.5367990000000 1.0
C      1  0.5136900000000  0.4800530000000  0.4877510000000 1.0
C      1  0.5846780000000  0.4228510000000  0.5331700000000 1.0
C      1  0.5374910000000  0.5382170000000  0.3979720000000 1.0
C      1  0.4604890000000  0.6010710000000  0.5045670000000 1.0
C      1  0.5406270000000  0.5165550000000  0.4240670000000 1.0
C      1  0.5373790000000  0.4806230000000  0.4444840000000 1.0
C      1  0.4694830000000  0.4478530000000  0.5947880000000 1.0
C      1  0.5155320000000  0.4055760000000  0.4345180000000 1.0
C      1  0.4791230000000  0.5442570000000  0.4565490000000 1.0
C      1  0.5509310000000  0.5759540000000  0.4701360000000 1.0
C      1  0.4010390000000  0.5646610000000  0.5117190000000 1.0
C      1  0.4686130000000  0.5442940000000  0.4269340000000 1.0
END
