TITL C-2848508-1660-220 -0.000526965522082293 125000 -715.463798581299 0 0 133 (C1) n - 1
REM
REM in /home/bkarasulu/work/CARBON/AIRSS/Generating-Clusters/AIREBO/with-SteepDescent/Only-C1/SD-CG-opt/Try1-1.4A-POS3A/HFTN-CG
REM
REM
REM
REM
REM
REM ./C.cell (11c1c37f851c82e70ff6c80c92926a4b)
REM
REM compiler GCC version 9.2.1 20190827 (Red Hat 9.2.1-1)
REM options -cpp -mtune=generic -march=x86-64 -g -O0 -fpre-include=/usr/include/finclude/math-vector-fortran.h
REM seed -1049384651 -1483864017 77534939 -332795407 -1877035122 1633461815 1382335574 -698566609 -1342481992 240607839 -1866601961 622840039 -2131978173 879603023 1213722425 1820882858 -1347069677 9338590 988238440 -1666930942 17184818 1693593395 1927242966 -1258339341 1043858003 -613097722 746540625 237726943 -834944561 -1172554607 -760778577 2132610559 1747031014
REM
CELL 1.54180   50.00000   50.00000   50.00000   90.00000   90.00000   90.00000
LATT -1
SFAC C  
C      1  0.4485670000000  0.5042980000000  0.5408700000000 1.0
C      1  0.5011100000000  0.4724640000000  0.5447730000000 1.0
C      1  0.5157350000000  0.5116070000000  0.5577900000000 1.0
C      1  0.5320590000000  0.4254470000000  0.5554140000000 1.0
C      1  0.4533410000000  0.4517220000000  0.4928210000000 1.0
C      1  0.5576370000000  0.5459330000000  0.5701000000000 1.0
C      1  0.4709070000000  0.5442740000000  0.5116050000000 1.0
C      1  0.4650440000000  0.4599860000000  0.5215020000000 1.0
C      1  0.5552150000000  0.4536510000000  0.4066060000000 1.0
C      1  0.5020020000000  0.5550120000000  0.4472320000000 1.0
C      1  0.5383630000000  0.5254710000000  0.4461610000000 1.0
C      1  0.4810780000000  0.5227420000000  0.3942800000000 1.0
C      1  0.4819550000000  0.4279950000000  0.4406880000000 1.0
C      1  0.4959120000000  0.4595520000000  0.4694520000000 1.0
C      1  0.5368760000000  0.5543630000000  0.4727840000000 1.0
C      1  0.5129040000000  0.5306560000000  0.4683030000000 1.0
C      1  0.4828340000000  0.5730490000000  0.5144810000000 1.0
C      1  0.5295140000000  0.4385290000000  0.4722300000000 1.0
C      1  0.4877530000000  0.4765710000000  0.6011690000000 1.0
C      1  0.4175810000000  0.4392020000000  0.5054040000000 1.0
C      1  0.4292510000000  0.4706010000000  0.5077640000000 1.0
C      1  0.4340420000000  0.5166360000000  0.5759130000000 1.0
C      1  0.5822040000000  0.5253900000000  0.5584010000000 1.0
C      1  0.5944010000000  0.4979410000000  0.5992960000000 1.0
C      1  0.4335870000000  0.4355570000000  0.4586130000000 1.0
C      1  0.4890600000000  0.4054530000000  0.4869330000000 1.0
C      1  0.5598250000000  0.4833820000000  0.5673440000000 1.0
C      1  0.5196450000000  0.4976600000000  0.5053310000000 1.0
C      1  0.4925460000000  0.3954630000000  0.5192390000000 1.0
C      1  0.5579320000000  0.5517970000000  0.4480160000000 1.0
C      1  0.5068330000000  0.4163240000000  0.5644570000000 1.0
C      1  0.4906570000000  0.4402550000000  0.5732390000000 1.0
C      1  0.5582180000000  0.4784660000000  0.4814670000000 1.0
C      1  0.6118280000000  0.4937590000000  0.6189960000000 1.0
C      1  0.4545500000000  0.5588330000000  0.4768970000000 1.0
C      1  0.5089440000000  0.5539730000000  0.5039680000000 1.0
C      1  0.5053040000000  0.5237990000000  0.4017060000000 1.0
C      1  0.4992910000000  0.5186560000000  0.5221330000000 1.0
C      1  0.4287960000000  0.5343270000000  0.5582350000000 1.0
C      1  0.4566650000000  0.5268660000000  0.4770230000000 1.0
C      1  0.5543490000000  0.5100480000000  0.4869580000000 1.0
C      1  0.5545490000000  0.4896220000000  0.5374920000000 1.0
C      1  0.5691680000000  0.4743890000000  0.4202370000000 1.0
C      1  0.5140680000000  0.3860680000000  0.4953330000000 1.0
C      1  0.4073570000000  0.4756110000000  0.4692560000000 1.0
C      1  0.5438910000000  0.4630930000000  0.5782320000000 1.0
C      1  0.4698050000000  0.4244410000000  0.5041650000000 1.0
C      1  0.4019130000000  0.5090830000000  0.5047050000000 1.0
C      1  0.5812750000000  0.5071530000000  0.5297090000000 1.0
C      1  0.4665600000000  0.5237440000000  0.4447440000000 1.0
C      1  0.4212140000000  0.4866830000000  0.4479950000000 1.0
C      1  0.5868660000000  0.5439200000000  0.4557650000000 1.0
C      1  0.4791310000000  0.5021830000000  0.5968950000000 1.0
C      1  0.3821600000000  0.5577790000000  0.5149850000000 1.0
C      1  0.5956500000000  0.5000260000000  0.4992280000000 1.0
C      1  0.5500280000000  0.4358670000000  0.5742790000000 1.0
C      1  0.5387370000000  0.4092730000000  0.4591780000000 1.0
C      1  0.5236090000000  0.6042860000000  0.4863500000000 1.0
C      1  0.5399460000000  0.5621320000000  0.5499450000000 1.0
C      1  0.4810820000000  0.5886130000000  0.4494830000000 1.0
C      1  0.5495850000000  0.5593020000000  0.5015780000000 1.0
C      1  0.4858000000000  0.4800540000000  0.5153010000000 1.0
C      1  0.3922870000000  0.5426570000000  0.4281770000000 1.0
C      1  0.5897040000000  0.5235520000000  0.4745250000000 1.0
C      1  0.5328330000000  0.5297650000000  0.5035530000000 1.0
C      1  0.4997700000000  0.5989110000000  0.4715000000000 1.0
C      1  0.5451070000000  0.5704560000000  0.4271730000000 1.0
C      1  0.5149730000000  0.5108890000000  0.4283270000000 1.0
C      1  0.4795410000000  0.4379380000000  0.4131700000000 1.0
C      1  0.4535120000000  0.5379980000000  0.5374070000000 1.0
C      1  0.5629170000000  0.5631290000000  0.5292890000000 1.0
C      1  0.4157490000000  0.5489850000000  0.4379940000000 1.0
C      1  0.5199120000000  0.5694600000000  0.4267990000000 1.0
C      1  0.4646500000000  0.4492220000000  0.4608520000000 1.0
C      1  0.4958720000000  0.5226210000000  0.6057630000000 1.0
C      1  0.4156320000000  0.4560740000000  0.5350490000000 1.0
C      1  0.5106430000000  0.4656120000000  0.4983430000000 1.0
C      1  0.5368850000000  0.5179380000000  0.5351860000000 1.0
C      1  0.3907600000000  0.4899240000000  0.4868750000000 1.0
C      1  0.5536320000000  0.5041930000000  0.4244700000000 1.0
C      1  0.4885900000000  0.5610840000000  0.4773410000000 1.0
C      1  0.5225140000000  0.4960960000000  0.5914710000000 1.0
C      1  0.5229160000000  0.4484960000000  0.5368760000000 1.0
C      1  0.5186920000000  0.4254280000000  0.4363420000000 1.0
C      1  0.5456550000000  0.4630630000000  0.5241930000000 1.0
C      1  0.5401170000000  0.6244900000000  0.4792590000000 1.0
C      1  0.4709490000000  0.5572800000000  0.4407070000000 1.0
C      1  0.5310040000000  0.5868390000000  0.5089220000000 1.0
C      1  0.4446630000000  0.4705030000000  0.5445550000000 1.0
C      1  0.5760840000000  0.5272000000000  0.5051430000000 1.0
C      1  0.4317770000000  0.5016120000000  0.5146470000000 1.0
C      1  0.5251000000000  0.4993160000000  0.4733400000000 1.0
C      1  0.4434640000000  0.5895850000000  0.4862620000000 1.0
C      1  0.4635240000000  0.5036810000000  0.5714080000000 1.0
C      1  0.4610630000000  0.4815470000000  0.4160910000000 1.0
C      1  0.3912070000000  0.5335040000000  0.5110330000000 1.0
C      1  0.4352080000000  0.5010000000000  0.4825960000000 1.0
C      1  0.5602060000000  0.4745370000000  0.4499620000000 1.0
C      1  0.4837460000000  0.4651930000000  0.4128450000000 1.0
C      1  0.3935430000000  0.4503240000000  0.5539230000000 1.0
C      1  0.4355360000000  0.5110350000000  0.4390030000000 1.0
C      1  0.4137080000000  0.4477220000000  0.4746200000000 1.0
C      1  0.4984770000000  0.4389110000000  0.5155320000000 1.0
C      1  0.4504030000000  0.4741330000000  0.4426110000000 1.0
C      1  0.5102190000000  0.4677840000000  0.5772080000000 1.0
C      1  0.5295660000000  0.4472650000000  0.4201370000000 1.0
C      1  0.4857070000000  0.4933770000000  0.4839900000000 1.0
C      1  0.5159660000000  0.5448710000000  0.5359720000000 1.0
C      1  0.5265920000000  0.4695890000000  0.4586610000000 1.0
C      1  0.4400910000000  0.4172660000000  0.5079190000000 1.0
C      1  0.4669800000000  0.4450740000000  0.5508380000000 1.0
C      1  0.4619260000000  0.5116000000000  0.4133170000000 1.0
C      1  0.5028730000000  0.4738190000000  0.4346330000000 1.0
C      1  0.5426700000000  0.4590190000000  0.4943450000000 1.0
C      1  0.5013760000000  0.4207120000000  0.4652270000000 1.0
C      1  0.5782470000000  0.5009710000000  0.5774160000000 1.0
C      1  0.5857570000000  0.5531520000000  0.5408060000000 1.0
C      1  0.5354050000000  0.3878950000000  0.4765930000000 1.0
C      1  0.4938090000000  0.5805540000000  0.5419910000000 1.0
C      1  0.6269650000000  0.4892740000000  0.6399180000000 1.0
C      1  0.4863320000000  0.4187370000000  0.5400570000000 1.0
C      1  0.4697030000000  0.5647110000000  0.5511830000000 1.0
C      1  0.5842660000000  0.4918590000000  0.4676570000000 1.0
C      1  0.4591850000000  0.4877980000000  0.4697520000000 1.0
C      1  0.5300470000000  0.4813210000000  0.4206090000000 1.0
C      1  0.4755100000000  0.5899440000000  0.4897090000000 1.0
C      1  0.5215640000000  0.5843770000000  0.5366260000000 1.0
C      1  0.4392210000000  0.5527220000000  0.4479350000000 1.0
C      1  0.4917060000000  0.5013290000000  0.4513290000000 1.0
C      1  0.5191820000000  0.5349970000000  0.6001490000000 1.0
C      1  0.4875030000000  0.5021330000000  0.5483710000000 1.0
C      1  0.5447000000000  0.5413980000000  0.5935440000000 1.0
C      1  0.4876960000000  0.5235150000000  0.4905260000000 1.0
END
