TITL C-2847951-7423-510 -0.00129565508934752 125000 -582.214001782049 0 0 111 (C1) n - 1
REM
REM in /home/bkarasulu/work/CARBON/AIRSS/Generating-Clusters/AIREBO/with-SteepDescent/Only-C1/SD-CG-opt/Try1-1.4A-POS3A/HFTN-CG
REM
REM
REM
REM
REM
REM ./C.cell (11c1c37f851c82e70ff6c80c92926a4b)
REM
REM compiler GCC version 9.2.1 20190827 (Red Hat 9.2.1-1)
REM options -cpp -mtune=generic -march=x86-64 -g -O0 -fpre-include=/usr/include/finclude/math-vector-fortran.h
REM seed 1671457887 2075487673 -782210459 -1741531436 -1005199174 499856374 -1114139133 1645008334 -1856349136 -1041211765 -11147026 -974231739 -700635925 887258569 1874139858 1404562181 748999222 1557540624 -601694114 -1197569880 -988038603 1089853599 1710345231 -1819548218 26135895 -1234650231 -1955283069 -934592710 1600387577 -452035194 -949200814 -1821258371 148567348
REM
CELL 1.54180   50.00000   50.00000   50.00000   90.00000   90.00000   90.00000
LATT -1
SFAC C  
C      1  0.4652330000000  0.5122060000000  0.5661960000000 1.0
C      1  0.5230020000000  0.4072890000000  0.4631660000000 1.0
C      1  0.5018620000000  0.5691600000000  0.5365200000000 1.0
C      1  0.5129020000000  0.4526010000000  0.4992020000000 1.0
C      1  0.5140690000000  0.4789230000000  0.4794200000000 1.0
C      1  0.5170530000000  0.5302430000000  0.5092470000000 1.0
C      1  0.4036830000000  0.4773740000000  0.5294720000000 1.0
C      1  0.5242290000000  0.5584070000000  0.4105090000000 1.0
C      1  0.5222790000000  0.5172910000000  0.5831230000000 1.0
C      1  0.4706720000000  0.5510830000000  0.5010650000000 1.0
C      1  0.5622830000000  0.5689110000000  0.5296260000000 1.0
C      1  0.5238950000000  0.4143590000000  0.4956120000000 1.0
C      1  0.5423250000000  0.5428980000000  0.4745110000000 1.0
C      1  0.5432980000000  0.4860200000000  0.5470030000000 1.0
C      1  0.4671820000000  0.5214610000000  0.5335360000000 1.0
C      1  0.4714700000000  0.5385960000000  0.4359500000000 1.0
C      1  0.5479960000000  0.5577440000000  0.4265960000000 1.0
C      1  0.4649900000000  0.5236170000000  0.4831930000000 1.0
C      1  0.5655590000000  0.5376850000000  0.5410530000000 1.0
C      1  0.4667010000000  0.4812990000000  0.4235290000000 1.0
C      1  0.4619680000000  0.5683310000000  0.5290460000000 1.0
C      1  0.5824510000000  0.4821750000000  0.4778000000000 1.0
C      1  0.5624600000000  0.4289410000000  0.5546920000000 1.0
C      1  0.4435110000000  0.4477080000000  0.4728240000000 1.0
C      1  0.5493720000000  0.4653690000000  0.4918260000000 1.0
C      1  0.5348910000000  0.4638790000000  0.5225830000000 1.0
C      1  0.4181970000000  0.5278350000000  0.4894360000000 1.0
C      1  0.4361570000000  0.5214280000000  0.5587260000000 1.0
C      1  0.4927880000000  0.4357980000000  0.5607590000000 1.0
C      1  0.5340620000000  0.5007980000000  0.4438300000000 1.0
C      1  0.4689680000000  0.4664730000000  0.5875570000000 1.0
C      1  0.4857200000000  0.5443750000000  0.5505110000000 1.0
C      1  0.4745550000000  0.5855810000000  0.4815530000000 1.0
C      1  0.4102030000000  0.4489660000000  0.5444780000000 1.0
C      1  0.5720620000000  0.5334810000000  0.4861200000000 1.0
C      1  0.5631080000000  0.5135370000000  0.4393570000000 1.0
C      1  0.5338970000000  0.4648730000000  0.4095930000000 1.0
C      1  0.4975560000000  0.4259510000000  0.5137140000000 1.0
C      1  0.4299270000000  0.5410790000000  0.4673580000000 1.0
C      1  0.5258350000000  0.4591110000000  0.4421170000000 1.0
C      1  0.4708970000000  0.5682020000000  0.4510880000000 1.0
C      1  0.5313430000000  0.5578030000000  0.5386720000000 1.0
C      1  0.5248900000000  0.4873870000000  0.5735490000000 1.0
C      1  0.5003650000000  0.5773890000000  0.4621500000000 1.0
C      1  0.5804250000000  0.4516440000000  0.4926520000000 1.0
C      1  0.5451910000000  0.5657930000000  0.4537490000000 1.0
C      1  0.4981970000000  0.4775660000000  0.4493100000000 1.0
C      1  0.5029680000000  0.5450790000000  0.5798090000000 1.0
C      1  0.4939140000000  0.4159130000000  0.5397640000000 1.0
C      1  0.5736640000000  0.4216130000000  0.4953100000000 1.0
C      1  0.4881630000000  0.5175010000000  0.5864640000000 1.0
C      1  0.4942030000000  0.4770820000000  0.5798640000000 1.0
C      1  0.4387890000000  0.5311920000000  0.4417230000000 1.0
C      1  0.4621390000000  0.4449240000000  0.5665990000000 1.0
C      1  0.5175490000000  0.5214210000000  0.4652930000000 1.0
C      1  0.5203360000000  0.4897090000000  0.4172750000000 1.0
C      1  0.4117620000000  0.4767750000000  0.5008180000000 1.0
C      1  0.4752290000000  0.4684220000000  0.5458010000000 1.0
C      1  0.4461570000000  0.5008490000000  0.4663630000000 1.0
C      1  0.4835510000000  0.5869540000000  0.5126050000000 1.0
C      1  0.5064830000000  0.5479750000000  0.4524360000000 1.0
C      1  0.4913630000000  0.5039240000000  0.4781820000000 1.0
C      1  0.5026610000000  0.4310030000000  0.4747970000000 1.0
C      1  0.4428420000000  0.4904590000000  0.4988830000000 1.0
C      1  0.5252130000000  0.5846280000000  0.4925550000000 1.0
C      1  0.4488060000000  0.4806100000000  0.5308810000000 1.0
C      1  0.5800450000000  0.5120880000000  0.4621980000000 1.0
C      1  0.4604050000000  0.5639290000000  0.5620400000000 1.0
C      1  0.4746460000000  0.4792160000000  0.4945850000000 1.0
C      1  0.5875740000000  0.4935210000000  0.5230440000000 1.0
C      1  0.4931210000000  0.4897960000000  0.4108860000000 1.0
C      1  0.5295120000000  0.5867750000000  0.4640640000000 1.0
C      1  0.4484250000000  0.5023630000000  0.4324380000000 1.0
C      1  0.4343000000000  0.5519590000000  0.5218740000000 1.0
C      1  0.5422130000000  0.5150850000000  0.5336270000000 1.0
C      1  0.5651340000000  0.5357040000000  0.4224700000000 1.0
C      1  0.5141920000000  0.4906830000000  0.5194950000000 1.0
C      1  0.5034790000000  0.5609150000000  0.5035740000000 1.0
C      1  0.4923680000000  0.4970490000000  0.5523950000000 1.0
C      1  0.5484460000000  0.4340830000000  0.5317770000000 1.0
C      1  0.5015170000000  0.5475690000000  0.4227560000000 1.0
C      1  0.4357530000000  0.5486730000000  0.5518770000000 1.0
C      1  0.5481260000000  0.4737530000000  0.4590950000000 1.0
C      1  0.4732130000000  0.4341150000000  0.4667990000000 1.0
C      1  0.5430150000000  0.5520410000000  0.5072570000000 1.0
C      1  0.4856110000000  0.5090240000000  0.4450460000000 1.0
C      1  0.4739080000000  0.4452160000000  0.4985880000000 1.0
C      1  0.5578960000000  0.5088760000000  0.5675230000000 1.0
C      1  0.4845570000000  0.4966920000000  0.5192270000000 1.0
C      1  0.4516680000000  0.5605290000000  0.4756410000000 1.0
C      1  0.5501120000000  0.4176900000000  0.5089230000000 1.0
C      1  0.4420300000000  0.4326280000000  0.5467630000000 1.0
C      1  0.4271230000000  0.4498600000000  0.4938930000000 1.0
C      1  0.5275320000000  0.4281540000000  0.4436390000000 1.0
C      1  0.5781250000000  0.5216380000000  0.5174870000000 1.0
C      1  0.4352680000000  0.4539550000000  0.5234100000000 1.0
C      1  0.5111580000000  0.5234540000000  0.5420420000000 1.0
C      1  0.5614500000000  0.5032120000000  0.4943920000000 1.0
C      1  0.5175010000000  0.4538830000000  0.5763740000000 1.0
C      1  0.5088010000000  0.4599300000000  0.5440630000000 1.0
C      1  0.4583890000000  0.4225860000000  0.5186850000000 1.0
C      1  0.4799330000000  0.5167930000000  0.4112710000000 1.0
C      1  0.4057410000000  0.5140880000000  0.5137260000000 1.0
C      1  0.4424120000000  0.4709350000000  0.4553900000000 1.0
C      1  0.4445010000000  0.5224480000000  0.5103010000000 1.0
C      1  0.5317330000000  0.5023190000000  0.4967770000000 1.0
C      1  0.5768610000000  0.4709270000000  0.4466670000000 1.0
C      1  0.5416690000000  0.5388410000000  0.5652400000000 1.0
C      1  0.4710530000000  0.4586100000000  0.4460560000000 1.0
C      1  0.4236150000000  0.5017260000000  0.5398960000000 1.0
C      1  0.5703960000000  0.4719970000000  0.5177260000000 1.0
END
