TITL C-2847955-7945-14 -0.00365521717658565 125000 -608.521645221135 0 0 113 (C1) n - 1
REM
REM in /home/bkarasulu/work/CARBON/AIRSS/Generating-Clusters/AIREBO/with-SteepDescent/Only-C1/SD-CG-opt/Try1-1.4A-POS3A/HFTN-CG
REM
REM
REM
REM
REM
REM ./C.cell (11c1c37f851c82e70ff6c80c92926a4b)
REM
REM compiler GCC version 9.2.1 20190827 (Red Hat 9.2.1-1)
REM options -cpp -mtune=generic -march=x86-64 -g -O0 -fpre-include=/usr/include/finclude/math-vector-fortran.h
REM seed 843022842 1460946836 -1745636255 -74908597 1794532617 -572289032 842928845 1454189072 -2101976609 -882246167 -1865051500 -321559139 -999134610 907119926 -151765754 887097003 -2034658775 -1263520734 1088889127 -457291252 -371097750 599905287 -425204882 -1343475295 -50159019 -1834681660 -1844802534 891338877 869848991 -1021233275 -1572193041 -1160104853 -2139624250
REM
CELL 1.54180   50.00000   50.00000   50.00000   90.00000   90.00000   90.00000
LATT -1
SFAC C  
C      1  0.5397680000000  0.5038220000000  0.4045770000000 1.0
C      1  0.5061630000000  0.4965510000000  0.4029940000000 1.0
C      1  0.4701640000000  0.4340810000000  0.4575320000000 1.0
C      1  0.4764790000000  0.5846040000000  0.5004360000000 1.0
C      1  0.4768410000000  0.5237780000000  0.5241480000000 1.0
C      1  0.5285420000000  0.5093780000000  0.5229310000000 1.0
C      1  0.5501410000000  0.4459860000000  0.4688890000000 1.0
C      1  0.3745810000000  0.4766100000000  0.5266880000000 1.0
C      1  0.5144570000000  0.5385350000000  0.4762360000000 1.0
C      1  0.5811400000000  0.5385630000000  0.4546700000000 1.0
C      1  0.5497140000000  0.4210880000000  0.5117120000000 1.0
C      1  0.5337090000000  0.4690870000000  0.5056770000000 1.0
C      1  0.5282820000000  0.4757490000000  0.4190550000000 1.0
C      1  0.4873970000000  0.5210160000000  0.5533410000000 1.0
C      1  0.4573660000000  0.4725750000000  0.4400340000000 1.0
C      1  0.5081590000000  0.4745870000000  0.4461110000000 1.0
C      1  0.4609850000000  0.5629120000000  0.5315490000000 1.0
C      1  0.5412200000000  0.4392160000000  0.4381210000000 1.0
C      1  0.5323000000000  0.4272480000000  0.4880040000000 1.0
C      1  0.5003280000000  0.4683000000000  0.5121230000000 1.0
C      1  0.5845790000000  0.5369150000000  0.4833480000000 1.0
C      1  0.4813750000000  0.5152020000000  0.4101190000000 1.0
C      1  0.5088570000000  0.4214450000000  0.5410470000000 1.0
C      1  0.4069240000000  0.5005480000000  0.4651160000000 1.0
C      1  0.4222200000000  0.4923370000000  0.5255260000000 1.0
C      1  0.4554000000000  0.5851060000000  0.4836830000000 1.0
C      1  0.4995470000000  0.5617060000000  0.4961670000000 1.0
C      1  0.5887020000000  0.4588550000000  0.4812410000000 1.0
C      1  0.4484530000000  0.5560060000000  0.4709540000000 1.0
C      1  0.4896170000000  0.4276860000000  0.4377520000000 1.0
C      1  0.4805460000000  0.4726140000000  0.4599540000000 1.0
C      1  0.5129940000000  0.4434000000000  0.4364380000000 1.0
C      1  0.4518650000000  0.5274080000000  0.4528730000000 1.0
C      1  0.5537750000000  0.5021780000000  0.4348770000000 1.0
C      1  0.5268830000000  0.4945080000000  0.4668790000000 1.0
C      1  0.4766420000000  0.4579680000000  0.5802360000000 1.0
C      1  0.4019380000000  0.4739150000000  0.5136080000000 1.0
C      1  0.4199910000000  0.5412580000000  0.5145380000000 1.0
C      1  0.4776780000000  0.5633000000000  0.4556930000000 1.0
C      1  0.5637540000000  0.5774240000000  0.5234490000000 1.0
C      1  0.5778610000000  0.4580360000000  0.5523810000000 1.0
C      1  0.5418410000000  0.4555540000000  0.5358060000000 1.0
C      1  0.5824230000000  0.4848580000000  0.4408400000000 1.0
C      1  0.5330880000000  0.5463360000000  0.4488750000000 1.0
C      1  0.5480650000000  0.4861690000000  0.5382190000000 1.0
C      1  0.4385330000000  0.5293940000000  0.5680060000000 1.0
C      1  0.5882080000000  0.4838310000000  0.4696370000000 1.0
C      1  0.4314240000000  0.5016700000000  0.4473520000000 1.0
C      1  0.5475870000000  0.5710050000000  0.4875480000000 1.0
C      1  0.5471020000000  0.4749980000000  0.4542250000000 1.0
C      1  0.5062800000000  0.5146290000000  0.4989960000000 1.0
C      1  0.4441190000000  0.5021520000000  0.5747780000000 1.0
C      1  0.5158370000000  0.5972210000000  0.5346870000000 1.0
C      1  0.5046900000000  0.4720470000000  0.5431520000000 1.0
C      1  0.5619440000000  0.4508130000000  0.5006240000000 1.0
C      1  0.5114010000000  0.5014150000000  0.5506560000000 1.0
C      1  0.4035510000000  0.4449170000000  0.4967870000000 1.0
C      1  0.5225620000000  0.5775630000000  0.4795040000000 1.0
C      1  0.5781780000000  0.5053400000000  0.4913290000000 1.0
C      1  0.5598610000000  0.4642340000000  0.4245950000000 1.0
C      1  0.4374550000000  0.5194590000000  0.4826350000000 1.0
C      1  0.4019270000000  0.4196690000000  0.4969270000000 1.0
C      1  0.5258330000000  0.5408050000000  0.5353320000000 1.0
C      1  0.4466610000000  0.4975650000000  0.5052190000000 1.0
C      1  0.5393740000000  0.5102730000000  0.5678880000000 1.0
C      1  0.4915800000000  0.4951110000000  0.6148870000000 1.0
C      1  0.4068720000000  0.4732270000000  0.4805640000000 1.0
C      1  0.5798950000000  0.4656670000000  0.5255530000000 1.0
C      1  0.4498240000000  0.4873840000000  0.4101650000000 1.0
C      1  0.4783150000000  0.5017530000000  0.4735100000000 1.0
C      1  0.5258930000000  0.4372560000000  0.5735560000000 1.0
C      1  0.4557480000000  0.4579580000000  0.4093750000000 1.0
C      1  0.4304700000000  0.4693230000000  0.4580010000000 1.0
C      1  0.5448900000000  0.4993210000000  0.4948410000000 1.0
C      1  0.4124520000000  0.5218050000000  0.5280740000000 1.0
C      1  0.5400190000000  0.5984170000000  0.5282990000000 1.0
C      1  0.4848720000000  0.4471090000000  0.4820450000000 1.0
C      1  0.4954200000000  0.5577290000000  0.5926240000000 1.0
C      1  0.5049300000000  0.4256590000000  0.4924320000000 1.0
C      1  0.5684650000000  0.5615350000000  0.5513100000000 1.0
C      1  0.5787500000000  0.5627220000000  0.4960810000000 1.0
C      1  0.5482020000000  0.4606670000000  0.5688140000000 1.0
C      1  0.4981210000000  0.4465140000000  0.5594420000000 1.0
C      1  0.4518400000000  0.4487980000000  0.5602020000000 1.0
C      1  0.5359980000000  0.4256410000000  0.5365250000000 1.0
C      1  0.5561860000000  0.5311570000000  0.4435210000000 1.0
C      1  0.4703050000000  0.4524810000000  0.5097000000000 1.0
C      1  0.4818240000000  0.5342940000000  0.4383100000000 1.0
C      1  0.5463840000000  0.5507000000000  0.5148030000000 1.0
C      1  0.5525110000000  0.5380270000000  0.5542220000000 1.0
C      1  0.5175980000000  0.5171150000000  0.4266630000000 1.0
C      1  0.4458980000000  0.4725290000000  0.5812170000000 1.0
C      1  0.4804240000000  0.4942860000000  0.5075890000000 1.0
C      1  0.5826680000000  0.4945880000000  0.5213590000000 1.0
C      1  0.4743000000000  0.4943010000000  0.5636990000000 1.0
C      1  0.4966430000000  0.4833580000000  0.5870060000000 1.0
C      1  0.4837090000000  0.5461140000000  0.5714610000000 1.0
C      1  0.4680400000000  0.5284730000000  0.4918680000000 1.0
C      1  0.5106060000000  0.5495530000000  0.4273550000000 1.0
C      1  0.4965850000000  0.4125460000000  0.5168230000000 1.0
C      1  0.4434180000000  0.4388430000000  0.4559900000000 1.0
C      1  0.4578430000000  0.5478380000000  0.5559570000000 1.0
C      1  0.4902550000000  0.5801720000000  0.5301860000000 1.0
C      1  0.4569130000000  0.4562520000000  0.5328880000000 1.0
C      1  0.4473700000000  0.5520970000000  0.5047660000000 1.0
C      1  0.5682540000000  0.5100850000000  0.5464350000000 1.0
C      1  0.4050520000000  0.5247050000000  0.4813400000000 1.0
C      1  0.5421180000000  0.5317330000000  0.4912850000000 1.0
C      1  0.4980250000000  0.5481460000000  0.5259890000000 1.0
C      1  0.4971680000000  0.5813690000000  0.4615930000000 1.0
C      1  0.5281120000000  0.4828380000000  0.5813350000000 1.0
C      1  0.5018790000000  0.5137930000000  0.4565850000000 1.0
C      1  0.4520760000000  0.4855930000000  0.5394320000000 1.0
END
