TITL C-2847946-5639-197 0.0030829387547306 125000 -615.483998530178 0 0 110 (C1) n - 1
REM
REM in /home/bkarasulu/work/CARBON/AIRSS/Generating-Clusters/AIREBO/with-SteepDescent/Only-C1/SD-CG-opt/Try1-1.4A-POS3A/HFTN-CG
REM
REM
REM
REM
REM
REM ./C.cell (11c1c37f851c82e70ff6c80c92926a4b)
REM
REM compiler GCC version 9.2.1 20190827 (Red Hat 9.2.1-1)
REM options -cpp -mtune=generic -march=x86-64 -g -O0 -fpre-include=/usr/include/finclude/math-vector-fortran.h
REM seed 115167843 -1071949983 1864454787 463001945 1946635044 -1247041069 1402045575 -3707532 1836719210 1080510756 -1062723927 -1349020535 1951476572 -1762992591 -1868470407 1718765027 -382574458 386025286 -131836602 995881972 -1222661041 773903531 939751852 -513617052 1505732336 -569584553 419930824 115836824 3733251 170916852 -1947095610 637426973 1909499951
REM
CELL 1.54180   50.00000   50.00000   50.00000   90.00000   90.00000   90.00000
LATT -1
SFAC C  
C      1  0.5150160000000  0.4145130000000  0.4392260000000 1.0
C      1  0.5228670000000  0.4723090000000  0.3899250000000 1.0
C      1  0.5414070000000  0.4753070000000  0.4766360000000 1.0
C      1  0.5283690000000  0.4359700000000  0.5195030000000 1.0
C      1  0.4575960000000  0.5850770000000  0.5324290000000 1.0
C      1  0.4360700000000  0.4793070000000  0.4330840000000 1.0
C      1  0.5807730000000  0.4829100000000  0.4526890000000 1.0
C      1  0.4618810000000  0.5201640000000  0.5058540000000 1.0
C      1  0.5204160000000  0.4912010000000  0.5086870000000 1.0
C      1  0.5236040000000  0.4525080000000  0.4100320000000 1.0
C      1  0.4779190000000  0.5066030000000  0.5325940000000 1.0
C      1  0.4933240000000  0.4864860000000  0.4684460000000 1.0
C      1  0.4825830000000  0.4498490000000  0.4365620000000 1.0
C      1  0.5311130000000  0.5223460000000  0.4709350000000 1.0
C      1  0.5952040000000  0.5156230000000  0.5486220000000 1.0
C      1  0.5189210000000  0.4853480000000  0.5499010000000 1.0
C      1  0.5029020000000  0.4350500000000  0.4216460000000 1.0
C      1  0.4380690000000  0.5379520000000  0.5223640000000 1.0
C      1  0.4973720000000  0.4792950000000  0.5262160000000 1.0
C      1  0.4610390000000  0.4856850000000  0.5621760000000 1.0
C      1  0.4984240000000  0.4120960000000  0.4847010000000 1.0
C      1  0.5179180000000  0.5815790000000  0.5599380000000 1.0
C      1  0.4515660000000  0.4893560000000  0.5296430000000 1.0
C      1  0.4914610000000  0.5284630000000  0.4924570000000 1.0
C      1  0.5302420000000  0.4984440000000  0.3946790000000 1.0
C      1  0.5316230000000  0.5563520000000  0.5781580000000 1.0
C      1  0.4916210000000  0.4398490000000  0.4873970000000 1.0
C      1  0.5150940000000  0.5234460000000  0.4424600000000 1.0
C      1  0.4752070000000  0.5748490000000  0.5538540000000 1.0
C      1  0.4651440000000  0.4975500000000  0.4665440000000 1.0
C      1  0.5584890000000  0.5818370000000  0.5285250000000 1.0
C      1  0.4833450000000  0.5034190000000  0.5803390000000 1.0
C      1  0.5501330000000  0.5569090000000  0.4644450000000 1.0
C      1  0.4949140000000  0.5736630000000  0.5167350000000 1.0
C      1  0.4670630000000  0.5766400000000  0.5014860000000 1.0
C      1  0.4700230000000  0.5528140000000  0.4824590000000 1.0
C      1  0.5502710000000  0.4407760000000  0.4947410000000 1.0
C      1  0.5542170000000  0.5317180000000  0.5719140000000 1.0
C      1  0.6057280000000  0.5054840000000  0.4933170000000 1.0
C      1  0.4487210000000  0.4905710000000  0.4954940000000 1.0
C      1  0.4984120000000  0.4011590000000  0.4584070000000 1.0
C      1  0.5139640000000  0.5923820000000  0.5309040000000 1.0
C      1  0.5303560000000  0.5162780000000  0.5870600000000 1.0
C      1  0.5477720000000  0.5122580000000  0.4102090000000 1.0
C      1  0.4905020000000  0.5568790000000  0.4590920000000 1.0
C      1  0.4287370000000  0.5512080000000  0.4587150000000 1.0
C      1  0.4466260000000  0.4559580000000  0.5676580000000 1.0
C      1  0.5699630000000  0.5397320000000  0.4535890000000 1.0
C      1  0.5388070000000  0.5469740000000  0.4931700000000 1.0
C      1  0.5498850000000  0.5493900000000  0.5230670000000 1.0
C      1  0.4699170000000  0.4320860000000  0.5645320000000 1.0
C      1  0.5760430000000  0.5113840000000  0.5678380000000 1.0
C      1  0.5649500000000  0.5199720000000  0.5228470000000 1.0
C      1  0.4350520000000  0.5291980000000  0.5541700000000 1.0
C      1  0.4159870000000  0.4808320000000  0.4555880000000 1.0
C      1  0.3958850000000  0.5074870000000  0.4626630000000 1.0
C      1  0.4652450000000  0.5191170000000  0.4433120000000 1.0
C      1  0.5191380000000  0.5666410000000  0.4648760000000 1.0
C      1  0.5910520000000  0.4982760000000  0.5207640000000 1.0
C      1  0.4909640000000  0.5442620000000  0.5334640000000 1.0
C      1  0.5372290000000  0.4261110000000  0.4527700000000 1.0
C      1  0.4975120000000  0.4576100000000  0.4633060000000 1.0
C      1  0.4513870000000  0.5143440000000  0.5766840000000 1.0
C      1  0.4367580000000  0.5358670000000  0.4363820000000 1.0
C      1  0.4432200000000  0.5341800000000  0.4809510000000 1.0
C      1  0.4658730000000  0.5431810000000  0.5534060000000 1.0
C      1  0.5773080000000  0.4696560000000  0.5313820000000 1.0
C      1  0.4133160000000  0.4718400000000  0.5030900000000 1.0
C      1  0.4117450000000  0.4872090000000  0.5272380000000 1.0
C      1  0.5869270000000  0.5243880000000  0.4721860000000 1.0
C      1  0.5573710000000  0.5594750000000  0.5546840000000 1.0
C      1  0.5075250000000  0.5160450000000  0.5407350000000 1.0
C      1  0.5664150000000  0.4853960000000  0.5667310000000 1.0
C      1  0.5207680000000  0.5541970000000  0.5399680000000 1.0
C      1  0.4058920000000  0.4316160000000  0.4761040000000 1.0
C      1  0.4961130000000  0.4468510000000  0.5203740000000 1.0
C      1  0.6037320000000  0.4883510000000  0.4680800000000 1.0
C      1  0.5388940000000  0.5996330000000  0.5218330000000 1.0
C      1  0.5347570000000  0.5125810000000  0.5253910000000 1.0
C      1  0.4424920000000  0.4585360000000  0.4975150000000 1.0
C      1  0.4209740000000  0.5673070000000  0.4826120000000 1.0
C      1  0.4563770000000  0.4591460000000  0.4312680000000 1.0
C      1  0.4090180000000  0.4593510000000  0.4757260000000 1.0
C      1  0.4904130000000  0.5346310000000  0.4428050000000 1.0
C      1  0.5667790000000  0.5126230000000  0.4926810000000 1.0
C      1  0.5430510000000  0.4582340000000  0.4300690000000 1.0
C      1  0.4977710000000  0.5574120000000  0.5724000000000 1.0
C      1  0.4373370000000  0.5664850000000  0.5115450000000 1.0
C      1  0.5706220000000  0.4644510000000  0.4334860000000 1.0
C      1  0.5451480000000  0.4705180000000  0.5085320000000 1.0
C      1  0.4254780000000  0.5061600000000  0.4761790000000 1.0
C      1  0.5565090000000  0.4256580000000  0.4738540000000 1.0
C      1  0.5459940000000  0.4779290000000  0.5417340000000 1.0
C      1  0.5560150000000  0.5009870000000  0.4626000000000 1.0
C      1  0.5591880000000  0.4419970000000  0.5326980000000 1.0
C      1  0.4277260000000  0.4722300000000  0.5466610000000 1.0
C      1  0.4626070000000  0.4425510000000  0.5163160000000 1.0
C      1  0.5078420000000  0.5551300000000  0.4950010000000 1.0
C      1  0.4350390000000  0.4227510000000  0.5137290000000 1.0
C      1  0.4455720000000  0.4323520000000  0.5432760000000 1.0
C      1  0.5093080000000  0.5047960000000  0.4850050000000 1.0
C      1  0.5573420000000  0.5201260000000  0.4345160000000 1.0
C      1  0.4421620000000  0.5054120000000  0.4246940000000 1.0
C      1  0.4762470000000  0.5362860000000  0.5853850000000 1.0
C      1  0.5147950000000  0.4074590000000  0.5081160000000 1.0
C      1  0.5280170000000  0.4567080000000  0.4580140000000 1.0
C      1  0.4147380000000  0.5148090000000  0.5314900000000 1.0
C      1  0.4199820000000  0.4155800000000  0.4935750000000 1.0
C      1  0.5117220000000  0.4991260000000  0.5767130000000 1.0
C      1  0.4940830000000  0.4339380000000  0.5517660000000 1.0
END
