TITL C-2847959-7740-569 -0.0012349015978269 125000 -864.524840967825 0 0 155 (C1) n - 1
REM
REM in /home/bkarasulu/work/CARBON/AIRSS/Generating-Clusters/AIREBO/with-SteepDescent/Only-C1/SD-CG-opt/Try1-1.4A-POS3A/HFTN-CG
REM
REM
REM
REM
REM
REM ./C.cell (11c1c37f851c82e70ff6c80c92926a4b)
REM
REM compiler GCC version 9.2.1 20190827 (Red Hat 9.2.1-1)
REM options -cpp -mtune=generic -march=x86-64 -g -O0 -fpre-include=/usr/include/finclude/math-vector-fortran.h
REM seed -132142676 855169861 1650745792 -71427432 -1128373779 -1201571072 -278677469 1246435243 -1598839804 1227938089 709078507 -1804558733 1675662592 1353072106 1013364962 1401366694 1472830453 -911381595 159032990 -838142982 -1573487828 1899523291 -669653820 -1273471926 1972760073 1251310963 -1393870023 -1392928470 -883055510 -1764653538 701023935 996077800 979483718
REM
CELL 1.54180   50.00000   50.00000   50.00000   90.00000   90.00000   90.00000
LATT -1
SFAC C  
C      1  0.5432730000000  0.4171570000000  0.4845640000000 1.0
C      1  0.4389620000000  0.5154050000000  0.5932840000000 1.0
C      1  0.4389120000000  0.5327550000000  0.4191760000000 1.0
C      1  0.4871260000000  0.4696820000000  0.5990850000000 1.0
C      1  0.5989520000000  0.5352150000000  0.4631530000000 1.0
C      1  0.4459240000000  0.4210520000000  0.4639480000000 1.0
C      1  0.5260140000000  0.4055900000000  0.5635010000000 1.0
C      1  0.5813080000000  0.5788980000000  0.5531640000000 1.0
C      1  0.5402030000000  0.5372350000000  0.4035730000000 1.0
C      1  0.4899830000000  0.3837160000000  0.4914350000000 1.0
C      1  0.5855000000000  0.5120230000000  0.5418920000000 1.0
C      1  0.4410300000000  0.5716840000000  0.4596890000000 1.0
C      1  0.5902640000000  0.4860480000000  0.4680270000000 1.0
C      1  0.4927550000000  0.5771760000000  0.5310710000000 1.0
C      1  0.4528320000000  0.5319670000000  0.5173030000000 1.0
C      1  0.4233080000000  0.5258400000000  0.5649600000000 1.0
C      1  0.5002560000000  0.5404090000000  0.5924260000000 1.0
C      1  0.4532560000000  0.5297990000000  0.4839600000000 1.0
C      1  0.5585050000000  0.4967510000000  0.5166620000000 1.0
C      1  0.5789710000000  0.4412580000000  0.5260940000000 1.0
C      1  0.4716880000000  0.5123660000000  0.5312500000000 1.0
C      1  0.5417770000000  0.4688360000000  0.4525440000000 1.0
C      1  0.5237280000000  0.5742870000000  0.5381760000000 1.0
C      1  0.5000020000000  0.5284580000000  0.5310680000000 1.0
C      1  0.5234740000000  0.5758810000000  0.4765470000000 1.0
C      1  0.5185750000000  0.5106820000000  0.4947550000000 1.0
C      1  0.4243470000000  0.4626800000000  0.4590550000000 1.0
C      1  0.4633670000000  0.5129980000000  0.5617010000000 1.0
C      1  0.4846980000000  0.5165960000000  0.4105600000000 1.0
C      1  0.5253250000000  0.5115150000000  0.5458750000000 1.0
C      1  0.6057930000000  0.5228880000000  0.5223350000000 1.0
C      1  0.3748690000000  0.4613400000000  0.4823040000000 1.0
C      1  0.4605450000000  0.4093360000000  0.5184010000000 1.0
C      1  0.5502940000000  0.4885350000000  0.5481630000000 1.0
C      1  0.5707020000000  0.4763380000000  0.5724750000000 1.0
C      1  0.5157440000000  0.5646600000000  0.4457550000000 1.0
C      1  0.5019260000000  0.4582910000000  0.3997950000000 1.0
C      1  0.3935530000000  0.4788380000000  0.5358350000000 1.0
C      1  0.5019030000000  0.4473610000000  0.4568130000000 1.0
C      1  0.5128250000000  0.4999320000000  0.5737330000000 1.0
C      1  0.5816010000000  0.4443620000000  0.4551630000000 1.0
C      1  0.4420450000000  0.4555620000000  0.5732360000000 1.0
C      1  0.5923960000000  0.4660500000000  0.5272380000000 1.0
C      1  0.5378780000000  0.4761420000000  0.4996620000000 1.0
C      1  0.5326520000000  0.5442150000000  0.5517790000000 1.0
C      1  0.5051090000000  0.4607530000000  0.5415020000000 1.0
C      1  0.4602070000000  0.4522470000000  0.4277470000000 1.0
C      1  0.4129980000000  0.4956990000000  0.4406120000000 1.0
C      1  0.6070530000000  0.5498020000000  0.5229730000000 1.0
C      1  0.6019270000000  0.4768650000000  0.4986310000000 1.0
C      1  0.4874460000000  0.5762990000000  0.4308930000000 1.0
C      1  0.4642280000000  0.4410620000000  0.5675030000000 1.0
C      1  0.5073380000000  0.4313860000000  0.5515930000000 1.0
C      1  0.5718750000000  0.4725370000000  0.4428160000000 1.0
C      1  0.5312720000000  0.5384310000000  0.4424490000000 1.0
C      1  0.4084370000000  0.5370200000000  0.4575410000000 1.0
C      1  0.5057030000000  0.4920940000000  0.3995310000000 1.0
C      1  0.4107920000000  0.5615600000000  0.5326740000000 1.0
C      1  0.5649240000000  0.4144810000000  0.5106460000000 1.0
C      1  0.4411530000000  0.4415780000000  0.4454680000000 1.0
C      1  0.5607230000000  0.5343070000000  0.4259480000000 1.0
C      1  0.5374520000000  0.4831690000000  0.6109720000000 1.0
C      1  0.4356440000000  0.5918150000000  0.4799110000000 1.0
C      1  0.5330690000000  0.4926080000000  0.4703040000000 1.0
C      1  0.4429690000000  0.4892690000000  0.4508010000000 1.0
C      1  0.5696400000000  0.5486360000000  0.4554720000000 1.0
C      1  0.4922370000000  0.4954680000000  0.5100650000000 1.0
C      1  0.5213300000000  0.4197540000000  0.4609260000000 1.0
C      1  0.4935700000000  0.6003310000000  0.4868680000000 1.0
C      1  0.5598220000000  0.4260570000000  0.4561300000000 1.0
C      1  0.4734320000000  0.4207200000000  0.4824200000000 1.0
C      1  0.4643900000000  0.4994790000000  0.4747570000000 1.0
C      1  0.5479230000000  0.5151480000000  0.4579320000000 1.0
C      1  0.4670380000000  0.4340320000000  0.5360230000000 1.0
C      1  0.5451900000000  0.4385440000000  0.5263990000000 1.0
C      1  0.5727370000000  0.5312880000000  0.4845630000000 1.0
C      1  0.5088130000000  0.4022620000000  0.5341050000000 1.0
C      1  0.4059620000000  0.5194130000000  0.5067100000000 1.0
C      1  0.4886630000000  0.4414970000000  0.4262020000000 1.0
C      1  0.4566950000000  0.5936780000000  0.5259580000000 1.0
C      1  0.5202950000000  0.4515060000000  0.4850130000000 1.0
C      1  0.5402880000000  0.5866040000000  0.4493390000000 1.0
C      1  0.4633890000000  0.4913740000000  0.5948130000000 1.0
C      1  0.3929130000000  0.4725230000000  0.4554870000000 1.0
C      1  0.5550050000000  0.6076020000000  0.4992020000000 1.0
C      1  0.5076580000000  0.5562310000000  0.5714610000000 1.0
C      1  0.5107180000000  0.5117780000000  0.4400210000000 1.0
C      1  0.3915060000000  0.5253960000000  0.4765220000000 1.0
C      1  0.4444330000000  0.4865610000000  0.5669960000000 1.0
C      1  0.4303070000000  0.4599480000000  0.4901920000000 1.0
C      1  0.4923410000000  0.4106060000000  0.4350310000000 1.0
C      1  0.4696940000000  0.5577240000000  0.4605880000000 1.0
C      1  0.4134940000000  0.5235990000000  0.4327000000000 1.0
C      1  0.5095670000000  0.4266850000000  0.5851930000000 1.0
C      1  0.4843670000000  0.3938120000000  0.5162360000000 1.0
C      1  0.4967470000000  0.5090600000000  0.4704660000000 1.0
C      1  0.4827470000000  0.4717070000000  0.4677880000000 1.0
C      1  0.4608600000000  0.5652790000000  0.5706560000000 1.0
C      1  0.5171120000000  0.5228480000000  0.4084920000000 1.0
C      1  0.5371910000000  0.4578560000000  0.5495840000000 1.0
C      1  0.5868620000000  0.5060140000000  0.5024810000000 1.0
C      1  0.4267710000000  0.4832170000000  0.5416490000000 1.0
C      1  0.4506360000000  0.5624980000000  0.5323310000000 1.0
C      1  0.4433870000000  0.4293580000000  0.4967390000000 1.0
C      1  0.4076490000000  0.5098470000000  0.5393310000000 1.0
C      1  0.4569330000000  0.5387900000000  0.5819040000000 1.0
C      1  0.5005930000000  0.5524310000000  0.5130680000000 1.0
C      1  0.3932900000000  0.4962450000000  0.4770240000000 1.0
C      1  0.4223510000000  0.5453770000000  0.5104200000000 1.0
C      1  0.5665570000000  0.4675410000000  0.4838860000000 1.0
C      1  0.4553030000000  0.4841270000000  0.5272360000000 1.0
C      1  0.5795120000000  0.5610940000000  0.5317930000000 1.0
C      1  0.4324960000000  0.5452180000000  0.4679540000000 1.0
C      1  0.5465660000000  0.5266960000000  0.5058240000000 1.0
C      1  0.4807180000000  0.5984440000000  0.5115470000000 1.0
C      1  0.4873520000000  0.5866570000000  0.4632810000000 1.0
C      1  0.5623760000000  0.4878190000000  0.6003670000000 1.0
C      1  0.5799050000000  0.5103930000000  0.4516170000000 1.0
C      1  0.5602130000000  0.5342140000000  0.5360530000000 1.0
C      1  0.4543880000000  0.5106130000000  0.4095150000000 1.0
C      1  0.5382620000000  0.4890950000000  0.4092210000000 1.0
C      1  0.4304900000000  0.5564380000000  0.5580350000000 1.0
C      1  0.5693940000000  0.5850860000000  0.4876870000000 1.0
C      1  0.5324620000000  0.4032700000000  0.5127340000000 1.0
C      1  0.4627930000000  0.4840870000000  0.4271050000000 1.0
C      1  0.5294070000000  0.5555710000000  0.5005350000000 1.0
C      1  0.5403410000000  0.4351580000000  0.5734740000000 1.0
C      1  0.4875200000000  0.5134410000000  0.5844850000000 1.0
C      1  0.4770620000000  0.5523340000000  0.4929920000000 1.0
C      1  0.4778470000000  0.5381750000000  0.4339870000000 1.0
C      1  0.5163670000000  0.4328500000000  0.5096370000000 1.0
C      1  0.5355070000000  0.4384870000000  0.4374880000000 1.0
C      1  0.5129750000000  0.4825180000000  0.5972240000000 1.0
C      1  0.5197210000000  0.4666310000000  0.4267630000000 1.0
C      1  0.4464960000000  0.5663530000000  0.4988020000000 1.0
C      1  0.5898060000000  0.4847600000000  0.5482750000000 1.0
C      1  0.4846390000000  0.4391290000000  0.5073480000000 1.0
C      1  0.3848590000000  0.4694690000000  0.5068820000000 1.0
C      1  0.5950230000000  0.4488390000000  0.4809570000000 1.0
C      1  0.5234730000000  0.6025050000000  0.4934740000000 1.0
C      1  0.4943650000000  0.4834610000000  0.4398670000000 1.0
C      1  0.4862200000000  0.5698790000000  0.5598770000000 1.0
C      1  0.5658550000000  0.5779080000000  0.4603590000000 1.0
C      1  0.4754160000000  0.4642940000000  0.5369850000000 1.0
C      1  0.5620660000000  0.5635580000000  0.5056060000000 1.0
C      1  0.5632050000000  0.5001590000000  0.4241860000000 1.0
C      1  0.4118110000000  0.4861860000000  0.5014940000000 1.0
C      1  0.4586850000000  0.5606490000000  0.4214430000000 1.0
C      1  0.4498310000000  0.4833290000000  0.4983750000000 1.0
C      1  0.5671920000000  0.4456330000000  0.5784770000000 1.0
C      1  0.5362820000000  0.5962680000000  0.5241310000000 1.0
C      1  0.4863910000000  0.4681640000000  0.4979250000000 1.0
C      1  0.4943400000000  0.4036440000000  0.4667940000000 1.0
C      1  0.4848680000000  0.4449140000000  0.5858720000000 1.0
C      1  0.5177350000000  0.4853640000000  0.5254750000000 1.0
END
