TITL C-2847950-6905-30 0.000243479105648706 125000 -947.80856781237 0 0 172 (C1) n - 1
REM
REM in /home/bkarasulu/work/CARBON/AIRSS/Generating-Clusters/AIREBO/with-SteepDescent/Only-C1/SD-CG-opt/Try1-1.4A-POS3A/HFTN-CG
REM
REM
REM
REM
REM
REM ./C.cell (11c1c37f851c82e70ff6c80c92926a4b)
REM
REM compiler GCC version 9.2.1 20190827 (Red Hat 9.2.1-1)
REM options -cpp -mtune=generic -march=x86-64 -g -O0 -fpre-include=/usr/include/finclude/math-vector-fortran.h
REM seed 2102306673 -1643334816 -1607767960 -577910970 1410379805 -1409778309 -345079883 680073398 -1304650941 1132311182 934116333 1822292581 644944704 1556408151 451940760 574491382 -1576053455 558096852 -540408895 -2015987942 -1394781675 1224487470 -1870810469 519724402 -1722658095 1841315802 -1395006807 -594839180 -927329646 -1868784347 948955444 -2146548710 -1729702423
REM
CELL 1.54180   50.00000   50.00000   50.00000   90.00000   90.00000   90.00000
LATT -1
SFAC C  
C      1  0.5187230000000  0.5311510000000  0.4000980000000 1.0
C      1  0.5526210000000  0.6069590000000  0.5040350000000 1.0
C      1  0.5526900000000  0.5508500000000  0.4445590000000 1.0
C      1  0.5659460000000  0.5071320000000  0.5928200000000 1.0
C      1  0.4745860000000  0.4423890000000  0.5234210000000 1.0
C      1  0.5943820000000  0.4930950000000  0.5074670000000 1.0
C      1  0.4109850000000  0.5385770000000  0.4777910000000 1.0
C      1  0.4781830000000  0.4406450000000  0.5831930000000 1.0
C      1  0.4838850000000  0.3957930000000  0.4955910000000 1.0
C      1  0.5422830000000  0.5664970000000  0.5579620000000 1.0
C      1  0.4827280000000  0.4304130000000  0.4755920000000 1.0
C      1  0.5270330000000  0.6041430000000  0.4918940000000 1.0
C      1  0.5180250000000  0.5627220000000  0.4039630000000 1.0
C      1  0.4451270000000  0.4659000000000  0.4154990000000 1.0
C      1  0.5879370000000  0.4970740000000  0.4286410000000 1.0
C      1  0.4784970000000  0.5253520000000  0.5934520000000 1.0
C      1  0.5155100000000  0.4969610000000  0.5017190000000 1.0
C      1  0.5647780000000  0.4494870000000  0.5143120000000 1.0
C      1  0.5510820000000  0.5692170000000  0.4798810000000 1.0
C      1  0.5307420000000  0.4281310000000  0.4825010000000 1.0
C      1  0.5961740000000  0.4776260000000  0.5349680000000 1.0
C      1  0.5302580000000  0.5342080000000  0.4290520000000 1.0
C      1  0.5079770000000  0.5275060000000  0.6011710000000 1.0
C      1  0.5125280000000  0.5047330000000  0.4687200000000 1.0
C      1  0.5204470000000  0.5492040000000  0.5889450000000 1.0
C      1  0.5209130000000  0.5535980000000  0.4784270000000 1.0
C      1  0.5744310000000  0.5201280000000  0.5493280000000 1.0
C      1  0.4451700000000  0.5611620000000  0.5373050000000 1.0
C      1  0.4354770000000  0.4236140000000  0.4905720000000 1.0
C      1  0.4586870000000  0.6022520000000  0.5268260000000 1.0
C      1  0.5576240000000  0.4231640000000  0.4977300000000 1.0
C      1  0.4638050000000  0.5347830000000  0.4857100000000 1.0
C      1  0.5045620000000  0.4460960000000  0.5359810000000 1.0
C      1  0.5796030000000  0.4856360000000  0.5814200000000 1.0
C      1  0.5318530000000  0.4227060000000  0.5743160000000 1.0
C      1  0.5673470000000  0.4296130000000  0.4661000000000 1.0
C      1  0.4457100000000  0.5357930000000  0.5144930000000 1.0
C      1  0.4953840000000  0.5228870000000  0.4455810000000 1.0
C      1  0.4183410000000  0.4652420000000  0.4642410000000 1.0
C      1  0.4620340000000  0.4413320000000  0.5550040000000 1.0
C      1  0.5001470000000  0.5744300000000  0.4376710000000 1.0
C      1  0.5841960000000  0.5287680000000  0.5223410000000 1.0
C      1  0.4594230000000  0.4545090000000  0.4441690000000 1.0
C      1  0.4350470000000  0.4574190000000  0.5114110000000 1.0
C      1  0.4975640000000  0.5307540000000  0.4847090000000 1.0
C      1  0.4789580000000  0.4125280000000  0.4488960000000 1.0
C      1  0.4017810000000  0.4556250000000  0.5006700000000 1.0
C      1  0.5319630000000  0.4737370000000  0.5689450000000 1.0
C      1  0.4388720000000  0.5530540000000  0.5676930000000 1.0
C      1  0.4265950000000  0.5682070000000  0.4836710000000 1.0
C      1  0.4976640000000  0.4715030000000  0.3937560000000 1.0
C      1  0.3979810000000  0.5586190000000  0.4997380000000 1.0
C      1  0.4305800000000  0.4375370000000  0.4659970000000 1.0
C      1  0.5231570000000  0.6009370000000  0.4652650000000 1.0
C      1  0.5134780000000  0.4465420000000  0.5659490000000 1.0
C      1  0.4347510000000  0.4825290000000  0.5821100000000 1.0
C      1  0.4797040000000  0.4673910000000  0.4201010000000 1.0
C      1  0.4805540000000  0.5941700000000  0.5416060000000 1.0
C      1  0.5900580000000  0.4935270000000  0.5566740000000 1.0
C      1  0.4772220000000  0.4986150000000  0.5719810000000 1.0
C      1  0.5699270000000  0.4635770000000  0.4167940000000 1.0
C      1  0.4313670000000  0.5105180000000  0.4172480000000 1.0
C      1  0.6031010000000  0.5081770000000  0.4782600000000 1.0
C      1  0.5459400000000  0.5209950000000  0.5145420000000 1.0
C      1  0.5469500000000  0.4766850000000  0.5242340000000 1.0
C      1  0.5501130000000  0.5529930000000  0.5841800000000 1.0
C      1  0.5650090000000  0.5297930000000  0.4622080000000 1.0
C      1  0.5289630000000  0.3981210000000  0.5613380000000 1.0
C      1  0.6072560000000  0.4744150000000  0.4821230000000 1.0
C      1  0.4793640000000  0.4992440000000  0.4271280000000 1.0
C      1  0.5255010000000  0.4682370000000  0.4000600000000 1.0
C      1  0.4735970000000  0.5341630000000  0.5445880000000 1.0
C      1  0.5336990000000  0.4567550000000  0.4717430000000 1.0
C      1  0.5174020000000  0.4671880000000  0.5180500000000 1.0
C      1  0.3869700000000  0.5436610000000  0.5201350000000 1.0
C      1  0.5037660000000  0.4139000000000  0.5250510000000 1.0
C      1  0.5843810000000  0.5652880000000  0.4876410000000 1.0
C      1  0.4703210000000  0.4579770000000  0.4721320000000 1.0
C      1  0.5044500000000  0.4298190000000  0.4994790000000 1.0
C      1  0.4687820000000  0.5674540000000  0.4937240000000 1.0
C      1  0.4652670000000  0.5517650000000  0.5841190000000 1.0
C      1  0.6121970000000  0.5204560000000  0.5169990000000 1.0
C      1  0.4578980000000  0.5015900000000  0.4811470000000 1.0
C      1  0.5069430000000  0.4608820000000  0.4878640000000 1.0
C      1  0.5460880000000  0.4275020000000  0.4458380000000 1.0
C      1  0.4066190000000  0.4851250000000  0.5145320000000 1.0
C      1  0.4751540000000  0.5901520000000  0.4720090000000 1.0
C      1  0.4650630000000  0.4764980000000  0.5947790000000 1.0
C      1  0.4439410000000  0.5784700000000  0.5095900000000 1.0
C      1  0.5081150000000  0.5977140000000  0.5372000000000 1.0
C      1  0.4899590000000  0.4953510000000  0.3796080000000 1.0
C      1  0.4976440000000  0.4239300000000  0.4273180000000 1.0
C      1  0.5505210000000  0.4960110000000  0.5511650000000 1.0
C      1  0.4543650000000  0.5049820000000  0.4494600000000 1.0
C      1  0.5332830000000  0.4709790000000  0.6028230000000 1.0
C      1  0.5864940000000  0.4576310000000  0.4656800000000 1.0
C      1  0.5413370000000  0.5860210000000  0.5361120000000 1.0
C      1  0.4483210000000  0.4241720000000  0.4445450000000 1.0
C      1  0.5282850000000  0.3992430000000  0.5333740000000 1.0
C      1  0.4018230000000  0.5112020000000  0.5581060000000 1.0
C      1  0.5170800000000  0.5139890000000  0.5311100000000 1.0
C      1  0.5627250000000  0.4619240000000  0.5773710000000 1.0
C      1  0.4568580000000  0.5062350000000  0.6055280000000 1.0
C      1  0.5202810000000  0.4094020000000  0.4585920000000 1.0
C      1  0.4640880000000  0.4224210000000  0.5002350000000 1.0
C      1  0.5906700000000  0.4675220000000  0.4377920000000 1.0
C      1  0.5394910000000  0.5722110000000  0.4212970000000 1.0
C      1  0.4770780000000  0.3974690000000  0.5284100000000 1.0
C      1  0.4059840000000  0.4775190000000  0.4413630000000 1.0
C      1  0.4819870000000  0.5374170000000  0.4162380000000 1.0
C      1  0.4573600000000  0.4095100000000  0.5439270000000 1.0
C      1  0.6016100000000  0.5416490000000  0.4725590000000 1.0
C      1  0.3991390000000  0.5225790000000  0.4544050000000 1.0
C      1  0.4862080000000  0.5703990000000  0.4091080000000 1.0
C      1  0.5362790000000  0.5124690000000  0.5773080000000 1.0
C      1  0.5665970000000  0.4929610000000  0.4054320000000 1.0
C      1  0.4976090000000  0.5942310000000  0.4565270000000 1.0
C      1  0.4270790000000  0.4884700000000  0.4875300000000 1.0
C      1  0.4688350000000  0.4992250000000  0.5128150000000 1.0
C      1  0.4868050000000  0.4841470000000  0.4771300000000 1.0
C      1  0.5687220000000  0.5365750000000  0.4946840000000 1.0
C      1  0.5698810000000  0.5339430000000  0.5791190000000 1.0
C      1  0.5193470000000  0.5789750000000  0.5111470000000 1.0
C      1  0.5322530000000  0.5342600000000  0.5538030000000 1.0
C      1  0.4526130000000  0.5166150000000  0.5591900000000 1.0
C      1  0.4485640000000  0.5769130000000  0.4592160000000 1.0
C      1  0.5043780000000  0.5611700000000  0.5694410000000 1.0
C      1  0.4630960000000  0.4668460000000  0.5041660000000 1.0
C      1  0.4569610000000  0.5159930000000  0.4077980000000 1.0
C      1  0.5132870000000  0.4960330000000  0.5962140000000 1.0
C      1  0.5452450000000  0.5833300000000  0.4513560000000 1.0
C      1  0.4485280000000  0.5436720000000  0.4572940000000 1.0
C      1  0.5464660000000  0.5057280000000  0.4707550000000 1.0
C      1  0.4251550000000  0.5256630000000  0.5730590000000 1.0
C      1  0.4909780000000  0.5605030000000  0.5139770000000 1.0
C      1  0.4205640000000  0.5194620000000  0.5008790000000 1.0
C      1  0.4911140000000  0.5213130000000  0.3876900000000 1.0
C      1  0.5576000000000  0.4303230000000  0.5799710000000 1.0
C      1  0.4741640000000  0.5663520000000  0.5547200000000 1.0
C      1  0.4239810000000  0.4833490000000  0.4193810000000 1.0
C      1  0.4887310000000  0.5267110000000  0.5172950000000 1.0
C      1  0.4160720000000  0.4293260000000  0.5141680000000 1.0
C      1  0.5617920000000  0.5759020000000  0.5107350000000 1.0
C      1  0.4619340000000  0.4737440000000  0.5545410000000 1.0
C      1  0.4328050000000  0.4836460000000  0.5487630000000 1.0
C      1  0.5393640000000  0.4562510000000  0.4287240000000 1.0
C      1  0.4067870000000  0.4905300000000  0.5782200000000 1.0
C      1  0.4277350000000  0.5250830000000  0.4441020000000 1.0
C      1  0.5086680000000  0.5527490000000  0.5399730000000 1.0
C      1  0.5614010000000  0.4949000000000  0.4993280000000 1.0
C      1  0.4316520000000  0.4325120000000  0.5425080000000 1.0
C      1  0.4144570000000  0.4615530000000  0.5377550000000 1.0
C      1  0.5493140000000  0.3993300000000  0.5162450000000 1.0
C      1  0.5615250000000  0.4642410000000  0.4848260000000 1.0
C      1  0.5115680000000  0.5499220000000  0.4491390000000 1.0
C      1  0.4443960000000  0.5072710000000  0.5304550000000 1.0
C      1  0.5061520000000  0.4509200000000  0.4337110000000 1.0
C      1  0.3877790000000  0.4990080000000  0.4474400000000 1.0
C      1  0.5395770000000  0.4953770000000  0.3980120000000 1.0
C      1  0.4632510000000  0.5602750000000  0.4330770000000 1.0
C      1  0.5793410000000  0.4404500000000  0.5588880000000 1.0
C      1  0.4957390000000  0.3931560000000  0.4700320000000 1.0
C      1  0.5331060000000  0.5483130000000  0.5083980000000 1.0
C      1  0.5130020000000  0.4833750000000  0.4412150000000 1.0
C      1  0.5113520000000  0.5019100000000  0.4158290000000 1.0
C      1  0.5918770000000  0.5180090000000  0.4494470000000 1.0
C      1  0.4309420000000  0.5164560000000  0.6027700000000 1.0
C      1  0.5073460000000  0.4939400000000  0.5568430000000 1.0
C      1  0.4000900000000  0.5143070000000  0.5275970000000 1.0
C      1  0.5425180000000  0.4801460000000  0.4530380000000 1.0
C      1  0.5861830000000  0.4516410000000  0.5347330000000 1.0
C      1  0.4969450000000  0.4674750000000  0.5870960000000 1.0
END
