TITL C-2847957-7266-42 -0.00566821328370881 125000 -994.411330961842 0 0 181 (C1) n - 1
REM
REM in /home/bkarasulu/work/CARBON/AIRSS/Generating-Clusters/AIREBO/with-SteepDescent/Only-C1/SD-CG-opt/Try1-1.4A-POS3A/HFTN-CG
REM
REM
REM
REM
REM
REM ./C.cell (11c1c37f851c82e70ff6c80c92926a4b)
REM
REM compiler GCC version 9.2.1 20190827 (Red Hat 9.2.1-1)
REM options -cpp -mtune=generic -march=x86-64 -g -O0 -fpre-include=/usr/include/finclude/math-vector-fortran.h
REM seed -1794955176 1198149969 64499044 -37919383 -696701153 -1255227311 1498886507 1364420886 -125610225 -1370035317 1342737282 -491419935 -1222301515 437423844 267143709 -447670895 861000693 2081738743 -1175549790 448350932 -1691125302 762224541 -332346993 -1344125177 -1837961090 145881243 148876799 -1357578131 -223748620 1201424899 112654524 719298034 -1862650636
REM
CELL 1.54180   50.00000   50.00000   50.00000   90.00000   90.00000   90.00000
LATT -1
SFAC C  
C      1  0.5859730000000  0.4518510000000  0.5421020000000 1.0
C      1  0.4570190000000  0.4623180000000  0.4301770000000 1.0
C      1  0.5256920000000  0.4003730000000  0.4834690000000 1.0
C      1  0.5402270000000  0.3989480000000  0.5380620000000 1.0
C      1  0.5023360000000  0.4788790000000  0.5460000000000 1.0
C      1  0.4755490000000  0.4992960000000  0.6000230000000 1.0
C      1  0.5024140000000  0.5759510000000  0.5152970000000 1.0
C      1  0.4675730000000  0.3780080000000  0.5169810000000 1.0
C      1  0.5230570000000  0.5571240000000  0.5311370000000 1.0
C      1  0.4431580000000  0.5293030000000  0.5924210000000 1.0
C      1  0.5109600000000  0.4559410000000  0.4735980000000 1.0
C      1  0.5514840000000  0.4005960000000  0.4716320000000 1.0
C      1  0.4992180000000  0.5007490000000  0.4574110000000 1.0
C      1  0.4295650000000  0.5352040000000  0.4824430000000 1.0
C      1  0.4072890000000  0.5359500000000  0.5540150000000 1.0
C      1  0.4673000000000  0.4333220000000  0.4238580000000 1.0
C      1  0.4330100000000  0.5795540000000  0.5156020000000 1.0
C      1  0.6024490000000  0.5025960000000  0.5414710000000 1.0
C      1  0.5346330000000  0.5021810000000  0.5370270000000 1.0
C      1  0.5989340000000  0.4768350000000  0.5335610000000 1.0
C      1  0.5442180000000  0.5493340000000  0.5965000000000 1.0
C      1  0.4575500000000  0.4855770000000  0.5465820000000 1.0
C      1  0.5506370000000  0.5160790000000  0.4483030000000 1.0
C      1  0.4588330000000  0.4546250000000  0.4691050000000 1.0
C      1  0.4786020000000  0.5195340000000  0.5772060000000 1.0
C      1  0.4773520000000  0.4679560000000  0.5632030000000 1.0
C      1  0.4222880000000  0.4457570000000  0.4899860000000 1.0
C      1  0.5151890000000  0.5476000000000  0.4089890000000 1.0
C      1  0.5706210000000  0.5735280000000  0.5093680000000 1.0
C      1  0.4286200000000  0.4011840000000  0.4919570000000 1.0
C      1  0.5841210000000  0.5449980000000  0.4446230000000 1.0
C      1  0.4849550000000  0.4814690000000  0.4332960000000 1.0
C      1  0.5102690000000  0.5369830000000  0.5109440000000 1.0
C      1  0.5769990000000  0.5412540000000  0.5150660000000 1.0
C      1  0.5869460000000  0.4637960000000  0.5042270000000 1.0
C      1  0.4939890000000  0.4147380000000  0.4263940000000 1.0
C      1  0.5656880000000  0.4652650000000  0.5816980000000 1.0
C      1  0.5128140000000  0.5068580000000  0.5582700000000 1.0
C      1  0.4247630000000  0.4592200000000  0.5476470000000 1.0
C      1  0.5040400000000  0.5618030000000  0.4662880000000 1.0
C      1  0.5416470000000  0.5488290000000  0.4690560000000 1.0
C      1  0.5727020000000  0.4390440000000  0.4304340000000 1.0
C      1  0.5277660000000  0.4777670000000  0.5153780000000 1.0
C      1  0.5669970000000  0.5848600000000  0.4838340000000 1.0
C      1  0.5328380000000  0.5160290000000  0.5091470000000 1.0
C      1  0.4514080000000  0.4831580000000  0.4549900000000 1.0
C      1  0.4151220000000  0.5065060000000  0.5413860000000 1.0
C      1  0.4602940000000  0.4786190000000  0.5140470000000 1.0
C      1  0.4374470000000  0.5024560000000  0.4307100000000 1.0
C      1  0.3901090000000  0.5245130000000  0.5280500000000 1.0
C      1  0.4267800000000  0.5369310000000  0.5123740000000 1.0
C      1  0.6062640000000  0.4726190000000  0.4824110000000 1.0
C      1  0.5286930000000  0.5745960000000  0.4859040000000 1.0
C      1  0.4933090000000  0.4507620000000  0.5020120000000 1.0
C      1  0.5722860000000  0.4873250000000  0.4680360000000 1.0
C      1  0.4083370000000  0.5664070000000  0.4697740000000 1.0
C      1  0.4919950000000  0.5555020000000  0.5914430000000 1.0
C      1  0.4129520000000  0.5107270000000  0.4543310000000 1.0
C      1  0.5817570000000  0.5140420000000  0.5571460000000 1.0
C      1  0.5611920000000  0.4315650000000  0.5806300000000 1.0
C      1  0.4479530000000  0.5457230000000  0.5296510000000 1.0
C      1  0.4392550000000  0.5056970000000  0.5174490000000 1.0
C      1  0.5896950000000  0.5529360000000  0.5438150000000 1.0
C      1  0.4414630000000  0.4033960000000  0.4639770000000 1.0
C      1  0.5256730000000  0.5573290000000  0.4402660000000 1.0
C      1  0.5738110000000  0.3965790000000  0.4877250000000 1.0
C      1  0.5431890000000  0.5768820000000  0.5923100000000 1.0
C      1  0.3904550000000  0.5179930000000  0.4788030000000 1.0
C      1  0.4858030000000  0.5552830000000  0.4383350000000 1.0
C      1  0.4847870000000  0.6037430000000  0.5130820000000 1.0
C      1  0.5179560000000  0.4320000000000  0.5351780000000 1.0
C      1  0.4872500000000  0.5211950000000  0.4367430000000 1.0
C      1  0.5130580000000  0.5196460000000  0.3979460000000 1.0
C      1  0.5505490000000  0.5019880000000  0.4896910000000 1.0
C      1  0.4831720000000  0.5568060000000  0.5439560000000 1.0
C      1  0.5542370000000  0.5693710000000  0.5369560000000 1.0
C      1  0.4749790000000  0.4677530000000  0.3953140000000 1.0
C      1  0.5057240000000  0.4116470000000  0.4581680000000 1.0
C      1  0.4589840000000  0.4933950000000  0.4055360000000 1.0
C      1  0.4173630000000  0.4284960000000  0.5347900000000 1.0
C      1  0.4494060000000  0.4290360000000  0.4504250000000 1.0
C      1  0.4687840000000  0.4308970000000  0.5146970000000 1.0
C      1  0.5664590000000  0.5521820000000  0.5636480000000 1.0
C      1  0.5901170000000  0.5131090000000  0.4433470000000 1.0
C      1  0.5360120000000  0.5392940000000  0.5552760000000 1.0
C      1  0.5400600000000  0.5004830000000  0.3982040000000 1.0
C      1  0.5062970000000  0.6075550000000  0.4870250000000 1.0
C      1  0.5384500000000  0.4505530000000  0.5263830000000 1.0
C      1  0.5134970000000  0.4650380000000  0.4409330000000 1.0
C      1  0.5654280000000  0.5254640000000  0.5847020000000 1.0
C      1  0.4697060000000  0.5130680000000  0.5306750000000 1.0
C      1  0.4967420000000  0.4136620000000  0.5235190000000 1.0
C      1  0.5166330000000  0.5380990000000  0.6028860000000 1.0
C      1  0.3886280000000  0.5342530000000  0.5017050000000 1.0
C      1  0.4522530000000  0.4478800000000  0.5743070000000 1.0
C      1  0.5252250000000  0.4599570000000  0.5627970000000 1.0
C      1  0.5569090000000  0.4570100000000  0.5506380000000 1.0
C      1  0.5261690000000  0.4504840000000  0.4061710000000 1.0
C      1  0.4547160000000  0.5416140000000  0.4642130000000 1.0
C      1  0.4199570000000  0.5208310000000  0.4072530000000 1.0
C      1  0.5131130000000  0.5314880000000  0.4787370000000 1.0
C      1  0.4154060000000  0.4223570000000  0.5036550000000 1.0
C      1  0.5952050000000  0.5248210000000  0.4937460000000 1.0
C      1  0.4309080000000  0.5034930000000  0.5899690000000 1.0
C      1  0.5900010000000  0.4102140000000  0.5046520000000 1.0
C      1  0.4765830000000  0.5857810000000  0.4502500000000 1.0
C      1  0.5498260000000  0.4126180000000  0.4475670000000 1.0
C      1  0.4927570000000  0.5196430000000  0.6185620000000 1.0
C      1  0.4659250000000  0.5554430000000  0.4114090000000 1.0
C      1  0.5283030000000  0.4983080000000  0.4570030000000 1.0
C      1  0.4436930000000  0.5371570000000  0.4118840000000 1.0
C      1  0.4843730000000  0.4359650000000  0.5723660000000 1.0
C      1  0.4581500000000  0.5568320000000  0.5952460000000 1.0
C      1  0.5909920000000  0.4333710000000  0.5188920000000 1.0
C      1  0.6167180000000  0.4545060000000  0.4648070000000 1.0
C      1  0.4584190000000  0.5279380000000  0.5560770000000 1.0
C      1  0.4012580000000  0.4619380000000  0.4749020000000 1.0
C      1  0.4594800000000  0.4019600000000  0.4993090000000 1.0
C      1  0.4576290000000  0.5271530000000  0.4392810000000 1.0
C      1  0.4974350000000  0.5854880000000  0.5788440000000 1.0
C      1  0.5423080000000  0.4165790000000  0.5627040000000 1.0
C      1  0.5560430000000  0.4642680000000  0.5013900000000 1.0
C      1  0.6120760000000  0.5204620000000  0.5212060000000 1.0
C      1  0.4664070000000  0.5215030000000  0.4890170000000 1.0
C      1  0.4954320000000  0.4435340000000  0.4077090000000 1.0
C      1  0.4895860000000  0.5053260000000  0.4094930000000 1.0
C      1  0.5248150000000  0.5900160000000  0.5733960000000 1.0
C      1  0.5457700000000  0.5565160000000  0.4145830000000 1.0
C      1  0.5329840000000  0.4910340000000  0.5995420000000 1.0
C      1  0.4051630000000  0.5437920000000  0.4523220000000 1.0
C      1  0.4549820000000  0.5869340000000  0.4906160000000 1.0
C      1  0.6005740000000  0.4481420000000  0.4429960000000 1.0
C      1  0.4510880000000  0.4771080000000  0.5918760000000 1.0
C      1  0.5466220000000  0.4277110000000  0.4172700000000 1.0
C      1  0.4304460000000  0.5835310000000  0.4670130000000 1.0
C      1  0.5600200000000  0.4922490000000  0.5907510000000 1.0
C      1  0.4390510000000  0.5047440000000  0.4752990000000 1.0
C      1  0.4287160000000  0.4872710000000  0.5605470000000 1.0
C      1  0.5252420000000  0.4348550000000  0.4427750000000 1.0
C      1  0.4815960000000  0.5669720000000  0.4915280000000 1.0
C      1  0.4871750000000  0.3847620000000  0.5319190000000 1.0
C      1  0.4941180000000  0.4821950000000  0.5131390000000 1.0
C      1  0.4668330000000  0.5748190000000  0.5677180000000 1.0
C      1  0.5233710000000  0.5079390000000  0.3695220000000 1.0
C      1  0.5743020000000  0.4680600000000  0.4437740000000 1.0
C      1  0.5368690000000  0.4785320000000  0.4200420000000 1.0
C      1  0.5177290000000  0.5113290000000  0.5886430000000 1.0
C      1  0.4931020000000  0.5055740000000  0.4881630000000 1.0
C      1  0.4775360000000  0.5417530000000  0.5139740000000 1.0
C      1  0.4852290000000  0.4377840000000  0.4654760000000 1.0
C      1  0.4384720000000  0.5772240000000  0.5491080000000 1.0
C      1  0.4199880000000  0.4887730000000  0.4976030000000 1.0
C      1  0.5661880000000  0.4945010000000  0.4278920000000 1.0
C      1  0.4495300000000  0.4365400000000  0.5423210000000 1.0
C      1  0.4072110000000  0.4772630000000  0.4521420000000 1.0
C      1  0.3984770000000  0.4559640000000  0.5271220000000 1.0
C      1  0.3967980000000  0.4723540000000  0.5050800000000 1.0
C      1  0.6000880000000  0.5027660000000  0.4720820000000 1.0
C      1  0.4799450000000  0.6025350000000  0.4735580000000 1.0
C      1  0.5307510000000  0.5926000000000  0.5147020000000 1.0
C      1  0.5708400000000  0.5645810000000  0.4615820000000 1.0
C      1  0.5126210000000  0.4301310000000  0.5662830000000 1.0
C      1  0.4908540000000  0.5636810000000  0.3995930000000 1.0
C      1  0.5245440000000  0.4012710000000  0.5111780000000 1.0
C      1  0.5031070000000  0.5389690000000  0.5638710000000 1.0
C      1  0.5185250000000  0.4682060000000  0.5922950000000 1.0
C      1  0.4073910000000  0.5624600000000  0.5010430000000 1.0
C      1  0.4509860000000  0.4546720000000  0.4981290000000 1.0
C      1  0.4652710000000  0.5814040000000  0.5285960000000 1.0
C      1  0.4232600000000  0.4651710000000  0.4331280000000 1.0
C      1  0.4525970000000  0.5699550000000  0.4546150000000 1.0
C      1  0.5694750000000  0.5122460000000  0.3990710000000 1.0
C      1  0.5659260000000  0.5262080000000  0.4765090000000 1.0
C      1  0.5344640000000  0.5930690000000  0.5473180000000 1.0
C      1  0.4746550000000  0.4054920000000  0.4705570000000 1.0
C      1  0.5599150000000  0.5229980000000  0.5374020000000 1.0
C      1  0.5637390000000  0.5339370000000  0.4221000000000 1.0
C      1  0.5365680000000  0.4738450000000  0.4766770000000 1.0
C      1  0.4329550000000  0.5481840000000  0.5659710000000 1.0
C      1  0.4905680000000  0.4724780000000  0.5936470000000 1.0
C      1  0.5399010000000  0.6056350000000  0.4817410000000 1.0
END
