TITL C-2848503-6230-267 -0.00031983679570106 125000 -394.842556257116 0 0 78 (C1) n - 1
REM
REM in /home/bkarasulu/work/CARBON/AIRSS/Generating-Clusters/AIREBO/with-SteepDescent/Only-C1/SD-CG-opt/Try1-1.4A-POS3A/HFTN-CG
REM
REM
REM
REM
REM
REM ./C.cell (11c1c37f851c82e70ff6c80c92926a4b)
REM
REM compiler GCC version 9.2.1 20190827 (Red Hat 9.2.1-1)
REM options -cpp -mtune=generic -march=x86-64 -g -O0 -fpre-include=/usr/include/finclude/math-vector-fortran.h
REM seed -1288492419 622798295 246974399 1769659731 -453243133 -180715556 2045368102 -1060921650 1399658958 1222570393 628201526 606004679 1880695474 1834759081 -1408292209 1059126321 1305994934 -1674244274 -2076292899 824218546 -1966201365 -2087740546 -1973591286 1611884731 832210435 1193784390 336977070 -1940381859 -1077651316 -1430577806 763478155 1363763897 -523635803
REM
CELL 1.54180   50.00000   50.00000   50.00000   90.00000   90.00000   90.00000
LATT -1
SFAC C  
C      1  0.4830440000000  0.4534170000000  0.5109080000000 1.0
C      1  0.4605690000000  0.5655900000000  0.5102300000000 1.0
C      1  0.5202350000000  0.5312580000000  0.4434040000000 1.0
C      1  0.4964870000000  0.5409350000000  0.5551520000000 1.0
C      1  0.5332010000000  0.5268660000000  0.5201610000000 1.0
C      1  0.5148930000000  0.4467930000000  0.5550320000000 1.0
C      1  0.5128450000000  0.5055310000000  0.5886450000000 1.0
C      1  0.4653390000000  0.5170460000000  0.4268230000000 1.0
C      1  0.5303970000000  0.5589100000000  0.4584070000000 1.0
C      1  0.4720160000000  0.6067370000000  0.5380860000000 1.0
C      1  0.4547510000000  0.5220830000000  0.5325820000000 1.0
C      1  0.5235610000000  0.5083600000000  0.4196980000000 1.0
C      1  0.5015660000000  0.5155800000000  0.4671080000000 1.0
C      1  0.5450980000000  0.5345150000000  0.5509050000000 1.0
C      1  0.4845410000000  0.5191120000000  0.5750760000000 1.0
C      1  0.5081930000000  0.5725630000000  0.5262620000000 1.0
C      1  0.4580880000000  0.5040860000000  0.5612650000000 1.0
C      1  0.4902710000000  0.5051950000000  0.5112500000000 1.0
C      1  0.5101160000000  0.4861690000000  0.4279550000000 1.0
C      1  0.4893340000000  0.4144880000000  0.4837240000000 1.0
C      1  0.5512520000000  0.5176780000000  0.4854920000000 1.0
C      1  0.5538010000000  0.4835400000000  0.4518270000000 1.0
C      1  0.4715270000000  0.4432030000000  0.4805920000000 1.0
C      1  0.5291610000000  0.5000440000000  0.5385880000000 1.0
C      1  0.5742480000000  0.5106440000000  0.5098760000000 1.0
C      1  0.5055400000000  0.4888430000000  0.5603830000000 1.0
C      1  0.5043160000000  0.4748100000000  0.5052600000000 1.0
C      1  0.5524920000000  0.4548640000000  0.4576780000000 1.0
C      1  0.4607330000000  0.5563340000000  0.4789300000000 1.0
C      1  0.5405900000000  0.5060110000000  0.5689990000000 1.0
C      1  0.5180700000000  0.5542800000000  0.5449330000000 1.0
C      1  0.4887740000000  0.5411250000000  0.4325680000000 1.0
C      1  0.4976410000000  0.5598520000000  0.4965430000000 1.0
C      1  0.5688000000000  0.4586550000000  0.5273850000000 1.0
C      1  0.5621790000000  0.4819770000000  0.5514100000000 1.0
C      1  0.5165550000000  0.4198970000000  0.4874760000000 1.0
C      1  0.5729710000000  0.5413370000000  0.4966550000000 1.0
C      1  0.4379710000000  0.4435910000000  0.4883440000000 1.0
C      1  0.4492180000000  0.5060720000000  0.4640340000000 1.0
C      1  0.4539550000000  0.5373640000000  0.4515990000000 1.0
C      1  0.5324190000000  0.4832220000000  0.4782650000000 1.0
C      1  0.4915650000000  0.5112260000000  0.5425600000000 1.0
C      1  0.4244730000000  0.4789040000000  0.5371110000000 1.0
C      1  0.4775430000000  0.4467030000000  0.5407340000000 1.0
C      1  0.4709020000000  0.5669440000000  0.4475500000000 1.0
C      1  0.4853080000000  0.4549610000000  0.4297360000000 1.0
C      1  0.5024990000000  0.4568950000000  0.4764190000000 1.0
C      1  0.5055400000000  0.4284780000000  0.5341420000000 1.0
C      1  0.4906180000000  0.5463730000000  0.4661160000000 1.0
C      1  0.4851080000000  0.5869710000000  0.4866160000000 1.0
C      1  0.4747350000000  0.4744230000000  0.5602710000000 1.0
C      1  0.5257240000000  0.4236670000000  0.5143210000000 1.0
C      1  0.5268100000000  0.4376610000000  0.4624480000000 1.0
C      1  0.4794750000000  0.4879900000000  0.4241080000000 1.0
C      1  0.4466420000000  0.4607370000000  0.5468270000000 1.0
C      1  0.5191510000000  0.5102970000000  0.4940000000000 1.0
C      1  0.4807330000000  0.4963720000000  0.4571740000000 1.0
C      1  0.5363860000000  0.4738600000000  0.5097740000000 1.0
C      1  0.5281700000000  0.5611090000000  0.4855400000000 1.0
C      1  0.4463830000000  0.4740590000000  0.4766750000000 1.0
C      1  0.5462760000000  0.5133010000000  0.4559160000000 1.0
C      1  0.4378310000000  0.5403110000000  0.5098330000000 1.0
C      1  0.5454250000000  0.5519210000000  0.5048500000000 1.0
C      1  0.5685690000000  0.4800560000000  0.5049460000000 1.0
C      1  0.4686990000000  0.4646930000000  0.4543910000000 1.0
C      1  0.4607700000000  0.4908380000000  0.5022450000000 1.0
C      1  0.4794840000000  0.5834500000000  0.5259310000000 1.0
C      1  0.4512260000000  0.4603480000000  0.5138860000000 1.0
C      1  0.4964480000000  0.4529600000000  0.5752590000000 1.0
C      1  0.4333180000000  0.5015250000000  0.5179710000000 1.0
C      1  0.4770560000000  0.5358730000000  0.5091770000000 1.0
C      1  0.5521320000000  0.4350790000000  0.5217760000000 1.0
C      1  0.4347400000000  0.5054330000000  0.4326170000000 1.0
C      1  0.5064010000000  0.4383600000000  0.4360320000000 1.0
C      1  0.5331680000000  0.4665460000000  0.5428250000000 1.0
C      1  0.4313310000000  0.5179320000000  0.4886560000000 1.0
C      1  0.5673750000000  0.5110670000000  0.5403980000000 1.0
C      1  0.5152290000000  0.4740980000000  0.4516580000000 1.0
END
