TITL C-2847951-7423-183 -0.00394469941035576 125000 -1052.55097984633 0 0 192 (C1) n - 1
REM
REM in /home/bkarasulu/work/CARBON/AIRSS/Generating-Clusters/AIREBO/with-SteepDescent/Only-C1/SD-CG-opt/Try1-1.4A-POS3A/HFTN-CG
REM
REM
REM
REM
REM
REM ./C.cell (11c1c37f851c82e70ff6c80c92926a4b)
REM
REM compiler GCC version 9.2.1 20190827 (Red Hat 9.2.1-1)
REM options -cpp -mtune=generic -march=x86-64 -g -O0 -fpre-include=/usr/include/finclude/math-vector-fortran.h
REM seed 732218287 -2134165154 -1991933650 1700526572 1948981826 1092270053 907616206 -1743838384 1032165242 -623941657 460751539 75257140 189593093 1031649504 905298798 1821238116 290157099 2035090819 -599476729 -118389999 1465363357 118975389 1628555032 -480607131 405472908 682287512 -596705203 1390981537 9162100 1478916331 182461336 1952449652 -1443122781
REM
CELL 1.54180   50.00000   50.00000   50.00000   90.00000   90.00000   90.00000
LATT -1
SFAC C  
C      1  0.4979390000000  0.5145730000000  0.4380120000000 1.0
C      1  0.5709810000000  0.5824920000000  0.4731930000000 1.0
C      1  0.4710900000000  0.4266900000000  0.4455400000000 1.0
C      1  0.4846030000000  0.5401300000000  0.5997780000000 1.0
C      1  0.4702190000000  0.5098970000000  0.5474120000000 1.0
C      1  0.4407760000000  0.5086520000000  0.5936670000000 1.0
C      1  0.5322950000000  0.4081400000000  0.5671220000000 1.0
C      1  0.4338030000000  0.4646450000000  0.4840740000000 1.0
C      1  0.5359400000000  0.3870380000000  0.4944730000000 1.0
C      1  0.5633810000000  0.5830710000000  0.5281310000000 1.0
C      1  0.4756490000000  0.5949630000000  0.5215830000000 1.0
C      1  0.4824170000000  0.4623370000000  0.4770560000000 1.0
C      1  0.5729190000000  0.5305880000000  0.5530970000000 1.0
C      1  0.5577420000000  0.5370740000000  0.4968760000000 1.0
C      1  0.4889520000000  0.5002170000000  0.5729920000000 1.0
C      1  0.4464680000000  0.6039120000000  0.4715650000000 1.0
C      1  0.5681450000000  0.4674780000000  0.4648260000000 1.0
C      1  0.5404860000000  0.4011310000000  0.5207120000000 1.0
C      1  0.4456270000000  0.6041540000000  0.5110010000000 1.0
C      1  0.5401840000000  0.5664500000000  0.4959900000000 1.0
C      1  0.5939260000000  0.4849090000000  0.5559420000000 1.0
C      1  0.4500330000000  0.5341430000000  0.4852690000000 1.0
C      1  0.4869590000000  0.4372220000000  0.6018580000000 1.0
C      1  0.6066510000000  0.4547560000000  0.5002520000000 1.0
C      1  0.4389160000000  0.4276840000000  0.4481760000000 1.0
C      1  0.4160540000000  0.5626180000000  0.5677210000000 1.0
C      1  0.5169930000000  0.4545920000000  0.5552970000000 1.0
C      1  0.4609890000000  0.6254060000000  0.4808150000000 1.0
C      1  0.4988910000000  0.5262840000000  0.4091880000000 1.0
C      1  0.5834360000000  0.4618380000000  0.5209190000000 1.0
C      1  0.5552980000000  0.5045150000000  0.4555920000000 1.0
C      1  0.4846190000000  0.4553400000000  0.5447880000000 1.0
C      1  0.5475350000000  0.4708620000000  0.4048550000000 1.0
C      1  0.4960500000000  0.5658630000000  0.4107530000000 1.0
C      1  0.4619490000000  0.5764090000000  0.4800290000000 1.0
C      1  0.6019760000000  0.4255040000000  0.4893960000000 1.0
C      1  0.5129690000000  0.4124610000000  0.4942170000000 1.0
C      1  0.4566150000000  0.4760720000000  0.4615980000000 1.0
C      1  0.4273120000000  0.5156790000000  0.5702390000000 1.0
C      1  0.4403220000000  0.5764970000000  0.5390220000000 1.0
C      1  0.5212640000000  0.5038540000000  0.5986870000000 1.0
C      1  0.4346900000000  0.5609650000000  0.4443570000000 1.0
C      1  0.5018310000000  0.4477630000000  0.4065950000000 1.0
C      1  0.4145740000000  0.5187310000000  0.4328160000000 1.0
C      1  0.5067260000000  0.4015810000000  0.4490030000000 1.0
C      1  0.5394100000000  0.4996580000000  0.4155940000000 1.0
C      1  0.5021270000000  0.5626870000000  0.5800750000000 1.0
C      1  0.4990110000000  0.4285310000000  0.5304710000000 1.0
C      1  0.4110380000000  0.4959540000000  0.5591310000000 1.0
C      1  0.4459980000000  0.5314900000000  0.5479820000000 1.0
C      1  0.5035430000000  0.4796370000000  0.4174130000000 1.0
C      1  0.4626670000000  0.5837770000000  0.5577210000000 1.0
C      1  0.4818940000000  0.4145250000000  0.5662270000000 1.0
C      1  0.5139120000000  0.5965750000000  0.5322100000000 1.0
C      1  0.4313760000000  0.4329940000000  0.4758120000000 1.0
C      1  0.4745610000000  0.5014080000000  0.5001980000000 1.0
C      1  0.5029290000000  0.5618210000000  0.4659780000000 1.0
C      1  0.4449140000000  0.5074130000000  0.4676890000000 1.0
C      1  0.5534990000000  0.5860180000000  0.4509100000000 1.0
C      1  0.4558010000000  0.4364100000000  0.4167690000000 1.0
C      1  0.4785770000000  0.5122120000000  0.4682010000000 1.0
C      1  0.5086640000000  0.4274080000000  0.4318420000000 1.0
C      1  0.4013190000000  0.5356120000000  0.4763350000000 1.0
C      1  0.4004130000000  0.4543640000000  0.5123410000000 1.0
C      1  0.5751220000000  0.4358330000000  0.5317890000000 1.0
C      1  0.5191110000000  0.4692880000000  0.4445610000000 1.0
C      1  0.5126250000000  0.5040590000000  0.5313830000000 1.0
C      1  0.4188520000000  0.6003160000000  0.5277160000000 1.0
C      1  0.5572630000000  0.5957750000000  0.4982180000000 1.0
C      1  0.5523460000000  0.4347790000000  0.4891070000000 1.0
C      1  0.5249800000000  0.4491690000000  0.6015490000000 1.0
C      1  0.4248690000000  0.5861060000000  0.4908700000000 1.0
C      1  0.4418510000000  0.5527430000000  0.5711500000000 1.0
C      1  0.5168250000000  0.5359710000000  0.5955740000000 1.0
C      1  0.4700540000000  0.4541900000000  0.6072820000000 1.0
C      1  0.5098880000000  0.4300730000000  0.5777810000000 1.0
C      1  0.5008620000000  0.3958350000000  0.5213000000000 1.0
C      1  0.5710720000000  0.5412930000000  0.4331810000000 1.0
C      1  0.5895210000000  0.5369620000000  0.4570370000000 1.0
C      1  0.5341200000000  0.4444960000000  0.4171360000000 1.0
C      1  0.4275100000000  0.5060030000000  0.5160110000000 1.0
C      1  0.4735800000000  0.3994150000000  0.5398740000000 1.0
C      1  0.4662390000000  0.5628050000000  0.4491430000000 1.0
C      1  0.5784310000000  0.4201520000000  0.4781140000000 1.0
C      1  0.5483910000000  0.4872020000000  0.5131580000000 1.0
C      1  0.4267580000000  0.5437010000000  0.4237310000000 1.0
C      1  0.5571510000000  0.4869670000000  0.5975830000000 1.0
C      1  0.4660820000000  0.3920700000000  0.4850060000000 1.0
C      1  0.5245070000000  0.5009510000000  0.4434850000000 1.0
C      1  0.4705740000000  0.4611420000000  0.4071960000000 1.0
C      1  0.4735970000000  0.4834340000000  0.4330700000000 1.0
C      1  0.5746720000000  0.4675540000000  0.4251180000000 1.0
C      1  0.3988450000000  0.4394310000000  0.4822940000000 1.0
C      1  0.4810880000000  0.4921850000000  0.3951740000000 1.0
C      1  0.6214020000000  0.4534940000000  0.5299990000000 1.0
C      1  0.5171540000000  0.4811860000000  0.5736730000000 1.0
C      1  0.4920070000000  0.5851330000000  0.4862050000000 1.0
C      1  0.5254560000000  0.4297730000000  0.4690540000000 1.0
C      1  0.5392730000000  0.5235750000000  0.4728300000000 1.0
C      1  0.4548340000000  0.4631460000000  0.5295710000000 1.0
C      1  0.5117780000000  0.5045340000000  0.3872400000000 1.0
C      1  0.4484490000000  0.4857980000000  0.5063030000000 1.0
C      1  0.5485600000000  0.4309180000000  0.5188920000000 1.0
C      1  0.4050370000000  0.4999500000000  0.5319660000000 1.0
C      1  0.5361760000000  0.5188540000000  0.5158340000000 1.0
C      1  0.5510400000000  0.5825410000000  0.5602920000000 1.0
C      1  0.5748720000000  0.5002420000000  0.4335240000000 1.0
C      1  0.4829360000000  0.5426160000000  0.4827880000000 1.0
C      1  0.4733560000000  0.5128530000000  0.5963900000000 1.0
C      1  0.5073910000000  0.5910970000000  0.4501950000000 1.0
C      1  0.5314360000000  0.4742710000000  0.6103020000000 1.0
C      1  0.5359030000000  0.4619240000000  0.4726930000000 1.0
C      1  0.4687270000000  0.5315080000000  0.4419880000000 1.0
C      1  0.4118750000000  0.4184250000000  0.5062710000000 1.0
C      1  0.4571580000000  0.4240610000000  0.5220870000000 1.0
C      1  0.5456130000000  0.5587740000000  0.4366690000000 1.0
C      1  0.6203360000000  0.5246670000000  0.4623350000000 1.0
C      1  0.4417770000000  0.4077130000000  0.4960370000000 1.0
C      1  0.3906440000000  0.4891500000000  0.4639770000000 1.0
C      1  0.4813730000000  0.3758770000000  0.5023590000000 1.0
C      1  0.4621130000000  0.4614540000000  0.5687840000000 1.0
C      1  0.5506880000000  0.4517610000000  0.5589880000000 1.0
C      1  0.3837820000000  0.4593150000000  0.4613550000000 1.0
C      1  0.4886180000000  0.6011490000000  0.5524220000000 1.0
C      1  0.5360760000000  0.5267030000000  0.3960590000000 1.0
C      1  0.5314200000000  0.6029100000000  0.4579320000000 1.0
C      1  0.5592400000000  0.5528640000000  0.5728550000000 1.0
C      1  0.5245110000000  0.5519970000000  0.4128400000000 1.0
C      1  0.5350920000000  0.3977290000000  0.4637600000000 1.0
C      1  0.5470970000000  0.4960860000000  0.5673750000000 1.0
C      1  0.5661040000000  0.5204720000000  0.4101790000000 1.0
C      1  0.5673620000000  0.4943150000000  0.4857290000000 1.0
C      1  0.4760230000000  0.5466110000000  0.3996170000000 1.0
C      1  0.5379310000000  0.5647310000000  0.5357780000000 1.0
C      1  0.5566670000000  0.4213030000000  0.5640530000000 1.0
C      1  0.4550310000000  0.4310120000000  0.5553160000000 1.0
C      1  0.5330190000000  0.5537020000000  0.4659050000000 1.0
C      1  0.4274490000000  0.5570970000000  0.4743400000000 1.0
C      1  0.5093200000000  0.6063980000000  0.5021840000000 1.0
C      1  0.6063830000000  0.4561420000000  0.5530100000000 1.0
C      1  0.3992430000000  0.5151500000000  0.4569900000000 1.0
C      1  0.4356320000000  0.5366810000000  0.5159750000000 1.0
C      1  0.5360170000000  0.5274010000000  0.5698890000000 1.0
C      1  0.4232180000000  0.4692990000000  0.5641470000000 1.0
C      1  0.4799320000000  0.6205670000000  0.4996060000000 1.0
C      1  0.4923070000000  0.4509070000000  0.4490830000000 1.0
C      1  0.4597790000000  0.4815040000000  0.5958010000000 1.0
C      1  0.5812700000000  0.5537680000000  0.4802230000000 1.0
C      1  0.4862720000000  0.4139790000000  0.4731890000000 1.0
C      1  0.4690160000000  0.5645350000000  0.5825120000000 1.0
C      1  0.4776070000000  0.4360850000000  0.4975570000000 1.0
C      1  0.4308110000000  0.4972020000000  0.4238660000000 1.0
C      1  0.4601940000000  0.5101820000000  0.4169060000000 1.0
C      1  0.4050010000000  0.4783070000000  0.4891000000000 1.0
C      1  0.4490670000000  0.4870400000000  0.5509680000000 1.0
C      1  0.5032430000000  0.4532730000000  0.5099300000000 1.0
C      1  0.4052180000000  0.5483940000000  0.5062690000000 1.0
C      1  0.5848870000000  0.5696500000000  0.5100920000000 1.0
C      1  0.5866480000000  0.4330270000000  0.5599060000000 1.0
C      1  0.5173610000000  0.5855590000000  0.5641310000000 1.0
C      1  0.5804680000000  0.5150370000000  0.5093100000000 1.0
C      1  0.5993560000000  0.4812460000000  0.4441160000000 1.0
C      1  0.5084650000000  0.4799680000000  0.4815020000000 1.0
C      1  0.4090440000000  0.5631880000000  0.5367430000000 1.0
C      1  0.5153560000000  0.5089940000000  0.4834510000000 1.0
C      1  0.5073260000000  0.5318460000000  0.5033170000000 1.0
C      1  0.5336480000000  0.6114260000000  0.4856520000000 1.0
C      1  0.5567460000000  0.4444090000000  0.4425140000000 1.0
C      1  0.4840040000000  0.5621120000000  0.5176960000000 1.0
C      1  0.4480990000000  0.5388010000000  0.4030960000000 1.0
C      1  0.5632970000000  0.4787140000000  0.5425260000000 1.0
C      1  0.5855000000000  0.5115190000000  0.5373410000000 1.0
C      1  0.4987680000000  0.4859520000000  0.5130810000000 1.0
C      1  0.5315230000000  0.4822950000000  0.3806020000000 1.0
C      1  0.5144520000000  0.5691400000000  0.5156450000000 1.0
C      1  0.5090630000000  0.5152850000000  0.5549380000000 1.0
C      1  0.4785580000000  0.5286480000000  0.5204980000000 1.0
C      1  0.3880980000000  0.4831890000000  0.5178300000000 1.0
C      1  0.5437340000000  0.5370280000000  0.5396950000000 1.0
C      1  0.4285470000000  0.4423570000000  0.5237610000000 1.0
C      1  0.5601560000000  0.4164130000000  0.4545910000000 1.0
C      1  0.5254530000000  0.3930850000000  0.5446250000000 1.0
C      1  0.5313800000000  0.4596490000000  0.5248860000000 1.0
C      1  0.5943150000000  0.5049990000000  0.4679270000000 1.0
C      1  0.3978110000000  0.5813350000000  0.5102730000000 1.0
C      1  0.5894190000000  0.4907040000000  0.5875410000000 1.0
C      1  0.4342470000000  0.4727530000000  0.4362020000000 1.0
C      1  0.5703630000000  0.4635670000000  0.5798910000000 1.0
C      1  0.4523500000000  0.5648550000000  0.5105410000000 1.0
C      1  0.4869710000000  0.5787620000000  0.4335440000000 1.0
C      1  0.6007570000000  0.4678930000000  0.4744490000000 1.0
C      1  0.4268780000000  0.4429150000000  0.5661480000000 1.0
END
