TITL C-2847956-8218-284 -0.00163923700083394 125000 -392.306024110099 0 0 70 (C1) n - 1
REM
REM in /home/bkarasulu/work/CARBON/AIRSS/Generating-Clusters/AIREBO/with-SteepDescent/Only-C1/SD-CG-opt/Try1-1.4A-POS3A/HFTN-CG
REM
REM
REM
REM
REM
REM ./C.cell (11c1c37f851c82e70ff6c80c92926a4b)
REM
REM compiler GCC version 9.2.1 20190827 (Red Hat 9.2.1-1)
REM options -cpp -mtune=generic -march=x86-64 -g -O0 -fpre-include=/usr/include/finclude/math-vector-fortran.h
REM seed 1905518899 -1339392133 -144853726 1809753069 -1425998543 -47437929 1378046923 1272550049 -1717801821 1002752238 491917738 -1951494108 -1840161210 -513483135 602292232 -770992886 1752970364 115901696 958260069 -202174376 -183034561 1331920822 1107535457 -520122757 746062894 -1919366654 1563529337 1458370655 853480566 2118382628 924533904 -1633631176 434668577
REM
CELL 1.54180   50.00000   50.00000   50.00000   90.00000   90.00000   90.00000
LATT -1
SFAC C  
C      1  0.4417630000000  0.5142580000000  0.5046270000000 1.0
C      1  0.4408980000000  0.4550790000000  0.5181600000000 1.0
C      1  0.4728710000000  0.4959620000000  0.4853070000000 1.0
C      1  0.5675620000000  0.4972820000000  0.5806420000000 1.0
C      1  0.4889530000000  0.4270140000000  0.4967180000000 1.0
C      1  0.4831700000000  0.4667880000000  0.5811970000000 1.0
C      1  0.4796440000000  0.4540170000000  0.4186080000000 1.0
C      1  0.4755030000000  0.4620580000000  0.4829300000000 1.0
C      1  0.5067470000000  0.4572060000000  0.4287570000000 1.0
C      1  0.5504790000000  0.4719780000000  0.4895430000000 1.0
C      1  0.4886520000000  0.5323750000000  0.4899910000000 1.0
C      1  0.5592740000000  0.5345310000000  0.4417500000000 1.0
C      1  0.5533580000000  0.5019300000000  0.5351090000000 1.0
C      1  0.5081260000000  0.5483270000000  0.5128480000000 1.0
C      1  0.4595450000000  0.5356420000000  0.5072860000000 1.0
C      1  0.4365930000000  0.4863220000000  0.5234620000000 1.0
C      1  0.5350050000000  0.5373610000000  0.5286270000000 1.0
C      1  0.5517350000000  0.5657750000000  0.5722020000000 1.0
C      1  0.5388740000000  0.4487100000000  0.4683830000000 1.0
C      1  0.5236770000000  0.5018340000000  0.4479220000000 1.0
C      1  0.5583690000000  0.5245890000000  0.5102430000000 1.0
C      1  0.4610370000000  0.5383380000000  0.5550890000000 1.0
C      1  0.5298400000000  0.4016220000000  0.5295350000000 1.0
C      1  0.4700680000000  0.4492530000000  0.5124750000000 1.0
C      1  0.4845590000000  0.5649600000000  0.4811630000000 1.0
C      1  0.4916090000000  0.5054160000000  0.5105110000000 1.0
C      1  0.5480620000000  0.4977480000000  0.5619870000000 1.0
C      1  0.5593520000000  0.4908990000000  0.5057710000000 1.0
C      1  0.5210270000000  0.5109860000000  0.5132240000000 1.0
C      1  0.5324010000000  0.5090780000000  0.4162410000000 1.0
C      1  0.5046470000000  0.5567600000000  0.5456030000000 1.0
C      1  0.4640700000000  0.4345680000000  0.4664710000000 1.0
C      1  0.4429420000000  0.4930190000000  0.5521980000000 1.0
C      1  0.4939600000000  0.5368920000000  0.4480320000000 1.0
C      1  0.4879180000000  0.5687470000000  0.4505850000000 1.0
C      1  0.4586190000000  0.4643490000000  0.4349090000000 1.0
C      1  0.5152340000000  0.4432330000000  0.4524580000000 1.0
C      1  0.5290700000000  0.4488370000000  0.5009450000000 1.0
C      1  0.4425990000000  0.4835250000000  0.4901090000000 1.0
C      1  0.5271370000000  0.4356720000000  0.5288090000000 1.0
C      1  0.4664330000000  0.4793320000000  0.5620970000000 1.0
C      1  0.4545520000000  0.5333770000000  0.4423540000000 1.0
C      1  0.4749930000000  0.4424610000000  0.3946870000000 1.0
C      1  0.4948790000000  0.4305740000000  0.4674790000000 1.0
C      1  0.4987530000000  0.5087610000000  0.5599510000000 1.0
C      1  0.5461030000000  0.5440250000000  0.4653410000000 1.0
C      1  0.5077050000000  0.4149990000000  0.5118040000000 1.0
C      1  0.4888990000000  0.5348520000000  0.5614470000000 1.0
C      1  0.5121110000000  0.4950500000000  0.4778520000000 1.0
C      1  0.5189070000000  0.4810740000000  0.4232830000000 1.0
C      1  0.5350340000000  0.5731160000000  0.4595200000000 1.0
C      1  0.4529090000000  0.4723500000000  0.4596930000000 1.0
C      1  0.5863340000000  0.5585010000000  0.4896190000000 1.0
C      1  0.5071460000000  0.4673070000000  0.4833530000000 1.0
C      1  0.5167880000000  0.5280990000000  0.4713170000000 1.0
C      1  0.4806920000000  0.5725220000000  0.5285160000000 1.0
C      1  0.4616750000000  0.5570980000000  0.4359990000000 1.0
C      1  0.4408200000000  0.5196150000000  0.5612390000000 1.0
C      1  0.4843230000000  0.5820970000000  0.5022520000000 1.0
C      1  0.5654200000000  0.5428040000000  0.4886720000000 1.0
C      1  0.4221660000000  0.4372900000000  0.5215510000000 1.0
C      1  0.4844200000000  0.4926770000000  0.5365120000000 1.0
C      1  0.5362290000000  0.5570820000000  0.5539340000000 1.0
C      1  0.5207570000000  0.4927530000000  0.5695350000000 1.0
C      1  0.4878340000000  0.4616670000000  0.5334220000000 1.0
C      1  0.5152880000000  0.5824090000000  0.4470540000000 1.0
C      1  0.4723830000000  0.5157660000000  0.4614340000000 1.0
C      1  0.4600150000000  0.5522960000000  0.5299890000000 1.0
C      1  0.5109380000000  0.4654820000000  0.5723300000000 1.0
C      1  0.5105460000000  0.4516260000000  0.5473380000000 1.0
END
