TITL C-2848497-6229-376 -0.000344554935264005 125000 -635.830525527255 0 0 120 (C1) n - 1
REM
REM in /home/bkarasulu/work/CARBON/AIRSS/Generating-Clusters/AIREBO/with-SteepDescent/Only-C1/SD-CG-opt/Try1-1.4A-POS3A/HFTN-CG
REM
REM
REM
REM
REM
REM ./C.cell (11c1c37f851c82e70ff6c80c92926a4b)
REM
REM compiler GCC version 9.2.1 20190827 (Red Hat 9.2.1-1)
REM options -cpp -mtune=generic -march=x86-64 -g -O0 -fpre-include=/usr/include/finclude/math-vector-fortran.h
REM seed 2133566045 -1862388708 1485383150 69634801 315745940 -371883705 2013685031 416688970 -2057793914 1844655294 1275690359 1545490864 750327346 1615133468 313243274 -887779841 1274327513 -75265873 2031697736 -1709834183 -1294824147 -2050016028 702339917 169094149 1888693920 1836389677 -284971409 -725026244 -36239714 -1582663159 -1632852486 438924772 1411066303
REM
CELL 1.54180   50.00000   50.00000   50.00000   90.00000   90.00000   90.00000
LATT -1
SFAC C  
C      1  0.4373260000000  0.5742550000000  0.4782020000000 1.0
C      1  0.4898140000000  0.5211950000000  0.4213170000000 1.0
C      1  0.4985580000000  0.4835360000000  0.5434930000000 1.0
C      1  0.5062710000000  0.5729870000000  0.5045870000000 1.0
C      1  0.4875570000000  0.4443920000000  0.4181160000000 1.0
C      1  0.4066320000000  0.5000420000000  0.4688260000000 1.0
C      1  0.5288360000000  0.5135520000000  0.5264520000000 1.0
C      1  0.4666650000000  0.3966360000000  0.4919720000000 1.0
C      1  0.5402670000000  0.5022990000000  0.4209720000000 1.0
C      1  0.4897490000000  0.4673750000000  0.4973630000000 1.0
C      1  0.5696540000000  0.4959110000000  0.5497870000000 1.0
C      1  0.4840240000000  0.4986610000000  0.4937220000000 1.0
C      1  0.5206050000000  0.4542980000000  0.4911520000000 1.0
C      1  0.4439550000000  0.5704460000000  0.5070550000000 1.0
C      1  0.4581910000000  0.5008320000000  0.4736540000000 1.0
C      1  0.4602190000000  0.5042830000000  0.4421750000000 1.0
C      1  0.4719890000000  0.4704320000000  0.5739440000000 1.0
C      1  0.5135590000000  0.5191740000000  0.4534420000000 1.0
C      1  0.5760500000000  0.5072720000000  0.4576500000000 1.0
C      1  0.5053190000000  0.5231610000000  0.5038490000000 1.0
C      1  0.5273870000000  0.5632150000000  0.4415320000000 1.0
C      1  0.4134670000000  0.4580780000000  0.5214310000000 1.0
C      1  0.5270620000000  0.5489120000000  0.5083720000000 1.0
C      1  0.4643430000000  0.5162740000000  0.5256100000000 1.0
C      1  0.5340760000000  0.5641430000000  0.5771490000000 1.0
C      1  0.5394520000000  0.4882460000000  0.5771960000000 1.0
C      1  0.4918700000000  0.4447990000000  0.5200400000000 1.0
C      1  0.4271220000000  0.5313600000000  0.5472860000000 1.0
C      1  0.5848090000000  0.5552580000000  0.4645920000000 1.0
C      1  0.5261850000000  0.5782800000000  0.5302180000000 1.0
C      1  0.5312750000000  0.4872190000000  0.5441960000000 1.0
C      1  0.5177770000000  0.5728970000000  0.5573140000000 1.0
C      1  0.4930400000000  0.4460340000000  0.5765800000000 1.0
C      1  0.5694620000000  0.4169270000000  0.4849500000000 1.0
C      1  0.6140530000000  0.5053360000000  0.4890370000000 1.0
C      1  0.5490770000000  0.4871570000000  0.4917510000000 1.0
C      1  0.5091770000000  0.4289070000000  0.5520340000000 1.0
C      1  0.4544970000000  0.5202970000000  0.5641610000000 1.0
C      1  0.5176750000000  0.4793250000000  0.4100960000000 1.0
C      1  0.5856940000000  0.4579090000000  0.4706660000000 1.0
C      1  0.4770480000000  0.5408960000000  0.5793190000000 1.0
C      1  0.5571490000000  0.4659510000000  0.5383340000000 1.0
C      1  0.4887390000000  0.5646220000000  0.5590990000000 1.0
C      1  0.5330130000000  0.4629920000000  0.4621750000000 1.0
C      1  0.4799200000000  0.6006300000000  0.4927490000000 1.0
C      1  0.5088470000000  0.4216320000000  0.4713320000000 1.0
C      1  0.4818410000000  0.3941620000000  0.5114950000000 1.0
C      1  0.5835530000000  0.4304680000000  0.4654100000000 1.0
C      1  0.4718480000000  0.5853920000000  0.5527670000000 1.0
C      1  0.4488740000000  0.4010380000000  0.4456420000000 1.0
C      1  0.4734950000000  0.5483040000000  0.4744500000000 1.0
C      1  0.5063820000000  0.4873060000000  0.5850860000000 1.0
C      1  0.4337680000000  0.5023390000000  0.5308570000000 1.0
C      1  0.4813770000000  0.4620950000000  0.4582090000000 1.0
C      1  0.4734650000000  0.5758070000000  0.5143890000000 1.0
C      1  0.4597510000000  0.4686700000000  0.4836120000000 1.0
C      1  0.4029020000000  0.4879430000000  0.5247860000000 1.0
C      1  0.5088800000000  0.4623290000000  0.4382030000000 1.0
C      1  0.4595860000000  0.4149370000000  0.4675820000000 1.0
C      1  0.4330780000000  0.5138730000000  0.4834340000000 1.0
C      1  0.5635510000000  0.4779640000000  0.4627790000000 1.0
C      1  0.5925110000000  0.4638620000000  0.4984740000000 1.0
C      1  0.5063560000000  0.5276450000000  0.5850050000000 1.0
C      1  0.5006570000000  0.6210910000000  0.5012620000000 1.0
C      1  0.4064010000000  0.5343370000000  0.5204350000000 1.0
C      1  0.5025040000000  0.4886880000000  0.4600380000000 1.0
C      1  0.5160890000000  0.5191260000000  0.4107750000000 1.0
C      1  0.4345680000000  0.5424110000000  0.4804420000000 1.0
C      1  0.3828220000000  0.4588260000000  0.4549550000000 1.0
C      1  0.5617100000000  0.4606360000000  0.5089320000000 1.0
C      1  0.4682830000000  0.4881930000000  0.5450190000000 1.0
C      1  0.4371750000000  0.4779820000000  0.5073640000000 1.0
C      1  0.4853350000000  0.4310520000000  0.4613800000000 1.0
C      1  0.5024650000000  0.4138250000000  0.5222970000000 1.0
C      1  0.4765360000000  0.5013370000000  0.5818310000000 1.0
C      1  0.5676510000000  0.5356490000000  0.5467300000000 1.0
C      1  0.5228390000000  0.4586790000000  0.5747250000000 1.0
C      1  0.4962250000000  0.5139120000000  0.5571270000000 1.0
C      1  0.5592250000000  0.4820560000000  0.6010200000000 1.0
C      1  0.5492580000000  0.4713530000000  0.4326450000000 1.0
C      1  0.4065090000000  0.5099540000000  0.5016690000000 1.0
C      1  0.4699570000000  0.4968780000000  0.4115070000000 1.0
C      1  0.4764080000000  0.4417860000000  0.5472300000000 1.0
C      1  0.5226020000000  0.4229400000000  0.5002080000000 1.0
C      1  0.5602380000000  0.4201450000000  0.5651740000000 1.0
C      1  0.5408080000000  0.4412140000000  0.5548930000000 1.0
C      1  0.6140270000000  0.4811470000000  0.5022330000000 1.0
C      1  0.4382850000000  0.5355360000000  0.4307840000000 1.0
C      1  0.5332260000000  0.5372240000000  0.4419500000000 1.0
C      1  0.5787540000000  0.5429660000000  0.4942140000000 1.0
C      1  0.4858560000000  0.5378610000000  0.5406860000000 1.0
C      1  0.4289960000000  0.5563130000000  0.5242670000000 1.0
C      1  0.5181120000000  0.4628990000000  0.5244080000000 1.0
C      1  0.4020470000000  0.4706110000000  0.4682560000000 1.0
C      1  0.5825500000000  0.5437120000000  0.4424970000000 1.0
C      1  0.4554460000000  0.5275980000000  0.4100520000000 1.0
C      1  0.4907860000000  0.5743760000000  0.4768460000000 1.0
C      1  0.4439950000000  0.4395160000000  0.4759890000000 1.0
C      1  0.5735650000000  0.5675610000000  0.5140750000000 1.0
C      1  0.5555500000000  0.5319160000000  0.5158320000000 1.0
C      1  0.4549680000000  0.6134700000000  0.4809190000000 1.0
C      1  0.4213220000000  0.4578030000000  0.4853350000000 1.0
C      1  0.5597850000000  0.5228020000000  0.4350170000000 1.0
C      1  0.4468590000000  0.4562730000000  0.5559410000000 1.0
C      1  0.5523180000000  0.4316910000000  0.5002450000000 1.0
C      1  0.4822660000000  0.5277080000000  0.4531750000000 1.0
C      1  0.5917550000000  0.5184820000000  0.4783870000000 1.0
C      1  0.5507030000000  0.5177410000000  0.5678070000000 1.0
C      1  0.4391500000000  0.4889040000000  0.5616300000000 1.0
C      1  0.5551970000000  0.5820420000000  0.5220840000000 1.0
C      1  0.5649870000000  0.4993950000000  0.5178670000000 1.0
C      1  0.4777600000000  0.5426660000000  0.5080060000000 1.0
C      1  0.4266540000000  0.5107670000000  0.4443000000000 1.0
C      1  0.4239460000000  0.4436560000000  0.5441260000000 1.0
C      1  0.5327260000000  0.5368250000000  0.5835270000000 1.0
C      1  0.5083070000000  0.5790460000000  0.4522120000000 1.0
C      1  0.5474640000000  0.4654840000000  0.4013150000000 1.0
C      1  0.4478920000000  0.5540080000000  0.4527980000000 1.0
C      1  0.4864810000000  0.4729050000000  0.4068830000000 1.0
C      1  0.5233270000000  0.5048550000000  0.4815540000000 1.0
END
