TITL C-2848499-1157-177 0.000206469534103797 125000 -136.883166645009 0 0 25 (C1) n - 1
REM
REM in /home/bkarasulu/work/CARBON/AIRSS/Generating-Clusters/AIREBO/with-SteepDescent/Only-C1/SD-CG-opt/Try1-1.4A-POS3A/HFTN-CG
REM
REM
REM
REM
REM
REM ./C.cell (11c1c37f851c82e70ff6c80c92926a4b)
REM
REM compiler GCC version 9.2.1 20190827 (Red Hat 9.2.1-1)
REM options -cpp -mtune=generic -march=x86-64 -g -O0 -fpre-include=/usr/include/finclude/math-vector-fortran.h
REM seed -1414546997 -1481660479 -1173216669 1642563933 2021533622 -2053223771 -1721790262 46425401 -69758686 295139928 -461790706 -1964716999 1334293833 582597779 -981913551 -1502208547 2092014694 2058671184 2118723626 1829228052 647113272 -693349708 -1384540602 -1126718288 1779400367 -886367939 -1985742714 -626101912 -200809759 -1112602542 2047788918 1797870358 -1260980245
REM
CELL 1.54180   50.00000   50.00000   50.00000   90.00000   90.00000   90.00000
LATT -1
SFAC C  
C      1  0.5309490000000  0.4851770000000  0.5025100000000 1.0
C      1  0.4978020000000  0.4506240000000  0.4620890000000 1.0
C      1  0.4566210000000  0.5327760000000  0.5449240000000 1.0
C      1  0.5415020000000  0.4960560000000  0.4783540000000 1.0
C      1  0.4737230000000  0.5723190000000  0.4774850000000 1.0
C      1  0.5024310000000  0.4302910000000  0.5058530000000 1.0
C      1  0.5407180000000  0.5239200000000  0.4761040000000 1.0
C      1  0.4914240000000  0.4526570000000  0.4919560000000 1.0
C      1  0.5004290000000  0.5572610000000  0.4831100000000 1.0
C      1  0.4595210000000  0.5525900000000  0.5260950000000 1.0
C      1  0.5413830000000  0.4783320000000  0.4565870000000 1.0
C      1  0.5233530000000  0.4580270000000  0.4543720000000 1.0
C      1  0.4864600000000  0.4998440000000  0.5158450000000 1.0
C      1  0.4629720000000  0.4537090000000  0.4951980000000 1.0
C      1  0.4793020000000  0.4393680000000  0.4452870000000 1.0
C      1  0.4710060000000  0.5161760000000  0.4950490000000 1.0
C      1  0.5023120000000  0.5069400000000  0.5456730000000 1.0
C      1  0.5433170000000  0.5163040000000  0.5680470000000 1.0
C      1  0.5292860000000  0.5052570000000  0.5478750000000 1.0
C      1  0.5420550000000  0.4901420000000  0.5278220000000 1.0
C      1  0.4536570000000  0.5052920000000  0.4787930000000 1.0
C      1  0.4729550000000  0.5459440000000  0.4990820000000 1.0
C      1  0.5034080000000  0.4785350000000  0.5028550000000 1.0
C      1  0.4715410000000  0.5092970000000  0.5442300000000 1.0
C      1  0.5218740000000  0.5431610000000  0.4748030000000 1.0
END
