TITL C-2848508-1660-732 -0.00220323290845972 125000 -997.085960204046 0 0 189 (C1) n - 1
REM
REM in /home/bkarasulu/work/CARBON/AIRSS/Generating-Clusters/AIREBO/with-SteepDescent/Only-C1/SD-CG-opt/Try1-1.4A-POS3A/HFTN-CG
REM
REM
REM
REM
REM
REM ./C.cell (11c1c37f851c82e70ff6c80c92926a4b)
REM
REM compiler GCC version 9.2.1 20190827 (Red Hat 9.2.1-1)
REM options -cpp -mtune=generic -march=x86-64 -g -O0 -fpre-include=/usr/include/finclude/math-vector-fortran.h
REM seed -1942244679 1133789888 622951167 938908901 -461334558 -619648601 -170241132 -1865731932 475574437 606975300 -919406909 -1214198809 -875902796 -530652905 -1862389472 -186096680 753687015 -477472856 430506517 1756323112 -505795203 1862939738 -1298018005 -193144547 -1539801351 -1871076406 1077218311 646199152 -1866624046 -2036911154 930634139 -960574898 1971828163
REM
CELL 1.54180   50.00000   50.00000   50.00000   90.00000   90.00000   90.00000
LATT -1
SFAC C  
C      1  0.4897020000000  0.5021600000000  0.5538360000000 1.0
C      1  0.4108300000000  0.4686860000000  0.4453280000000 1.0
C      1  0.5214740000000  0.5873430000000  0.4687010000000 1.0
C      1  0.4533690000000  0.5307790000000  0.4501080000000 1.0
C      1  0.4508060000000  0.5592340000000  0.4223780000000 1.0
C      1  0.4535270000000  0.5924420000000  0.5240300000000 1.0
C      1  0.4994210000000  0.4311500000000  0.4442380000000 1.0
C      1  0.4152510000000  0.4952120000000  0.4330290000000 1.0
C      1  0.4529840000000  0.4062810000000  0.4522510000000 1.0
C      1  0.4595350000000  0.5016530000000  0.4766120000000 1.0
C      1  0.5149960000000  0.5191070000000  0.5689810000000 1.0
C      1  0.5328890000000  0.4089860000000  0.5756110000000 1.0
C      1  0.5749920000000  0.5483930000000  0.4445820000000 1.0
C      1  0.5918460000000  0.4734220000000  0.4911200000000 1.0
C      1  0.4350850000000  0.4899400000000  0.4082950000000 1.0
C      1  0.4743230000000  0.5951460000000  0.4902280000000 1.0
C      1  0.5000020000000  0.5991820000000  0.4515580000000 1.0
C      1  0.4485730000000  0.4751290000000  0.3812260000000 1.0
C      1  0.4652500000000  0.4838230000000  0.6141580000000 1.0
C      1  0.4247610000000  0.5757030000000  0.5318220000000 1.0
C      1  0.4185480000000  0.5323650000000  0.5029700000000 1.0
C      1  0.4483820000000  0.5629820000000  0.5120370000000 1.0
C      1  0.4863180000000  0.4725970000000  0.4289250000000 1.0
C      1  0.4956780000000  0.5792140000000  0.5349230000000 1.0
C      1  0.4247360000000  0.4695120000000  0.5911130000000 1.0
C      1  0.4157170000000  0.5208790000000  0.4430850000000 1.0
C      1  0.4865510000000  0.4349150000000  0.5635240000000 1.0
C      1  0.5542150000000  0.5352270000000  0.4290180000000 1.0
C      1  0.5336010000000  0.4892140000000  0.5432230000000 1.0
C      1  0.4804150000000  0.4562980000000  0.4569850000000 1.0
C      1  0.5749110000000  0.4117640000000  0.4667000000000 1.0
C      1  0.4854750000000  0.5020890000000  0.4556200000000 1.0
C      1  0.5253440000000  0.4929330000000  0.4787760000000 1.0
C      1  0.5784960000000  0.4673780000000  0.5590030000000 1.0
C      1  0.4184930000000  0.5708680000000  0.4778330000000 1.0
C      1  0.4750080000000  0.4513720000000  0.4093290000000 1.0
C      1  0.4349500000000  0.4160280000000  0.4986180000000 1.0
C      1  0.5286560000000  0.4187980000000  0.4320240000000 1.0
C      1  0.5209810000000  0.4571150000000  0.4400240000000 1.0
C      1  0.5185090000000  0.4899680000000  0.6149240000000 1.0
C      1  0.4297110000000  0.4060360000000  0.4736590000000 1.0
C      1  0.5177000000000  0.5183650000000  0.4213180000000 1.0
C      1  0.5040360000000  0.4545230000000  0.4994250000000 1.0
C      1  0.5308690000000  0.4637690000000  0.4667300000000 1.0
C      1  0.5016800000000  0.5484250000000  0.6013040000000 1.0
C      1  0.5657100000000  0.5484770000000  0.4997270000000 1.0
C      1  0.6105310000000  0.5173160000000  0.5430460000000 1.0
C      1  0.5350930000000  0.5446250000000  0.5967010000000 1.0
C      1  0.5759910000000  0.4998840000000  0.4293920000000 1.0
C      1  0.5290180000000  0.4934780000000  0.5846060000000 1.0
C      1  0.5021620000000  0.4259790000000  0.5150740000000 1.0
C      1  0.5151820000000  0.6093750000000  0.5182640000000 1.0
C      1  0.5208980000000  0.5968980000000  0.5493920000000 1.0
C      1  0.4825810000000  0.5004520000000  0.5090130000000 1.0
C      1  0.4728940000000  0.6006770000000  0.5482040000000 1.0
C      1  0.5666990000000  0.4660950000000  0.5908790000000 1.0
C      1  0.4672190000000  0.4736270000000  0.5340900000000 1.0
C      1  0.4787910000000  0.5111660000000  0.4235280000000 1.0
C      1  0.4805450000000  0.4106680000000  0.4637400000000 1.0
C      1  0.5274940000000  0.4170660000000  0.4937190000000 1.0
C      1  0.4098070000000  0.4504040000000  0.4218410000000 1.0
C      1  0.5264920000000  0.5133950000000  0.5122980000000 1.0
C      1  0.5471470000000  0.4972420000000  0.4467400000000 1.0
C      1  0.5795650000000  0.5687920000000  0.5188260000000 1.0
C      1  0.4935800000000  0.5324860000000  0.3931430000000 1.0
C      1  0.4090430000000  0.5680670000000  0.4511270000000 1.0
C      1  0.5861360000000  0.4466930000000  0.5333450000000 1.0
C      1  0.4881810000000  0.5219190000000  0.5897150000000 1.0
C      1  0.4947210000000  0.4985860000000  0.3962170000000 1.0
C      1  0.5213480000000  0.4695710000000  0.5653790000000 1.0
C      1  0.5297560000000  0.6077790000000  0.4917400000000 1.0
C      1  0.4752940000000  0.4660580000000  0.3837530000000 1.0
C      1  0.3979230000000  0.4254350000000  0.5382840000000 1.0
C      1  0.5035640000000  0.5143360000000  0.4890500000000 1.0
C      1  0.4749730000000  0.3843500000000  0.6206820000000 1.0
C      1  0.4643250000000  0.5933590000000  0.5750620000000 1.0
C      1  0.6056150000000  0.4761880000000  0.4626310000000 1.0
C      1  0.5970020000000  0.4482960000000  0.5061810000000 1.0
C      1  0.4877790000000  0.4994330000000  0.6101990000000 1.0
C      1  0.5629110000000  0.5653360000000  0.4700650000000 1.0
C      1  0.5422240000000  0.5180280000000  0.5486100000000 1.0
C      1  0.4043270000000  0.4573730000000  0.5002460000000 1.0
C      1  0.5285690000000  0.5013580000000  0.3943660000000 1.0
C      1  0.4495580000000  0.4595960000000  0.4489850000000 1.0
C      1  0.6094590000000  0.5242850000000  0.4947000000000 1.0
C      1  0.5189450000000  0.4803750000000  0.5158030000000 1.0
C      1  0.5548290000000  0.5090440000000  0.4840360000000 1.0
C      1  0.5892010000000  0.4951800000000  0.5535280000000 1.0
C      1  0.5291840000000  0.5649510000000  0.4196750000000 1.0
C      1  0.5240040000000  0.3868330000000  0.5041360000000 1.0
C      1  0.4887170000000  0.4685630000000  0.5590510000000 1.0
C      1  0.5078660000000  0.4671720000000  0.3936970000000 1.0
C      1  0.4695060000000  0.5403260000000  0.4772110000000 1.0
C      1  0.4211150000000  0.5484730000000  0.4331890000000 1.0
C      1  0.4783530000000  0.4373640000000  0.4850320000000 1.0
C      1  0.5600680000000  0.4480860000000  0.4735960000000 1.0
C      1  0.4734630000000  0.4303920000000  0.5938070000000 1.0
C      1  0.4989460000000  0.5222120000000  0.5279800000000 1.0
C      1  0.4492860000000  0.5659580000000  0.4792260000000 1.0
C      1  0.5434110000000  0.4217990000000  0.5488000000000 1.0
C      1  0.4747490000000  0.5459340000000  0.5250960000000 1.0
C      1  0.4624010000000  0.4657150000000  0.5786700000000 1.0
C      1  0.5127930000000  0.5614420000000  0.4867550000000 1.0
C      1  0.4361280000000  0.4632640000000  0.5596670000000 1.0
C      1  0.5732820000000  0.4937040000000  0.5079470000000 1.0
C      1  0.4455280000000  0.4476400000000  0.5308970000000 1.0
C      1  0.4310750000000  0.5199980000000  0.4734080000000 1.0
C      1  0.5237660000000  0.5752550000000  0.5161630000000 1.0
C      1  0.5845220000000  0.5256530000000  0.4850010000000 1.0
C      1  0.4540480000000  0.5611480000000  0.5786050000000 1.0
C      1  0.5689930000000  0.5805390000000  0.5464960000000 1.0
C      1  0.4053460000000  0.5042400000000  0.4890960000000 1.0
C      1  0.4785890000000  0.5775120000000  0.4131160000000 1.0
C      1  0.4949760000000  0.4777850000000  0.4766320000000 1.0
C      1  0.4650580000000  0.5687360000000  0.4496550000000 1.0
C      1  0.4808780000000  0.4031080000000  0.6025150000000 1.0
C      1  0.5977510000000  0.4797090000000  0.4393590000000 1.0
C      1  0.5428550000000  0.4632880000000  0.4986850000000 1.0
C      1  0.4163300000000  0.5301140000000  0.5547440000000 1.0
C      1  0.5421380000000  0.4204060000000  0.4632040000000 1.0
C      1  0.5427150000000  0.5728930000000  0.5596310000000 1.0
C      1  0.4751560000000  0.5944610000000  0.4626980000000 1.0
C      1  0.5127500000000  0.4361200000000  0.4069910000000 1.0
C      1  0.5592940000000  0.4956340000000  0.5881780000000 1.0
C      1  0.5339030000000  0.5933930000000  0.4311790000000 1.0
C      1  0.5341860000000  0.5442080000000  0.5067950000000 1.0
C      1  0.6223490000000  0.5236870000000  0.5189080000000 1.0
C      1  0.5433770000000  0.4669750000000  0.6107810000000 1.0
C      1  0.5754710000000  0.4467410000000  0.4433080000000 1.0
C      1  0.4843170000000  0.4242960000000  0.4145570000000 1.0
C      1  0.5203800000000  0.5447820000000  0.4039640000000 1.0
C      1  0.5698520000000  0.5200730000000  0.5896200000000 1.0
C      1  0.5009440000000  0.5928140000000  0.4226610000000 1.0
C      1  0.4859410000000  0.5562250000000  0.5556210000000 1.0
C      1  0.5151450000000  0.5447030000000  0.5465580000000 1.0
C      1  0.5804560000000  0.5281480000000  0.5519800000000 1.0
C      1  0.5298770000000  0.5262390000000  0.4510050000000 1.0
C      1  0.4864210000000  0.5696120000000  0.5036450000000 1.0
C      1  0.4312970000000  0.4310500000000  0.4517820000000 1.0
C      1  0.4624510000000  0.5205180000000  0.5440560000000 1.0
C      1  0.4341500000000  0.5194840000000  0.5303000000000 1.0
C      1  0.5891800000000  0.4249030000000  0.4893430000000 1.0
C      1  0.3958970000000  0.5035060000000  0.5492140000000 1.0
C      1  0.5074700000000  0.3880730000000  0.5529380000000 1.0
C      1  0.4244220000000  0.4951850000000  0.5604860000000 1.0
C      1  0.4231590000000  0.4610420000000  0.3982640000000 1.0
C      1  0.4248380000000  0.4562250000000  0.4737200000000 1.0
C      1  0.5565630000000  0.5926150000000  0.4506240000000 1.0
C      1  0.5658600000000  0.4271400000000  0.5287880000000 1.0
C      1  0.5132580000000  0.4902480000000  0.4399140000000 1.0
C      1  0.4914000000000  0.3831870000000  0.4719420000000 1.0
C      1  0.5199180000000  0.5226730000000  0.6146420000000 1.0
C      1  0.4387380000000  0.5104610000000  0.5833500000000 1.0
C      1  0.5094330000000  0.3713820000000  0.4881920000000 1.0
C      1  0.4130760000000  0.4418560000000  0.5225320000000 1.0
C      1  0.4620770000000  0.5242960000000  0.5020710000000 1.0
C      1  0.4820380000000  0.5410560000000  0.4394360000000 1.0
C      1  0.5586690000000  0.4887510000000  0.4039090000000 1.0
C      1  0.5364330000000  0.4664970000000  0.4121670000000 1.0
C      1  0.4834320000000  0.5724180000000  0.5918080000000 1.0
C      1  0.5917610000000  0.5260730000000  0.4392050000000 1.0
C      1  0.5537490000000  0.5218980000000  0.4045270000000 1.0
C      1  0.4725900000000  0.5498250000000  0.3980270000000 1.0
C      1  0.5480610000000  0.4535330000000  0.5527680000000 1.0
C      1  0.4564290000000  0.4797450000000  0.5024310000000 1.0
C      1  0.5976230000000  0.5899900000000  0.5353440000000 1.0
C      1  0.5566360000000  0.4726770000000  0.5260010000000 1.0
C      1  0.5221670000000  0.4048790000000  0.5312450000000 1.0
C      1  0.5665680000000  0.4812490000000  0.4696630000000 1.0
C      1  0.5643390000000  0.5231940000000  0.5224510000000 1.0
C      1  0.4395250000000  0.4915890000000  0.6046800000000 1.0
C      1  0.5665780000000  0.4532840000000  0.4205890000000 1.0
C      1  0.5545990000000  0.5423370000000  0.5689340000000 1.0
C      1  0.4813000000000  0.6120970000000  0.5173010000000 1.0
C      1  0.4094700000000  0.5616180000000  0.5048300000000 1.0
C      1  0.3822730000000  0.4910090000000  0.5299460000000 1.0
C      1  0.3927660000000  0.4818130000000  0.5055800000000 1.0
C      1  0.5574990000000  0.4262620000000  0.4995550000000 1.0
C      1  0.5106900000000  0.5733210000000  0.5714810000000 1.0
C      1  0.4483130000000  0.4472340000000  0.4966640000000 1.0
C      1  0.5017230000000  0.5368550000000  0.4668920000000 1.0
C      1  0.5340250000000  0.5599430000000  0.4529570000000 1.0
C      1  0.4749080000000  0.4307210000000  0.5342480000000 1.0
C      1  0.4300510000000  0.4953330000000  0.5101820000000 1.0
C      1  0.4261590000000  0.5584330000000  0.5593070000000 1.0
C      1  0.4690390000000  0.4551370000000  0.6072130000000 1.0
C      1  0.4613190000000  0.5293900000000  0.5753830000000 1.0
C      1  0.4559700000000  0.4873820000000  0.4314450000000 1.0
C      1  0.5007720000000  0.4071350000000  0.5773760000000 1.0
END
