TITL C-2847947-6848-210 0.00358513925986594 125000 -827.319195793656 0 0 153 (C1) n - 1
REM
REM in /home/bkarasulu/work/CARBON/AIRSS/Generating-Clusters/AIREBO/with-SteepDescent/Only-C1/SD-CG-opt/Try1-1.4A-POS3A/HFTN-CG
REM
REM
REM
REM
REM
REM ./C.cell (11c1c37f851c82e70ff6c80c92926a4b)
REM
REM compiler GCC version 9.2.1 20190827 (Red Hat 9.2.1-1)
REM options -cpp -mtune=generic -march=x86-64 -g -O0 -fpre-include=/usr/include/finclude/math-vector-fortran.h
REM seed -194502939 1191663579 -1156599392 185154855 -1970348944 -281712407 -834606709 -1128211453 477728852 1313498472 -452934249 -1070180382 -1533745844 1443913597 1798732100 70396937 836514266 -1134532411 -1602229378 829590601 -1078540350 -1353167573 -604293046 -185034669 223426135 6835927 -1494730431 -942156600 1456440961 -2006097626 1683198961 1163914608 -645771586
REM
CELL 1.54180   50.00000   50.00000   50.00000   90.00000   90.00000   90.00000
LATT -1
SFAC C  
C      1  0.5865670000000  0.5366920000000  0.4954180000000 1.0
C      1  0.4738100000000  0.5981850000000  0.4903260000000 1.0
C      1  0.5386980000000  0.5534400000000  0.5735000000000 1.0
C      1  0.4522020000000  0.4685780000000  0.5730800000000 1.0
C      1  0.5688960000000  0.5219760000000  0.4709390000000 1.0
C      1  0.5664630000000  0.5779320000000  0.5073790000000 1.0
C      1  0.4575500000000  0.4978020000000  0.5345360000000 1.0
C      1  0.4953940000000  0.4232000000000  0.4174950000000 1.0
C      1  0.4066000000000  0.4905160000000  0.4482520000000 1.0
C      1  0.4692920000000  0.4181970000000  0.4366900000000 1.0
C      1  0.4554870000000  0.5772430000000  0.4539690000000 1.0
C      1  0.4850020000000  0.5370000000000  0.4108290000000 1.0
C      1  0.5001640000000  0.5249930000000  0.5958740000000 1.0
C      1  0.5758720000000  0.5075140000000  0.5200920000000 1.0
C      1  0.4582530000000  0.5987090000000  0.4690050000000 1.0
C      1  0.5175670000000  0.4559960000000  0.4515840000000 1.0
C      1  0.5955410000000  0.4916420000000  0.5742240000000 1.0
C      1  0.4479510000000  0.5581450000000  0.5138270000000 1.0
C      1  0.4589070000000  0.5521690000000  0.5736720000000 1.0
C      1  0.4237230000000  0.5169320000000  0.4383130000000 1.0
C      1  0.5845460000000  0.4409630000000  0.4929670000000 1.0
C      1  0.4890590000000  0.4571940000000  0.5371330000000 1.0
C      1  0.5217620000000  0.4198990000000  0.5502270000000 1.0
C      1  0.5187290000000  0.4678880000000  0.4096480000000 1.0
C      1  0.4728540000000  0.5111480000000  0.5072610000000 1.0
C      1  0.4728670000000  0.4418220000000  0.5766960000000 1.0
C      1  0.4768900000000  0.4068410000000  0.4678780000000 1.0
C      1  0.4452630000000  0.4177440000000  0.5260490000000 1.0
C      1  0.5150590000000  0.4305840000000  0.5186490000000 1.0
C      1  0.4873250000000  0.5039370000000  0.5440980000000 1.0
C      1  0.5484870000000  0.5837970000000  0.5610640000000 1.0
C      1  0.4903650000000  0.4527030000000  0.4329220000000 1.0
C      1  0.4790210000000  0.4589120000000  0.4612400000000 1.0
C      1  0.5013150000000  0.4377200000000  0.4744250000000 1.0
C      1  0.4967760000000  0.4920820000000  0.4429890000000 1.0
C      1  0.5279820000000  0.5256500000000  0.5884020000000 1.0
C      1  0.4153140000000  0.4672590000000  0.4362430000000 1.0
C      1  0.5558240000000  0.5472670000000  0.4434810000000 1.0
C      1  0.5045110000000  0.5997390000000  0.4998280000000 1.0
C      1  0.4143420000000  0.4412870000000  0.4902010000000 1.0
C      1  0.4816100000000  0.5019820000000  0.4142070000000 1.0
C      1  0.4719370000000  0.5813200000000  0.4177930000000 1.0
C      1  0.5580470000000  0.4807880000000  0.5433760000000 1.0
C      1  0.4309910000000  0.5424950000000  0.5358170000000 1.0
C      1  0.5035200000000  0.4270580000000  0.5780460000000 1.0
C      1  0.5719920000000  0.4758190000000  0.5886790000000 1.0
C      1  0.5534810000000  0.4412600000000  0.4438010000000 1.0
C      1  0.5325880000000  0.4964150000000  0.5480650000000 1.0
C      1  0.5220990000000  0.5970580000000  0.5449230000000 1.0
C      1  0.4574010000000  0.5242000000000  0.5741770000000 1.0
C      1  0.4892220000000  0.4365710000000  0.5029120000000 1.0
C      1  0.5578940000000  0.5238780000000  0.4255690000000 1.0
C      1  0.4586660000000  0.5524930000000  0.4300220000000 1.0
C      1  0.4430070000000  0.4094440000000  0.4736810000000 1.0
C      1  0.5559600000000  0.4558800000000  0.5767540000000 1.0
C      1  0.4606910000000  0.4540080000000  0.5092000000000 1.0
C      1  0.4251760000000  0.4162790000000  0.5001030000000 1.0
C      1  0.5573050000000  0.5372870000000  0.5420600000000 1.0
C      1  0.5496160000000  0.5843010000000  0.4835850000000 1.0
C      1  0.4537790000000  0.4383230000000  0.4593010000000 1.0
C      1  0.4636360000000  0.4862160000000  0.4480460000000 1.0
C      1  0.5035990000000  0.6088170000000  0.5286240000000 1.0
C      1  0.4774240000000  0.4725060000000  0.4890610000000 1.0
C      1  0.5885500000000  0.4892830000000  0.5458540000000 1.0
C      1  0.5035970000000  0.5213490000000  0.4778690000000 1.0
C      1  0.5065130000000  0.4552870000000  0.5604410000000 1.0
C      1  0.5292680000000  0.5670810000000  0.4505060000000 1.0
C      1  0.5565150000000  0.4506690000000  0.4763450000000 1.0
C      1  0.5642500000000  0.5310460000000  0.5731810000000 1.0
C      1  0.4505700000000  0.4893490000000  0.4936530000000 1.0
C      1  0.5217480000000  0.5750190000000  0.4190270000000 1.0
C      1  0.5380310000000  0.4232780000000  0.4692940000000 1.0
C      1  0.5350990000000  0.5518370000000  0.5047210000000 1.0
C      1  0.4036210000000  0.4716660000000  0.5215680000000 1.0
C      1  0.4400210000000  0.4584010000000  0.4830580000000 1.0
C      1  0.6057380000000  0.4400510000000  0.5306490000000 1.0
C      1  0.5379750000000  0.5151990000000  0.4589410000000 1.0
C      1  0.4787300000000  0.5574670000000  0.5393390000000 1.0
C      1  0.5939920000000  0.4711530000000  0.4799470000000 1.0
C      1  0.5089020000000  0.4832260000000  0.5279240000000 1.0
C      1  0.5304840000000  0.4571360000000  0.5248260000000 1.0
C      1  0.5088520000000  0.4057730000000  0.4696000000000 1.0
C      1  0.5244690000000  0.4996790000000  0.5767310000000 1.0
C      1  0.4276720000000  0.5467060000000  0.4427720000000 1.0
C      1  0.4599020000000  0.5271150000000  0.4801630000000 1.0
C      1  0.4547240000000  0.5228160000000  0.4138620000000 1.0
C      1  0.5168120000000  0.4827900000000  0.4688460000000 1.0
C      1  0.4892960000000  0.5968700000000  0.4265910000000 1.0
C      1  0.4567100000000  0.4667580000000  0.5395900000000 1.0
C      1  0.5733920000000  0.5517300000000  0.5157930000000 1.0
C      1  0.5749000000000  0.5105590000000  0.5878530000000 1.0
C      1  0.4124400000000  0.5018400000000  0.5604360000000 1.0
C      1  0.4051600000000  0.4966210000000  0.5090420000000 1.0
C      1  0.5259670000000  0.5973210000000  0.4763520000000 1.0
C      1  0.4293940000000  0.4834410000000  0.5808810000000 1.0
C      1  0.5266560000000  0.5253820000000  0.5333060000000 1.0
C      1  0.4404080000000  0.5495320000000  0.4880640000000 1.0
C      1  0.5125040000000  0.5446640000000  0.4175980000000 1.0
C      1  0.5307320000000  0.5203440000000  0.4090890000000 1.0
C      1  0.4836370000000  0.5057300000000  0.5776270000000 1.0
C      1  0.4880290000000  0.5641190000000  0.5713810000000 1.0
C      1  0.4405500000000  0.5033210000000  0.4647960000000 1.0
C      1  0.5207410000000  0.3830180000000  0.4880550000000 1.0
C      1  0.5125600000000  0.5312500000000  0.4460380000000 1.0
C      1  0.4028710000000  0.4733310000000  0.5528320000000 1.0
C      1  0.3983100000000  0.5332060000000  0.4765230000000 1.0
C      1  0.5037000000000  0.5541290000000  0.4688190000000 1.0
C      1  0.4193810000000  0.5513140000000  0.4695880000000 1.0
C      1  0.4426820000000  0.5652470000000  0.5545490000000 1.0
C      1  0.5002100000000  0.4933250000000  0.4965920000000 1.0
C      1  0.5260230000000  0.4379440000000  0.4240190000000 1.0
C      1  0.6053390000000  0.4676120000000  0.5290720000000 1.0
C      1  0.6055020000000  0.5178580000000  0.5070000000000 1.0
C      1  0.4723710000000  0.5485560000000  0.4609010000000 1.0
C      1  0.5478190000000  0.4146690000000  0.5294370000000 1.0
C      1  0.4656050000000  0.4728500000000  0.4095130000000 1.0
C      1  0.4740870000000  0.4286740000000  0.5389710000000 1.0
C      1  0.4277510000000  0.5129280000000  0.4061480000000 1.0
C      1  0.4649470000000  0.4159300000000  0.4983940000000 1.0
C      1  0.5476740000000  0.5200270000000  0.5078010000000 1.0
C      1  0.5168310000000  0.5977290000000  0.4443260000000 1.0
C      1  0.5548580000000  0.4633580000000  0.5075650000000 1.0
C      1  0.5291390000000  0.4974470000000  0.4339170000000 1.0
C      1  0.5341860000000  0.4093120000000  0.5001000000000 1.0
C      1  0.4464640000000  0.4324150000000  0.5572260000000 1.0
C      1  0.4767830000000  0.6092940000000  0.5388790000000 1.0
C      1  0.5400900000000  0.5630150000000  0.5348020000000 1.0
C      1  0.4807650000000  0.4740320000000  0.5878450000000 1.0
C      1  0.4261010000000  0.4533000000000  0.5397130000000 1.0
C      1  0.4087430000000  0.5180850000000  0.5276400000000 1.0
C      1  0.4459470000000  0.4605810000000  0.4344020000000 1.0
C      1  0.4775300000000  0.5720520000000  0.5097430000000 1.0
C      1  0.5762500000000  0.4299560000000  0.5240950000000 1.0
C      1  0.4099070000000  0.5033710000000  0.4795560000000 1.0
C      1  0.4611680000000  0.5863520000000  0.5430800000000 1.0
C      1  0.5277110000000  0.4507590000000  0.5856430000000 1.0
C      1  0.4902290000000  0.4522300000000  0.3997030000000 1.0
C      1  0.5110560000000  0.4963010000000  0.3981560000000 1.0
C      1  0.5819620000000  0.4776400000000  0.5085480000000 1.0
C      1  0.4894160000000  0.5496830000000  0.5992900000000 1.0
C      1  0.5124020000000  0.4785610000000  0.5912170000000 1.0
C      1  0.5851650000000  0.4948090000000  0.4594160000000 1.0
C      1  0.5079330000000  0.5660310000000  0.4968890000000 1.0
C      1  0.4933890000000  0.5310980000000  0.5275240000000 1.0
C      1  0.5382690000000  0.5013350000000  0.4875170000000 1.0
C      1  0.5567560000000  0.4484370000000  0.5445790000000 1.0
C      1  0.5477010000000  0.4709940000000  0.4283230000000 1.0
C      1  0.4934500000000  0.4085070000000  0.5440790000000 1.0
C      1  0.5570590000000  0.4821280000000  0.4701230000000 1.0
C      1  0.5549350000000  0.5523670000000  0.4771030000000 1.0
C      1  0.4398890000000  0.5150370000000  0.5515780000000 1.0
C      1  0.5136950000000  0.5672290000000  0.5558180000000 1.0
C      1  0.5689660000000  0.4973830000000  0.4316340000000 1.0
END
