TITL C-2847944-5688-329 -0.0056084336527616 125000 -243.936246188988 0 0 47 (C1) n - 1
REM
REM in /home/bkarasulu/work/CARBON/AIRSS/Generating-Clusters/AIREBO/with-SteepDescent/Only-C1/SD-CG-opt/Try1-1.4A-POS3A/HFTN-CG
REM
REM
REM
REM
REM
REM ./C.cell (11c1c37f851c82e70ff6c80c92926a4b)
REM
REM compiler GCC version 9.2.1 20190827 (Red Hat 9.2.1-1)
REM options -cpp -mtune=generic -march=x86-64 -g -O0 -fpre-include=/usr/include/finclude/math-vector-fortran.h
REM seed 1808517395 -630877839 -1881203074 -1465995073 90688524 -336619398 848738828 607805919 676701449 198150742 1039642217 -467851959 -84231722 -1057695143 1500552536 -1162436355 100883376 -962892503 -886829684 701293557 -723717250 2088421546 -1646269555 601713460 -1747416898 -1394269991 -733934835 -2007851276 1709074294 -1440025055 -2008012833 593126023 -1979934967
REM
CELL 1.54180   50.00000   50.00000   50.00000   90.00000   90.00000   90.00000
LATT -1
SFAC C  
C      1  0.5477630000000  0.4960670000000  0.4991790000000 1.0
C      1  0.5453930000000  0.5222660000000  0.5517010000000 1.0
C      1  0.5436250000000  0.4577800000000  0.5480470000000 1.0
C      1  0.5024360000000  0.5173520000000  0.4942180000000 1.0
C      1  0.4822790000000  0.4576910000000  0.5349880000000 1.0
C      1  0.5427950000000  0.5260580000000  0.4552640000000 1.0
C      1  0.4511160000000  0.5204340000000  0.4588830000000 1.0
C      1  0.4578580000000  0.5300800000000  0.5543280000000 1.0
C      1  0.4539530000000  0.4811550000000  0.4694220000000 1.0
C      1  0.4876290000000  0.5383790000000  0.4635940000000 1.0
C      1  0.4948130000000  0.5062850000000  0.4408490000000 1.0
C      1  0.5126780000000  0.5424810000000  0.5119890000000 1.0
C      1  0.5025080000000  0.4751800000000  0.4423100000000 1.0
C      1  0.4732610000000  0.5308070000000  0.4917330000000 1.0
C      1  0.4745310000000  0.5540110000000  0.5113510000000 1.0
C      1  0.5174830000000  0.4467610000000  0.5499460000000 1.0
C      1  0.4982660000000  0.4665560000000  0.5073550000000 1.0
C      1  0.4487300000000  0.5073510000000  0.4901900000000 1.0
C      1  0.5002250000000  0.4263340000000  0.5004660000000 1.0
C      1  0.5126660000000  0.5335670000000  0.4419730000000 1.0
C      1  0.5644720000000  0.5314340000000  0.5336820000000 1.0
C      1  0.4602280000000  0.4897800000000  0.5170010000000 1.0
C      1  0.5290970000000  0.5534790000000  0.4640100000000 1.0
C      1  0.4962770000000  0.5726920000000  0.5029800000000 1.0
C      1  0.5029620000000  0.4320930000000  0.5269660000000 1.0
C      1  0.4597210000000  0.4592320000000  0.5020720000000 1.0
C      1  0.5218250000000  0.5632610000000  0.4876570000000 1.0
C      1  0.4836690000000  0.4488940000000  0.4834690000000 1.0
C      1  0.4866770000000  0.5204020000000  0.5667480000000 1.0
C      1  0.5657250000000  0.5202410000000  0.5085500000000 1.0
C      1  0.5489190000000  0.4735660000000  0.4503380000000 1.0
C      1  0.4215750000000  0.5152280000000  0.4980360000000 1.0
C      1  0.4547560000000  0.4768540000000  0.4369820000000 1.0
C      1  0.4750660000000  0.5045800000000  0.5389740000000 1.0
C      1  0.5268230000000  0.4657280000000  0.4359270000000 1.0
C      1  0.4787070000000  0.4617700000000  0.4564790000000 1.0
C      1  0.4499880000000  0.4614460000000  0.5334660000000 1.0
C      1  0.5123710000000  0.5038020000000  0.4684460000000 1.0
C      1  0.5099330000000  0.5326340000000  0.5434700000000 1.0
C      1  0.5500730000000  0.4750540000000  0.5218580000000 1.0
C      1  0.4788730000000  0.5453320000000  0.5372190000000 1.0
C      1  0.5084610000000  0.4987140000000  0.5415980000000 1.0
C      1  0.4646210000000  0.5059270000000  0.4399570000000 1.0
C      1  0.4997770000000  0.4705960000000  0.5586360000000 1.0
C      1  0.5153350000000  0.4922490000000  0.5092670000000 1.0
C      1  0.5435420000000  0.4975300000000  0.4686350000000 1.0
C      1  0.5405190000000  0.4908880000000  0.5497890000000 1.0
END
