TITL C-2847948-6138-460 0.000347336937009689 125000 -416.926173591047 0 0 79 (C1) n - 1
REM
REM in /home/bkarasulu/work/CARBON/AIRSS/Generating-Clusters/AIREBO/with-SteepDescent/Only-C1/SD-CG-opt/Try1-1.4A-POS3A/HFTN-CG
REM
REM
REM
REM
REM
REM ./C.cell (11c1c37f851c82e70ff6c80c92926a4b)
REM
REM compiler GCC version 9.2.1 20190827 (Red Hat 9.2.1-1)
REM options -cpp -mtune=generic -march=x86-64 -g -O0 -fpre-include=/usr/include/finclude/math-vector-fortran.h
REM seed 615591667 1652098121 385988129 384017022 1846353749 -1542154189 174112237 1279693108 1018385419 -1236562445 779594954 322379868 -1722271253 397259452 -373680154 2069593148 722321483 -307133027 844177953 2130295042 -1924238271 2079460562 1856626493 -1756272965 -1038842038 1583119119 -1240274412 -962681896 1834423924 -995755496 1873559470 242463386 -1719983851
REM
CELL 1.54180   50.00000   50.00000   50.00000   90.00000   90.00000   90.00000
LATT -1
SFAC C  
C      1  0.5689710000000  0.5069970000000  0.4647410000000 1.0
C      1  0.4602980000000  0.5516700000000  0.5482110000000 1.0
C      1  0.4958060000000  0.4859110000000  0.4897210000000 1.0
C      1  0.4958630000000  0.4656290000000  0.4643430000000 1.0
C      1  0.4978480000000  0.5073050000000  0.4026360000000 1.0
C      1  0.5417440000000  0.4816180000000  0.5153140000000 1.0
C      1  0.4962520000000  0.5921930000000  0.5015340000000 1.0
C      1  0.5257240000000  0.5104730000000  0.5235080000000 1.0
C      1  0.5101330000000  0.4572370000000  0.6089750000000 1.0
C      1  0.5177230000000  0.5667400000000  0.4796740000000 1.0
C      1  0.4641270000000  0.4887920000000  0.4382300000000 1.0
C      1  0.5355950000000  0.5370750000000  0.5393750000000 1.0
C      1  0.4847190000000  0.5646530000000  0.5492580000000 1.0
C      1  0.5263850000000  0.4245580000000  0.4796280000000 1.0
C      1  0.5215700000000  0.5381250000000  0.5665330000000 1.0
C      1  0.4529360000000  0.5235340000000  0.4545730000000 1.0
C      1  0.4712000000000  0.5595670000000  0.4670240000000 1.0
C      1  0.5650510000000  0.4260830000000  0.5396160000000 1.0
C      1  0.4904950000000  0.5400650000000  0.5094870000000 1.0
C      1  0.4476900000000  0.5126240000000  0.5190680000000 1.0
C      1  0.4641500000000  0.4770300000000  0.4671180000000 1.0
C      1  0.4625380000000  0.5065800000000  0.4824790000000 1.0
C      1  0.5673800000000  0.5348900000000  0.4569080000000 1.0
C      1  0.5147300000000  0.4611800000000  0.5184340000000 1.0
C      1  0.4792110000000  0.5325580000000  0.4395730000000 1.0
C      1  0.5104430000000  0.4777950000000  0.4393830000000 1.0
C      1  0.4888960000000  0.5212140000000  0.5347420000000 1.0
C      1  0.5377300000000  0.4872760000000  0.4356300000000 1.0
C      1  0.5177310000000  0.5059050000000  0.4945590000000 1.0
C      1  0.4781470000000  0.4229500000000  0.4789930000000 1.0
C      1  0.5109900000000  0.5096890000000  0.5537680000000 1.0
C      1  0.5475320000000  0.4747720000000  0.5477100000000 1.0
C      1  0.5448120000000  0.4215340000000  0.4581300000000 1.0
C      1  0.4739400000000  0.4922460000000  0.5118600000000 1.0
C      1  0.4368140000000  0.5428220000000  0.5308660000000 1.0
C      1  0.5692870000000  0.5256530000000  0.5213620000000 1.0
C      1  0.4723030000000  0.4664030000000  0.5584620000000 1.0
C      1  0.5421170000000  0.5210720000000  0.4388100000000 1.0
C      1  0.5370180000000  0.4452180000000  0.4997400000000 1.0
C      1  0.5503280000000  0.4457790000000  0.5306220000000 1.0
C      1  0.4390230000000  0.5033280000000  0.4319070000000 1.0
C      1  0.4100650000000  0.4686340000000  0.5032100000000 1.0
C      1  0.4993270000000  0.5676470000000  0.5220840000000 1.0
C      1  0.5216800000000  0.3996590000000  0.4927420000000 1.0
C      1  0.5700670000000  0.4670970000000  0.5033180000000 1.0
C      1  0.5026460000000  0.5587470000000  0.5705810000000 1.0
C      1  0.4928180000000  0.5044840000000  0.4314090000000 1.0
C      1  0.5544770000000  0.5515370000000  0.4781590000000 1.0
C      1  0.5281340000000  0.5882970000000  0.5039120000000 1.0
C      1  0.4981670000000  0.5561050000000  0.4465920000000 1.0
C      1  0.4896040000000  0.5833110000000  0.4739510000000 1.0
C      1  0.4403620000000  0.4431010000000  0.4981630000000 1.0
C      1  0.5636030000000  0.5014300000000  0.5322380000000 1.0
C      1  0.4262230000000  0.4958100000000  0.5060870000000 1.0
C      1  0.5573710000000  0.4722230000000  0.4490050000000 1.0
C      1  0.4386710000000  0.4722000000000  0.4851150000000 1.0
C      1  0.4593760000000  0.4956950000000  0.5682870000000 1.0
C      1  0.5843690000000  0.4856660000000  0.4496500000000 1.0
C      1  0.4664250000000  0.4334120000000  0.5025090000000 1.0
C      1  0.5081130000000  0.5342490000000  0.4825430000000 1.0
C      1  0.5562060000000  0.5466940000000  0.5060030000000 1.0
C      1  0.5401280000000  0.4983020000000  0.4738610000000 1.0
C      1  0.4615080000000  0.4420070000000  0.5518130000000 1.0
C      1  0.4922850000000  0.4781810000000  0.5367610000000 1.0
C      1  0.4999500000000  0.4361460000000  0.4697160000000 1.0
C      1  0.5184550000000  0.4795520000000  0.5585160000000 1.0
C      1  0.5143490000000  0.5138600000000  0.4560150000000 1.0
C      1  0.3874240000000  0.4553510000000  0.5074320000000 1.0
C      1  0.4608000000000  0.5177220000000  0.5500280000000 1.0
C      1  0.4468130000000  0.5609660000000  0.4850770000000 1.0
C      1  0.4177610000000  0.4276170000000  0.4989010000000 1.0
C      1  0.5307610000000  0.5499670000000  0.4537640000000 1.0
C      1  0.5130090000000  0.4665870000000  0.5853920000000 1.0
C      1  0.5326030000000  0.5620810000000  0.5221590000000 1.0
C      1  0.4335680000000  0.5466610000000  0.4630140000000 1.0
C      1  0.4705910000000  0.4770010000000  0.5909130000000 1.0
C      1  0.4867110000000  0.4420580000000  0.5207530000000 1.0
C      1  0.4618840000000  0.5362220000000  0.4991230000000 1.0
C      1  0.5484480000000  0.4669780000000  0.4786980000000 1.0
END
