TITL C-2848508-1660-505 -0.00031215449863439 125000 -724.765287505754 0 0 131 (C1) n - 1
REM
REM in /home/bkarasulu/work/CARBON/AIRSS/Generating-Clusters/AIREBO/with-SteepDescent/Only-C1/SD-CG-opt/Try1-1.4A-POS3A/HFTN-CG
REM
REM
REM
REM
REM
REM ./C.cell (11c1c37f851c82e70ff6c80c92926a4b)
REM
REM compiler GCC version 9.2.1 20190827 (Red Hat 9.2.1-1)
REM options -cpp -mtune=generic -march=x86-64 -g -O0 -fpre-include=/usr/include/finclude/math-vector-fortran.h
REM seed 362087209 850556744 -1246413782 418568019 -1657570948 -304275263 -850022448 -1258637634 -1446088179 1024468215 1396974822 1940979770 -1165681128 1974924369 -1295899942 1036153051 369312937 171761635 1891389492 -201460573 -960156095 998309120 -1298915675 1339996982 1658272935 478940177 -81287851 -541723357 1405784267 368423413 1556291739 -165118992 -1186615364
REM
CELL 1.54180   50.00000   50.00000   50.00000   90.00000   90.00000   90.00000
LATT -1
SFAC C  
C      1  0.4534310000000  0.4444800000000  0.5269270000000 1.0
C      1  0.5183020000000  0.5231920000000  0.4125170000000 1.0
C      1  0.5167900000000  0.4483350000000  0.5736140000000 1.0
C      1  0.4931210000000  0.4693550000000  0.4498960000000 1.0
C      1  0.4826760000000  0.5007520000000  0.4419640000000 1.0
C      1  0.5640030000000  0.4676240000000  0.5304060000000 1.0
C      1  0.4565180000000  0.5675120000000  0.4214430000000 1.0
C      1  0.4571870000000  0.4062120000000  0.5167220000000 1.0
C      1  0.4838410000000  0.4711970000000  0.5796610000000 1.0
C      1  0.5254590000000  0.6007930000000  0.5009520000000 1.0
C      1  0.4496180000000  0.4190800000000  0.4926900000000 1.0
C      1  0.4275830000000  0.4615750000000  0.5371990000000 1.0
C      1  0.5177550000000  0.4103220000000  0.4891150000000 1.0
C      1  0.4267540000000  0.5218150000000  0.5524440000000 1.0
C      1  0.4273770000000  0.4604820000000  0.4684630000000 1.0
C      1  0.4800680000000  0.5183340000000  0.5729610000000 1.0
C      1  0.4567090000000  0.4760280000000  0.5755470000000 1.0
C      1  0.4893060000000  0.4611660000000  0.5315510000000 1.0
C      1  0.4240130000000  0.4805800000000  0.5159790000000 1.0
C      1  0.5501850000000  0.5211730000000  0.5403030000000 1.0
C      1  0.4661980000000  0.5438220000000  0.5647210000000 1.0
C      1  0.4861710000000  0.5498100000000  0.4960530000000 1.0
C      1  0.4421950000000  0.4550660000000  0.5637080000000 1.0
C      1  0.5516180000000  0.5670390000000  0.4706450000000 1.0
C      1  0.4542770000000  0.5777460000000  0.5098400000000 1.0
C      1  0.5079440000000  0.5081800000000  0.4606030000000 1.0
C      1  0.5391190000000  0.5384260000000  0.4243680000000 1.0
C      1  0.4771880000000  0.4234170000000  0.5382010000000 1.0
C      1  0.4959810000000  0.5202060000000  0.5984120000000 1.0
C      1  0.5335850000000  0.4176150000000  0.5160130000000 1.0
C      1  0.4693650000000  0.5731760000000  0.5387560000000 1.0
C      1  0.4969890000000  0.6007020000000  0.5054240000000 1.0
C      1  0.5497150000000  0.5432140000000  0.5776120000000 1.0
C      1  0.5123890000000  0.4741050000000  0.5926560000000 1.0
C      1  0.5515230000000  0.5262340000000  0.4544530000000 1.0
C      1  0.5572340000000  0.5053940000000  0.5668040000000 1.0
C      1  0.4935340000000  0.5715610000000  0.5194930000000 1.0
C      1  0.5239990000000  0.4961590000000  0.4077400000000 1.0
C      1  0.4227370000000  0.5480940000000  0.5344090000000 1.0
C      1  0.5285710000000  0.5848320000000  0.4775400000000 1.0
C      1  0.5651660000000  0.5004880000000  0.4413750000000 1.0
C      1  0.4554110000000  0.4290360000000  0.5637220000000 1.0
C      1  0.5445800000000  0.4187200000000  0.5541670000000 1.0
C      1  0.4229360000000  0.5108150000000  0.5204930000000 1.0
C      1  0.4872070000000  0.4361500000000  0.4434600000000 1.0
C      1  0.5216650000000  0.4662740000000  0.5319550000000 1.0
C      1  0.5210130000000  0.5005000000000  0.4989000000000 1.0
C      1  0.4631190000000  0.5454870000000  0.4717700000000 1.0
C      1  0.5924750000000  0.5052010000000  0.5106890000000 1.0
C      1  0.4813950000000  0.5699720000000  0.5694870000000 1.0
C      1  0.5069220000000  0.4355900000000  0.4779260000000 1.0
C      1  0.5750040000000  0.5486350000000  0.4650970000000 1.0
C      1  0.5419760000000  0.5165510000000  0.5906190000000 1.0
C      1  0.4971100000000  0.4836590000000  0.4815220000000 1.0
C      1  0.5031420000000  0.5139070000000  0.5199190000000 1.0
C      1  0.5168170000000  0.4035810000000  0.5416080000000 1.0
C      1  0.5791030000000  0.4798060000000  0.4630110000000 1.0
C      1  0.5009930000000  0.4253320000000  0.5624220000000 1.0
C      1  0.5372760000000  0.5515590000000  0.5078730000000 1.0
C      1  0.4649140000000  0.4555440000000  0.4982120000000 1.0
C      1  0.5702250000000  0.5466720000000  0.5300150000000 1.0
C      1  0.4539340000000  0.5021390000000  0.5314460000000 1.0
C      1  0.5397160000000  0.5900090000000  0.5238320000000 1.0
C      1  0.5506910000000  0.4876070000000  0.4202240000000 1.0
C      1  0.5743260000000  0.4461590000000  0.5104230000000 1.0
C      1  0.4524100000000  0.5045550000000  0.5642020000000 1.0
C      1  0.5470530000000  0.5191770000000  0.4874160000000 1.0
C      1  0.5083270000000  0.3876060000000  0.5125980000000 1.0
C      1  0.4413570000000  0.4761000000000  0.4910800000000 1.0
C      1  0.4485430000000  0.5177970000000  0.4752730000000 1.0
C      1  0.4978730000000  0.3858840000000  0.4801420000000 1.0
C      1  0.5746660000000  0.5424910000000  0.5634730000000 1.0
C      1  0.5194880000000  0.5366830000000  0.4590990000000 1.0
C      1  0.4843430000000  0.4072710000000  0.4617890000000 1.0
C      1  0.4615340000000  0.4362200000000  0.4263130000000 1.0
C      1  0.5436060000000  0.4526920000000  0.5531630000000 1.0
C      1  0.5639720000000  0.4214530000000  0.5165690000000 1.0
C      1  0.5903380000000  0.5213450000000  0.5405520000000 1.0
C      1  0.5614000000000  0.5076550000000  0.5146000000000 1.0
C      1  0.4725930000000  0.5232770000000  0.5124340000000 1.0
C      1  0.5009850000000  0.5471800000000  0.6060070000000 1.0
C      1  0.4063000000000  0.5303110000000  0.4715150000000 1.0
C      1  0.4928380000000  0.5541300000000  0.4464710000000 1.0
C      1  0.5440600000000  0.4290000000000  0.4650570000000 1.0
C      1  0.4627400000000  0.4759280000000  0.5247780000000 1.0
C      1  0.4324390000000  0.5603010000000  0.5070930000000 1.0
C      1  0.5431600000000  0.4556370000000  0.4842390000000 1.0
C      1  0.5640590000000  0.4728560000000  0.5700580000000 1.0
C      1  0.4890740000000  0.5289730000000  0.4238860000000 1.0
C      1  0.4656480000000  0.4969310000000  0.3887460000000 1.0
C      1  0.4279230000000  0.4300220000000  0.4787280000000 1.0
C      1  0.4726660000000  0.4746840000000  0.4038810000000 1.0
C      1  0.4769340000000  0.5575810000000  0.4100530000000 1.0
C      1  0.5321440000000  0.5641300000000  0.4435140000000 1.0
C      1  0.5129950000000  0.4595010000000  0.4994540000000 1.0
C      1  0.5217910000000  0.5302580000000  0.5398040000000 1.0
C      1  0.5680780000000  0.5433870000000  0.4979750000000 1.0
C      1  0.5223140000000  0.5634500000000  0.5359940000000 1.0
C      1  0.5830830000000  0.4556950000000  0.4866310000000 1.0
C      1  0.4375280000000  0.4765040000000  0.4401820000000 1.0
C      1  0.4997440000000  0.5089230000000  0.5518640000000 1.0
C      1  0.5987370000000  0.4923390000000  0.4872310000000 1.0
C      1  0.4681660000000  0.4970310000000  0.4912420000000 1.0
C      1  0.4556190000000  0.5428410000000  0.5344950000000 1.0
C      1  0.5286320000000  0.5618890000000  0.5693140000000 1.0
C      1  0.5490590000000  0.4665650000000  0.4541650000000 1.0
C      1  0.4639350000000  0.5207520000000  0.4025040000000 1.0
C      1  0.5299070000000  0.4614420000000  0.4265180000000 1.0
C      1  0.5161950000000  0.5543060000000  0.4854310000000 1.0
C      1  0.5281890000000  0.4871760000000  0.4568180000000 1.0
C      1  0.5471920000000  0.4795130000000  0.5044130000000 1.0
C      1  0.4519470000000  0.5028290000000  0.4474020000000 1.0
C      1  0.4478930000000  0.5258280000000  0.4269500000000 1.0
C      1  0.5001430000000  0.4749260000000  0.4170880000000 1.0
C      1  0.4532170000000  0.4610730000000  0.4191560000000 1.0
C      1  0.3970680000000  0.5056070000000  0.4617000000000 1.0
C      1  0.5799080000000  0.4910510000000  0.5459220000000 1.0
C      1  0.4425510000000  0.5513510000000  0.4453210000000 1.0
C      1  0.5013580000000  0.4798910000000  0.5547390000000 1.0
C      1  0.4131900000000  0.5508880000000  0.4548250000000 1.0
C      1  0.5031770000000  0.4330870000000  0.5185000000000 1.0
C      1  0.5650670000000  0.5798490000000  0.5316790000000 1.0
C      1  0.4075610000000  0.4826200000000  0.4535360000000 1.0
C      1  0.4252460000000  0.5292500000000  0.4963920000000 1.0
C      1  0.4721830000000  0.5897570000000  0.4910370000000 1.0
C      1  0.5049360000000  0.5655500000000  0.5843970000000 1.0
C      1  0.5070320000000  0.5823450000000  0.4338770000000 1.0
C      1  0.5184720000000  0.5026170000000  0.5976320000000 1.0
C      1  0.5203820000000  0.4394910000000  0.4469480000000 1.0
C      1  0.4754070000000  0.5749390000000  0.4669900000000 1.0
C      1  0.4754830000000  0.4334060000000  0.4811730000000 1.0
END
