TITL C-2847954-6904-178 -0.000417921485464068 125000 -241.139216545837 0 0 47 (C1) n - 1
REM
REM in /home/bkarasulu/work/CARBON/AIRSS/Generating-Clusters/AIREBO/with-SteepDescent/Only-C1/SD-CG-opt/Try1-1.4A-POS3A/HFTN-CG
REM
REM
REM
REM
REM
REM ./C.cell (11c1c37f851c82e70ff6c80c92926a4b)
REM
REM compiler GCC version 9.2.1 20190827 (Red Hat 9.2.1-1)
REM options -cpp -mtune=generic -march=x86-64 -g -O0 -fpre-include=/usr/include/finclude/math-vector-fortran.h
REM seed 482562190 1346681169 514098765 2027464712 -137235773 -969309701 -1695264479 -879622987 906848410 -940931027 -383907119 314477521 -291843860 -118611459 261137336 -1959599133 -1220350417 1378911923 1807708588 1418032961 -1878607285 1373248534 552769957 802665929 675062623 -927342268 989166711 -1074379023 -205710743 821686329 2115124181 1830160685 -625813813
REM
CELL 1.54180   50.00000   50.00000   50.00000   90.00000   90.00000   90.00000
LATT -1
SFAC C  
C      1  0.5415830000000  0.5371770000000  0.4739800000000 1.0
C      1  0.4720830000000  0.5477420000000  0.5287850000000 1.0
C      1  0.4418490000000  0.4911950000000  0.4774740000000 1.0
C      1  0.4661180000000  0.4710200000000  0.5426050000000 1.0
C      1  0.5407520000000  0.4680570000000  0.5102010000000 1.0
C      1  0.4699480000000  0.5040960000000  0.4916380000000 1.0
C      1  0.5549320000000  0.4500500000000  0.4939360000000 1.0
C      1  0.4914230000000  0.5082670000000  0.5611490000000 1.0
C      1  0.5143430000000  0.4918850000000  0.5329920000000 1.0
C      1  0.5122340000000  0.5246000000000  0.5718390000000 1.0
C      1  0.5218090000000  0.5522940000000  0.4613440000000 1.0
C      1  0.4902610000000  0.5669990000000  0.5138740000000 1.0
C      1  0.4895790000000  0.4799190000000  0.4945980000000 1.0
C      1  0.4494810000000  0.4583680000000  0.4729680000000 1.0
C      1  0.5396900000000  0.5455700000000  0.5354460000000 1.0
C      1  0.5072650000000  0.5156240000000  0.5097020000000 1.0
C      1  0.5245740000000  0.4533370000000  0.5343870000000 1.0
C      1  0.4154210000000  0.4952820000000  0.4645830000000 1.0
C      1  0.4964570000000  0.5078770000000  0.4533190000000 1.0
C      1  0.4663110000000  0.5326060000000  0.4466390000000 1.0
C      1  0.4840050000000  0.4341320000000  0.5142830000000 1.0
C      1  0.5612930000000  0.5125410000000  0.5041370000000 1.0
C      1  0.4944320000000  0.4656390000000  0.5245600000000 1.0
C      1  0.5103060000000  0.4948380000000  0.4270820000000 1.0
C      1  0.5366510000000  0.5325110000000  0.5063560000000 1.0
C      1  0.4574030000000  0.5315490000000  0.5036670000000 1.0
C      1  0.4816280000000  0.5170880000000  0.5320170000000 1.0
C      1  0.5370950000000  0.5019380000000  0.4272680000000 1.0
C      1  0.5110290000000  0.4599240000000  0.5604460000000 1.0
C      1  0.4897510000000  0.4793970000000  0.5619350000000 1.0
C      1  0.4888810000000  0.5392590000000  0.4938240000000 1.0
C      1  0.5498590000000  0.5107640000000  0.4564470000000 1.0
C      1  0.4627350000000  0.5022880000000  0.4525970000000 1.0
C      1  0.4640490000000  0.4407960000000  0.5321130000000 1.0
C      1  0.5717320000000  0.5110800000000  0.4792310000000 1.0
C      1  0.5198030000000  0.4883720000000  0.4936560000000 1.0
C      1  0.4249840000000  0.5275300000000  0.5099060000000 1.0
C      1  0.5363670000000  0.5257610000000  0.5561910000000 1.0
C      1  0.5001340000000  0.4696880000000  0.4423700000000 1.0
C      1  0.5575460000000  0.4919020000000  0.5224310000000 1.0
C      1  0.4939290000000  0.5394670000000  0.4642530000000 1.0
C      1  0.5248160000000  0.4922090000000  0.4641290000000 1.0
C      1  0.5401740000000  0.4998060000000  0.5443050000000 1.0
C      1  0.4563090000000  0.4961260000000  0.5283460000000 1.0
C      1  0.5261580000000  0.4599990000000  0.4532870000000 1.0
C      1  0.4347920000000  0.4993020000000  0.5097410000000 1.0
C      1  0.4780270000000  0.4741280000000  0.4639630000000 1.0
END
