TITL C-2848506-1665-579 0.000413486143805872 125000 -847.699397710723 0 0 162 (C1) n - 1
REM
REM in /home/bkarasulu/work/CARBON/AIRSS/Generating-Clusters/AIREBO/with-SteepDescent/Only-C1/SD-CG-opt/Try1-1.4A-POS3A/HFTN-CG
REM
REM
REM
REM
REM
REM ./C.cell (11c1c37f851c82e70ff6c80c92926a4b)
REM
REM compiler GCC version 9.2.1 20190827 (Red Hat 9.2.1-1)
REM options -cpp -mtune=generic -march=x86-64 -g -O0 -fpre-include=/usr/include/finclude/math-vector-fortran.h
REM seed -1760522186 -464938354 -981151870 -850732544 -1201975272 1011629693 -734442352 -837115351 -1265550993 -366002215 -801024332 549745193 -1787595271 -573615233 -879777887 -103079934 2123748982 356107258 1299766589 6479846 -1301987276 -809636929 -818399170 -1763713357 1953033340 -1906771584 -1170900257 697824176 1727926753 1092367556 502048769 -2014722586 1806987492
REM
CELL 1.54180   50.00000   50.00000   50.00000   90.00000   90.00000   90.00000
LATT -1
SFAC C  
C      1  0.4121600000000  0.5368220000000  0.4705710000000 1.0
C      1  0.4651820000000  0.4166900000000  0.5263790000000 1.0
C      1  0.4952180000000  0.5340300000000  0.4869890000000 1.0
C      1  0.5180870000000  0.4502970000000  0.5549800000000 1.0
C      1  0.5310320000000  0.6051480000000  0.4792030000000 1.0
C      1  0.4798380000000  0.4828140000000  0.6135820000000 1.0
C      1  0.5488320000000  0.5327520000000  0.4793610000000 1.0
C      1  0.4689830000000  0.5905200000000  0.4637240000000 1.0
C      1  0.5099120000000  0.4702230000000  0.4611510000000 1.0
C      1  0.5146330000000  0.4167750000000  0.5499500000000 1.0
C      1  0.5263560000000  0.5696410000000  0.5129040000000 1.0
C      1  0.5711510000000  0.4599100000000  0.5658250000000 1.0
C      1  0.5148370000000  0.5251560000000  0.5077800000000 1.0
C      1  0.4629910000000  0.5011690000000  0.5943540000000 1.0
C      1  0.5712320000000  0.4713980000000  0.4209280000000 1.0
C      1  0.4884620000000  0.5018030000000  0.4022960000000 1.0
C      1  0.5523260000000  0.5011310000000  0.5351560000000 1.0
C      1  0.4342110000000  0.5798100000000  0.4957280000000 1.0
C      1  0.5805080000000  0.4958550000000  0.4955230000000 1.0
C      1  0.4400460000000  0.5311280000000  0.5816440000000 1.0
C      1  0.4480290000000  0.5650430000000  0.5573350000000 1.0
C      1  0.4959170000000  0.6000210000000  0.5459420000000 1.0
C      1  0.4680880000000  0.4478790000000  0.4113710000000 1.0
C      1  0.5143640000000  0.5301340000000  0.5599810000000 1.0
C      1  0.5944400000000  0.5121190000000  0.4506410000000 1.0
C      1  0.4659060000000  0.5324130000000  0.6016170000000 1.0
C      1  0.4628330000000  0.4824830000000  0.5029580000000 1.0
C      1  0.4290350000000  0.4822880000000  0.5062190000000 1.0
C      1  0.4233630000000  0.4439790000000  0.5157250000000 1.0
C      1  0.5493230000000  0.5445880000000  0.5112520000000 1.0
C      1  0.5603930000000  0.4401020000000  0.4197850000000 1.0
C      1  0.5325140000000  0.5521040000000  0.4440990000000 1.0
C      1  0.5286640000000  0.4608590000000  0.4071410000000 1.0
C      1  0.5506300000000  0.4405920000000  0.5755700000000 1.0
C      1  0.5482240000000  0.4578050000000  0.4914870000000 1.0
C      1  0.4058350000000  0.4609760000000  0.4634640000000 1.0
C      1  0.5454470000000  0.5485830000000  0.5774870000000 1.0
C      1  0.5058100000000  0.5539930000000  0.4619280000000 1.0
C      1  0.4064440000000  0.5204560000000  0.4940430000000 1.0
C      1  0.5472940000000  0.5353030000000  0.4039530000000 1.0
C      1  0.5461730000000  0.4220480000000  0.5538890000000 1.0
C      1  0.5668150000000  0.5520030000000  0.4244940000000 1.0
C      1  0.4507770000000  0.4672040000000  0.5645340000000 1.0
C      1  0.5978660000000  0.5410880000000  0.5135300000000 1.0
C      1  0.5796690000000  0.4499490000000  0.4462440000000 1.0
C      1  0.5422740000000  0.5989410000000  0.5060990000000 1.0
C      1  0.4974710000000  0.5432200000000  0.6061230000000 1.0
C      1  0.4972880000000  0.4470460000000  0.4276670000000 1.0
C      1  0.5619860000000  0.4268610000000  0.5277120000000 1.0
C      1  0.5272910000000  0.5096400000000  0.4687480000000 1.0
C      1  0.5144160000000  0.5736140000000  0.5445020000000 1.0
C      1  0.5345260000000  0.3958160000000  0.4705050000000 1.0
C      1  0.4291600000000  0.5604500000000  0.4756830000000 1.0
C      1  0.5973510000000  0.5206480000000  0.4794350000000 1.0
C      1  0.4691640000000  0.4512490000000  0.4910610000000 1.0
C      1  0.5415300000000  0.4771550000000  0.4507240000000 1.0
C      1  0.5646720000000  0.5637520000000  0.5460980000000 1.0
C      1  0.4933380000000  0.4476360000000  0.5136490000000 1.0
C      1  0.5296970000000  0.5711690000000  0.4790990000000 1.0
C      1  0.4380590000000  0.5118690000000  0.4212550000000 1.0
C      1  0.5135110000000  0.4804220000000  0.5244700000000 1.0
C      1  0.5841290000000  0.4816640000000  0.5493490000000 1.0
C      1  0.5934530000000  0.5526770000000  0.4868370000000 1.0
C      1  0.5856710000000  0.4452680000000  0.4863150000000 1.0
C      1  0.5421480000000  0.5226980000000  0.4413200000000 1.0
C      1  0.5425250000000  0.4895310000000  0.4190560000000 1.0
C      1  0.5206960000000  0.5326070000000  0.5914950000000 1.0
C      1  0.4422950000000  0.5711060000000  0.5252320000000 1.0
C      1  0.5594840000000  0.4378300000000  0.4694710000000 1.0
C      1  0.4986230000000  0.4147480000000  0.5204960000000 1.0
C      1  0.5009050000000  0.5674980000000  0.4148030000000 1.0
C      1  0.3997010000000  0.4652860000000  0.5036420000000 1.0
C      1  0.5366870000000  0.4231440000000  0.4571130000000 1.0
C      1  0.5104660000000  0.4383860000000  0.4643630000000 1.0
C      1  0.5709100000000  0.5705100000000  0.5155130000000 1.0
C      1  0.4630450000000  0.5591090000000  0.4236200000000 1.0
C      1  0.4699910000000  0.4869920000000  0.4707840000000 1.0
C      1  0.5082280000000  0.6196420000000  0.4775080000000 1.0
C      1  0.5708130000000  0.5340070000000  0.4531160000000 1.0
C      1  0.5284030000000  0.5048040000000  0.6027850000000 1.0
C      1  0.4748710000000  0.5551830000000  0.6252040000000 1.0
C      1  0.4961960000000  0.5027670000000  0.4806640000000 1.0
C      1  0.4895070000000  0.4159150000000  0.4389160000000 1.0
C      1  0.4241390000000  0.4396340000000  0.5553800000000 1.0
C      1  0.5146310000000  0.4972800000000  0.5540190000000 1.0
C      1  0.4575490000000  0.5327290000000  0.3839290000000 1.0
C      1  0.5349690000000  0.4546000000000  0.5190960000000 1.0
C      1  0.4945810000000  0.4081950000000  0.5760330000000 1.0
C      1  0.5234290000000  0.3963880000000  0.4951700000000 1.0
C      1  0.4647550000000  0.5401330000000  0.5600930000000 1.0
C      1  0.4795270000000  0.4487000000000  0.5444640000000 1.0
C      1  0.4915110000000  0.4938430000000  0.5772720000000 1.0
C      1  0.4379320000000  0.4195130000000  0.5322090000000 1.0
C      1  0.4690040000000  0.5389690000000  0.5019190000000 1.0
C      1  0.5339010000000  0.4998660000000  0.5071990000000 1.0
C      1  0.5803210000000  0.4459820000000  0.5147810000000 1.0
C      1  0.4954120000000  0.3870350000000  0.5003750000000 1.0
C      1  0.4743740000000  0.5611010000000  0.5244630000000 1.0
C      1  0.4355760000000  0.4675120000000  0.4778360000000 1.0
C      1  0.5742240000000  0.5096030000000  0.5597350000000 1.0
C      1  0.4228160000000  0.5470350000000  0.5323590000000 1.0
C      1  0.4788270000000  0.4269420000000  0.4692690000000 1.0
C      1  0.5562730000000  0.5708410000000  0.4495420000000 1.0
C      1  0.4689640000000  0.4887020000000  0.5562270000000 1.0
C      1  0.4834670000000  0.6048470000000  0.4872490000000 1.0
C      1  0.4857600000000  0.5745610000000  0.4436570000000 1.0
C      1  0.5313840000000  0.4211820000000  0.5139440000000 1.0
C      1  0.5717900000000  0.5374420000000  0.5638540000000 1.0
C      1  0.5663030000000  0.5132570000000  0.4193250000000 1.0
C      1  0.4177990000000  0.4909020000000  0.4512730000000 1.0
C      1  0.4931500000000  0.4396090000000  0.5742860000000 1.0
C      1  0.4217610000000  0.4379490000000  0.4837250000000 1.0
C      1  0.5847780000000  0.4747390000000  0.5220460000000 1.0
C      1  0.4997530000000  0.5386110000000  0.4124960000000 1.0
C      1  0.3925920000000  0.4979950000000  0.5068200000000 1.0
C      1  0.4257800000000  0.5260030000000  0.5145910000000 1.0
C      1  0.4549690000000  0.4550010000000  0.5217320000000 1.0
C      1  0.5391620000000  0.5737010000000  0.5616080000000 1.0
C      1  0.4152230000000  0.5418310000000  0.5609780000000 1.0
C      1  0.5590980000000  0.4967960000000  0.5975220000000 1.0
C      1  0.4637500000000  0.5271690000000  0.4473100000000 1.0
C      1  0.5444360000000  0.4704990000000  0.5476390000000 1.0
C      1  0.5213080000000  0.4529270000000  0.5886530000000 1.0
C      1  0.4484460000000  0.5036340000000  0.4588480000000 1.0
C      1  0.5081800000000  0.4988010000000  0.4427890000000 1.0
C      1  0.4524930000000  0.5555770000000  0.4551060000000 1.0
C      1  0.4479760000000  0.4419910000000  0.4306580000000 1.0
C      1  0.4105690000000  0.4881520000000  0.5340490000000 1.0
C      1  0.4695130000000  0.4061100000000  0.4944770000000 1.0
C      1  0.4925750000000  0.5498540000000  0.5508680000000 1.0
C      1  0.4394520000000  0.4676180000000  0.4440390000000 1.0
C      1  0.4416130000000  0.4151650000000  0.4772690000000 1.0
C      1  0.4678440000000  0.5263940000000  0.4135570000000 1.0
C      1  0.5503930000000  0.4882510000000  0.4816360000000 1.0
C      1  0.4194720000000  0.4728730000000  0.5615690000000 1.0
C      1  0.4820550000000  0.4854500000000  0.5289790000000 1.0
C      1  0.5083000000000  0.4782220000000  0.6020320000000 1.0
C      1  0.4792060000000  0.4687600000000  0.4466190000000 1.0
C      1  0.4234760000000  0.5111230000000  0.5516100000000 1.0
C      1  0.4686020000000  0.5643890000000  0.4825900000000 1.0
C      1  0.4165250000000  0.5228400000000  0.4452010000000 1.0
C      1  0.4515830000000  0.4218770000000  0.4493590000000 1.0
C      1  0.4754880000000  0.6015930000000  0.5258400000000 1.0
C      1  0.5212840000000  0.5129670000000  0.4062960000000 1.0
C      1  0.5860630000000  0.4832740000000  0.4484180000000 1.0
C      1  0.5298680000000  0.4365590000000  0.4289080000000 1.0
C      1  0.4945050000000  0.5806120000000  0.5082730000000 1.0
C      1  0.4316840000000  0.4975390000000  0.5816840000000 1.0
C      1  0.5735250000000  0.5209250000000  0.5174100000000 1.0
C      1  0.4534970000000  0.6025230000000  0.5032520000000 1.0
C      1  0.4951140000000  0.5279960000000  0.4427660000000 1.0
C      1  0.4695340000000  0.4744180000000  0.3951300000000 1.0
C      1  0.4548300000000  0.5142490000000  0.5121440000000 1.0
C      1  0.4587010000000  0.4851030000000  0.4249590000000 1.0
C      1  0.5943330000000  0.4708400000000  0.4771000000000 1.0
C      1  0.5041770000000  0.4786870000000  0.4172820000000 1.0
C      1  0.4550050000000  0.4362320000000  0.5642240000000 1.0
C      1  0.5018930000000  0.4737250000000  0.4935890000000 1.0
C      1  0.5320860000000  0.5280230000000  0.5354320000000 1.0
C      1  0.5366880000000  0.4874310000000  0.5756100000000 1.0
C      1  0.5638580000000  0.5688550000000  0.4822630000000 1.0
C      1  0.4542850000000  0.5137960000000  0.5449400000000 1.0
END
