TITL C-2848500-1637-40 8.31354228855465e-05 125000 -351.028017785881 0 0 63 (C1) n - 1
REM
REM in /home/bkarasulu/work/CARBON/AIRSS/Generating-Clusters/AIREBO/with-SteepDescent/Only-C1/SD-CG-opt/Try1-1.4A-POS3A/HFTN-CG
REM
REM
REM
REM
REM
REM ./C.cell (11c1c37f851c82e70ff6c80c92926a4b)
REM
REM compiler GCC version 9.2.1 20190827 (Red Hat 9.2.1-1)
REM options -cpp -mtune=generic -march=x86-64 -g -O0 -fpre-include=/usr/include/finclude/math-vector-fortran.h
REM seed 373446025 -1239589988 -1834819597 1565775098 -36701485 744309748 1256962537 -1640939568 1000726279 1572858401 -49831649 -187188661 -1200281835 1961836440 -204007171 1695048182 470870670 449175290 471732576 -1191688755 -1426603674 -979338996 -700118321 2015666675 -1236910395 569966495 1112685444 -311658843 -1319494850 -116555095 1886236299 -1708668030 -1498113805
REM
CELL 1.54180   50.00000   50.00000   50.00000   90.00000   90.00000   90.00000
LATT -1
SFAC C  
C      1  0.4650780000000  0.4406270000000  0.4779350000000 1.0
C      1  0.5556910000000  0.4589820000000  0.4838120000000 1.0
C      1  0.4410910000000  0.5465210000000  0.5241040000000 1.0
C      1  0.4318150000000  0.5242950000000  0.4851190000000 1.0
C      1  0.4640530000000  0.5228030000000  0.4434870000000 1.0
C      1  0.5017500000000  0.4726080000000  0.4549540000000 1.0
C      1  0.4601990000000  0.5189330000000  0.5023720000000 1.0
C      1  0.4855590000000  0.4448390000000  0.5226160000000 1.0
C      1  0.5409180000000  0.5304550000000  0.4944410000000 1.0
C      1  0.4699960000000  0.4273700000000  0.5011660000000 1.0
C      1  0.4803420000000  0.4679900000000  0.4782780000000 1.0
C      1  0.4806480000000  0.5466260000000  0.4548620000000 1.0
C      1  0.4731570000000  0.5359310000000  0.5288400000000 1.0
C      1  0.4844070000000  0.4727610000000  0.5620300000000 1.0
C      1  0.5121660000000  0.5720700000000  0.5154410000000 1.0
C      1  0.5190480000000  0.5510460000000  0.4826710000000 1.0
C      1  0.4569100000000  0.4899590000000  0.4844120000000 1.0
C      1  0.5139630000000  0.4341690000000  0.5329770000000 1.0
C      1  0.5561190000000  0.4451170000000  0.5130000000000 1.0
C      1  0.5303760000000  0.4795770000000  0.5369050000000 1.0
C      1  0.5811360000000  0.4966000000000  0.5059010000000 1.0
C      1  0.5494450000000  0.5283250000000  0.5631250000000 1.0
C      1  0.5292040000000  0.5469110000000  0.5210630000000 1.0
C      1  0.5429730000000  0.5463770000000  0.5475800000000 1.0
C      1  0.4870890000000  0.5083740000000  0.4641330000000 1.0
C      1  0.4973800000000  0.4740930000000  0.4210730000000 1.0
C      1  0.5362810000000  0.4496150000000  0.5308860000000 1.0
C      1  0.4665440000000  0.5194470000000  0.5566150000000 1.0
C      1  0.4316990000000  0.4943440000000  0.5304030000000 1.0
C      1  0.5490410000000  0.4890490000000  0.4436810000000 1.0
C      1  0.5105500000000  0.4960680000000  0.5808730000000 1.0
C      1  0.4428900000000  0.4755910000000  0.4569600000000 1.0
C      1  0.5151110000000  0.4892610000000  0.5114990000000 1.0
C      1  0.4430330000000  0.4705360000000  0.5402900000000 1.0
C      1  0.4699700000000  0.5555400000000  0.4813660000000 1.0
C      1  0.4393790000000  0.5192870000000  0.5414420000000 1.0
C      1  0.5141160000000  0.4946510000000  0.4777050000000 1.0
C      1  0.5697990000000  0.4948540000000  0.5556590000000 1.0
C      1  0.5250790000000  0.4821840000000  0.4327820000000 1.0
C      1  0.4690110000000  0.4602500000000  0.5427940000000 1.0
C      1  0.5496200000000  0.5667390000000  0.4629690000000 1.0
C      1  0.5434360000000  0.5095670000000  0.4689590000000 1.0
C      1  0.4809070000000  0.5016510000000  0.5709590000000 1.0
C      1  0.5261120000000  0.4456250000000  0.4866710000000 1.0
C      1  0.4876070000000  0.5275260000000  0.4892460000000 1.0
C      1  0.4859490000000  0.5670020000000  0.5232750000000 1.0
C      1  0.4671870000000  0.4902400000000  0.4441510000000 1.0
C      1  0.5114760000000  0.5209250000000  0.5076690000000 1.0
C      1  0.5640830000000  0.4678350000000  0.4534200000000 1.0
C      1  0.4282870000000  0.4950020000000  0.5018480000000 1.0
C      1  0.4210540000000  0.4967580000000  0.4683250000000 1.0
C      1  0.4600480000000  0.5656500000000  0.5061500000000 1.0
C      1  0.5227240000000  0.4208140000000  0.4786370000000 1.0
C      1  0.5823600000000  0.5009130000000  0.5325510000000 1.0
C      1  0.5401940000000  0.5385890000000  0.4514710000000 1.0
C      1  0.4346210000000  0.5237100000000  0.4522330000000 1.0
C      1  0.4443690000000  0.4450640000000  0.4602050000000 1.0
C      1  0.5081430000000  0.5439860000000  0.4554200000000 1.0
C      1  0.5139160000000  0.4675430000000  0.5633530000000 1.0
C      1  0.5031980000000  0.4622270000000  0.4994450000000 1.0
C      1  0.5640220000000  0.4899100000000  0.4866430000000 1.0
C      1  0.5295330000000  0.5799490000000  0.4871970000000 1.0
C      1  0.5381350000000  0.4987350000000  0.5639500000000 1.0
END
