TITL C-2847958-8115-244 0.00579325835055616 125000 -744.318426077906 0 0 139 (C1) n - 1
REM
REM in /home/bkarasulu/work/CARBON/AIRSS/Generating-Clusters/AIREBO/with-SteepDescent/Only-C1/SD-CG-opt/Try1-1.4A-POS3A/HFTN-CG
REM
REM
REM
REM
REM
REM ./C.cell (11c1c37f851c82e70ff6c80c92926a4b)
REM
REM compiler GCC version 9.2.1 20190827 (Red Hat 9.2.1-1)
REM options -cpp -mtune=generic -march=x86-64 -g -O0 -fpre-include=/usr/include/finclude/math-vector-fortran.h
REM seed -1460813635 380798821 1682870549 -1148490723 1541929185 -498792503 1759734957 -657769294 -957154930 2081544745 101875983 -2114284808 814982646 465985510 312081595 -2066562463 -1976310206 -1042092405 -989656992 -1348226876 265179764 -1656037056 -1094920055 -275590673 -764479913 -1716064791 342057371 -1631377407 -1512125780 30668293 53323210 548420696 -452509337
REM
CELL 1.54180   50.00000   50.00000   50.00000   90.00000   90.00000   90.00000
LATT -1
SFAC C  
C      1  0.5018680000000  0.5141340000000  0.4110110000000 1.0
C      1  0.4722460000000  0.4942940000000  0.5036830000000 1.0
C      1  0.5330410000000  0.5230470000000  0.4126570000000 1.0
C      1  0.4729570000000  0.4688310000000  0.4381700000000 1.0
C      1  0.4914110000000  0.4474290000000  0.5068780000000 1.0
C      1  0.5450830000000  0.5375060000000  0.5321400000000 1.0
C      1  0.5759480000000  0.5406710000000  0.4742890000000 1.0
C      1  0.5274250000000  0.4299220000000  0.5509120000000 1.0
C      1  0.5009980000000  0.4264080000000  0.4301150000000 1.0
C      1  0.4927000000000  0.4506030000000  0.4194470000000 1.0
C      1  0.5600680000000  0.4448600000000  0.4985950000000 1.0
C      1  0.4414570000000  0.4697060000000  0.5743980000000 1.0
C      1  0.5057460000000  0.3844290000000  0.5085060000000 1.0
C      1  0.5620340000000  0.5621660000000  0.4564060000000 1.0
C      1  0.4767990000000  0.4702970000000  0.5273640000000 1.0
C      1  0.4428980000000  0.4873720000000  0.4197660000000 1.0
C      1  0.4998450000000  0.5481530000000  0.4319960000000 1.0
C      1  0.5564850000000  0.5670020000000  0.5342330000000 1.0
C      1  0.4335710000000  0.4627750000000  0.4411500000000 1.0
C      1  0.4869570000000  0.4771890000000  0.5989950000000 1.0
C      1  0.4955180000000  0.5180000000000  0.5095490000000 1.0
C      1  0.4484720000000  0.4404570000000  0.4515200000000 1.0
C      1  0.4523610000000  0.5070440000000  0.5356930000000 1.0
C      1  0.4852070000000  0.5337630000000  0.4745410000000 1.0
C      1  0.4384290000000  0.4669260000000  0.4914280000000 1.0
C      1  0.4694380000000  0.4408030000000  0.5426320000000 1.0
C      1  0.4188810000000  0.5450950000000  0.4723320000000 1.0
C      1  0.4804030000000  0.4449240000000  0.4587150000000 1.0
C      1  0.4239200000000  0.5289130000000  0.4426900000000 1.0
C      1  0.4438720000000  0.5057420000000  0.4966270000000 1.0
C      1  0.4760970000000  0.4916370000000  0.4143770000000 1.0
C      1  0.5311690000000  0.4994400000000  0.4448920000000 1.0
C      1  0.5276070000000  0.5776600000000  0.4897420000000 1.0
C      1  0.5574490000000  0.4777990000000  0.5560860000000 1.0
C      1  0.4585770000000  0.4182680000000  0.4752800000000 1.0
C      1  0.5578080000000  0.5294250000000  0.4919150000000 1.0
C      1  0.5142100000000  0.5887730000000  0.4633370000000 1.0
C      1  0.5534600000000  0.4440450000000  0.5572740000000 1.0
C      1  0.4838020000000  0.5532320000000  0.5357000000000 1.0
C      1  0.5128860000000  0.5265880000000  0.4548300000000 1.0
C      1  0.5918120000000  0.5186260000000  0.4607710000000 1.0
C      1  0.5193970000000  0.4954540000000  0.4828160000000 1.0
C      1  0.5174690000000  0.5384370000000  0.5752690000000 1.0
C      1  0.5277830000000  0.5269830000000  0.4854010000000 1.0
C      1  0.5592290000000  0.4431500000000  0.4361220000000 1.0
C      1  0.5313020000000  0.4452870000000  0.4857820000000 1.0
C      1  0.4754900000000  0.5343550000000  0.4154340000000 1.0
C      1  0.4837820000000  0.5616330000000  0.4884850000000 1.0
C      1  0.4279920000000  0.5624450000000  0.5323930000000 1.0
C      1  0.5125670000000  0.5909320000000  0.5340490000000 1.0
C      1  0.5361790000000  0.4632830000000  0.5793570000000 1.0
C      1  0.4885690000000  0.5111340000000  0.5972460000000 1.0
C      1  0.5112680000000  0.4989750000000  0.5763600000000 1.0
C      1  0.4212460000000  0.4410430000000  0.5412550000000 1.0
C      1  0.5268290000000  0.4085910000000  0.5063000000000 1.0
C      1  0.4189550000000  0.5054720000000  0.5347940000000 1.0
C      1  0.4589350000000  0.5926600000000  0.4848300000000 1.0
C      1  0.4438210000000  0.5462250000000  0.4956720000000 1.0
C      1  0.4147420000000  0.5363860000000  0.5212760000000 1.0
C      1  0.4457030000000  0.5528630000000  0.4531050000000 1.0
C      1  0.5919970000000  0.4914390000000  0.5179390000000 1.0
C      1  0.6028110000000  0.4730050000000  0.4914380000000 1.0
C      1  0.4074280000000  0.5249760000000  0.5601520000000 1.0
C      1  0.5607450000000  0.4774890000000  0.4616620000000 1.0
C      1  0.5707380000000  0.4420440000000  0.5299080000000 1.0
C      1  0.4050180000000  0.5036550000000  0.4418590000000 1.0
C      1  0.4975660000000  0.5261370000000  0.5509770000000 1.0
C      1  0.5277660000000  0.4624270000000  0.5137950000000 1.0
C      1  0.4994430000000  0.6157380000000  0.4708320000000 1.0
C      1  0.5181930000000  0.5896380000000  0.5657790000000 1.0
C      1  0.4107220000000  0.4776500000000  0.4526470000000 1.0
C      1  0.5201330000000  0.5376750000000  0.5141960000000 1.0
C      1  0.5802680000000  0.4561990000000  0.4778940000000 1.0
C      1  0.4607330000000  0.4364630000000  0.5039240000000 1.0
C      1  0.5294800000000  0.4538180000000  0.4344210000000 1.0
C      1  0.4849400000000  0.4066980000000  0.4934150000000 1.0
C      1  0.5748680000000  0.5068260000000  0.5673880000000 1.0
C      1  0.5180530000000  0.4326430000000  0.5212610000000 1.0
C      1  0.5146080000000  0.4054270000000  0.4761260000000 1.0
C      1  0.4530660000000  0.5248350000000  0.4708950000000 1.0
C      1  0.5835530000000  0.4994480000000  0.4859900000000 1.0
C      1  0.5865440000000  0.4699600000000  0.5399100000000 1.0
C      1  0.5463200000000  0.5341780000000  0.5630160000000 1.0
C      1  0.4199130000000  0.4742870000000  0.5483230000000 1.0
C      1  0.4443500000000  0.5779890000000  0.5068640000000 1.0
C      1  0.4869740000000  0.4998230000000  0.4735390000000 1.0
C      1  0.4917180000000  0.5037810000000  0.4411120000000 1.0
C      1  0.5499310000000  0.4103410000000  0.4814070000000 1.0
C      1  0.5357740000000  0.4891920000000  0.4142420000000 1.0
C      1  0.5869610000000  0.5430320000000  0.5255260000000 1.0
C      1  0.4140680000000  0.4966860000000  0.5022130000000 1.0
C      1  0.5421470000000  0.5874240000000  0.5449760000000 1.0
C      1  0.5213740000000  0.4298290000000  0.4571240000000 1.0
C      1  0.5679310000000  0.5153790000000  0.5200890000000 1.0
C      1  0.4992900000000  0.4167350000000  0.5527150000000 1.0
C      1  0.4083100000000  0.5279920000000  0.4949100000000 1.0
C      1  0.4819650000000  0.5579480000000  0.5693340000000 1.0
C      1  0.4652640000000  0.5724690000000  0.4621080000000 1.0
C      1  0.5207100000000  0.5194760000000  0.6024890000000 1.0
C      1  0.5471620000000  0.4890320000000  0.5256770000000 1.0
C      1  0.5212000000000  0.4724270000000  0.4586410000000 1.0
C      1  0.5317210000000  0.5696990000000  0.4425170000000 1.0
C      1  0.5006330000000  0.4797480000000  0.5504090000000 1.0
C      1  0.5073440000000  0.5684160000000  0.5795300000000 1.0
C      1  0.4743500000000  0.6149280000000  0.4827440000000 1.0
C      1  0.4303200000000  0.4290910000000  0.5184930000000 1.0
C      1  0.5561670000000  0.5729590000000  0.4868780000000 1.0
C      1  0.5730080000000  0.5677470000000  0.5092780000000 1.0
C      1  0.5516920000000  0.4899900000000  0.4919690000000 1.0
C      1  0.4828050000000  0.4138220000000  0.5266220000000 1.0
C      1  0.5155180000000  0.4658180000000  0.4062710000000 1.0
C      1  0.4088990000000  0.4751380000000  0.4804280000000 1.0
C      1  0.5664980000000  0.4140820000000  0.5108860000000 1.0
C      1  0.5000340000000  0.4561940000000  0.4780740000000 1.0
C      1  0.4113360000000  0.5502690000000  0.5585170000000 1.0
C      1  0.4652520000000  0.5312740000000  0.5175400000000 1.0
C      1  0.5793490000000  0.5337530000000  0.5536360000000 1.0
C      1  0.4700890000000  0.5088860000000  0.5618720000000 1.0
C      1  0.5620690000000  0.4758320000000  0.4286590000000 1.0
C      1  0.4622300000000  0.4853830000000  0.5821630000000 1.0
C      1  0.4588140000000  0.5746310000000  0.5359160000000 1.0
C      1  0.4611930000000  0.4781490000000  0.4687450000000 1.0
C      1  0.4723580000000  0.5347770000000  0.5821160000000 1.0
C      1  0.4505360000000  0.5211410000000  0.4230120000000 1.0
C      1  0.4943870000000  0.4493320000000  0.5610570000000 1.0
C      1  0.5252740000000  0.5558430000000  0.4121450000000 1.0
C      1  0.5054870000000  0.5670780000000  0.5134350000000 1.0
C      1  0.5650570000000  0.4312450000000  0.4615150000000 1.0
C      1  0.5097900000000  0.4872800000000  0.5125200000000 1.0
C      1  0.5198410000000  0.5049870000000  0.5381510000000 1.0
C      1  0.4312600000000  0.4348960000000  0.4868330000000 1.0
C      1  0.5605410000000  0.5104670000000  0.4533640000000 1.0
C      1  0.5077480000000  0.4606230000000  0.5861600000000 1.0
C      1  0.4434510000000  0.4759660000000  0.5238410000000 1.0
C      1  0.4440810000000  0.4444760000000  0.5591090000000 1.0
C      1  0.4522030000000  0.5014340000000  0.4492930000000 1.0
C      1  0.4920910000000  0.5728680000000  0.4472320000000 1.0
C      1  0.5428090000000  0.5375460000000  0.4429220000000 1.0
C      1  0.5415530000000  0.5027620000000  0.5728470000000 1.0
END
