TITL C-2848502-4955-1 0.00207683726005556 125000 -917.062159888079 0 0 174 (C1) n - 1
REM
REM in /home/bkarasulu/work/CARBON/AIRSS/Generating-Clusters/AIREBO/with-SteepDescent/Only-C1/SD-CG-opt/Try1-1.4A-POS3A/HFTN-CG
REM
REM
REM
REM
REM
REM ./C.cell (11c1c37f851c82e70ff6c80c92926a4b)
REM
REM compiler GCC version 9.2.1 20190827 (Red Hat 9.2.1-1)
REM options -cpp -mtune=generic -march=x86-64 -g -O0 -fpre-include=/usr/include/finclude/math-vector-fortran.h
REM seed -1926404233 610806567 1397358261 1772188597 -2128228514 1193712010 1874474655 -774278009 -1785780371 -1137693164 1415293995 -1882977871 1488483485 1794343011 -745463698 -915668585 250416286 1332240543 -1625749916 841731353 -1198608368 1711645927 -488865350 -1475527709 1852822019 -1657593535 -715936755 767086604 476285574 -896206236 -1055285314 -1547252824 1108386565
REM
CELL 1.54180   50.00000   50.00000   50.00000   90.00000   90.00000   90.00000
LATT -1
SFAC C  
C      1  0.4357660000000  0.5029280000000  0.5898530000000 1.0
C      1  0.4350340000000  0.4701920000000  0.5308910000000 1.0
C      1  0.4927750000000  0.4948450000000  0.4250700000000 1.0
C      1  0.5813900000000  0.5573650000000  0.4492180000000 1.0
C      1  0.6019090000000  0.5144590000000  0.5065760000000 1.0
C      1  0.4987430000000  0.4146420000000  0.4431740000000 1.0
C      1  0.5523800000000  0.5141280000000  0.3853670000000 1.0
C      1  0.5958760000000  0.4715170000000  0.4549080000000 1.0
C      1  0.5639610000000  0.5860190000000  0.5043820000000 1.0
C      1  0.5870630000000  0.5498530000000  0.5275590000000 1.0
C      1  0.5528920000000  0.4884340000000  0.4076540000000 1.0
C      1  0.4280800000000  0.5234880000000  0.4962120000000 1.0
C      1  0.4286020000000  0.4131100000000  0.5054050000000 1.0
C      1  0.4832170000000  0.5270020000000  0.5307660000000 1.0
C      1  0.5583360000000  0.5558800000000  0.4280140000000 1.0
C      1  0.5430160000000  0.4063200000000  0.4730100000000 1.0
C      1  0.5339490000000  0.5599070000000  0.4471110000000 1.0
C      1  0.5035360000000  0.4396730000000  0.5058630000000 1.0
C      1  0.5091210000000  0.4098530000000  0.5364480000000 1.0
C      1  0.5438400000000  0.5480140000000  0.5609310000000 1.0
C      1  0.5027650000000  0.4874440000000  0.6120960000000 1.0
C      1  0.5125980000000  0.4209780000000  0.4164670000000 1.0
C      1  0.5390770000000  0.5426630000000  0.4735980000000 1.0
C      1  0.4721000000000  0.5203920000000  0.5581780000000 1.0
C      1  0.4942050000000  0.4784280000000  0.5072170000000 1.0
C      1  0.5214700000000  0.4567450000000  0.4825460000000 1.0
C      1  0.3910270000000  0.5374060000000  0.5301700000000 1.0
C      1  0.5497550000000  0.4515990000000  0.5830810000000 1.0
C      1  0.5447390000000  0.4904400000000  0.4406650000000 1.0
C      1  0.4058050000000  0.5119680000000  0.4558140000000 1.0
C      1  0.4748160000000  0.4527840000000  0.4960400000000 1.0
C      1  0.4987580000000  0.4421270000000  0.5391400000000 1.0
C      1  0.4432350000000  0.5732690000000  0.4640320000000 1.0
C      1  0.5407460000000  0.4032180000000  0.5377420000000 1.0
C      1  0.5529670000000  0.5293820000000  0.5157880000000 1.0
C      1  0.4458270000000  0.5211460000000  0.4234700000000 1.0
C      1  0.5474830000000  0.5020860000000  0.5355790000000 1.0
C      1  0.5525340000000  0.5249800000000  0.4234720000000 1.0
C      1  0.4883060000000  0.4655250000000  0.6012370000000 1.0
C      1  0.4948080000000  0.5503650000000  0.5722780000000 1.0
C      1  0.5570050000000  0.5247690000000  0.6005390000000 1.0
C      1  0.5224790000000  0.5957400000000  0.5311640000000 1.0
C      1  0.5385490000000  0.4372360000000  0.5448210000000 1.0
C      1  0.4831840000000  0.5780160000000  0.5562000000000 1.0
C      1  0.5197320000000  0.5872040000000  0.4439550000000 1.0
C      1  0.4241570000000  0.4431530000000  0.5581000000000 1.0
C      1  0.4935940000000  0.5842560000000  0.4581290000000 1.0
C      1  0.5793910000000  0.5059570000000  0.4197900000000 1.0
C      1  0.5446520000000  0.5448920000000  0.3982550000000 1.0
C      1  0.4552330000000  0.4328130000000  0.4230150000000 1.0
C      1  0.4814230000000  0.4784730000000  0.5368540000000 1.0
C      1  0.4202910000000  0.4265240000000  0.4753730000000 1.0
C      1  0.4889480000000  0.5045960000000  0.5780270000000 1.0
C      1  0.4837320000000  0.5116850000000  0.6108720000000 1.0
C      1  0.4269240000000  0.5369190000000  0.4654080000000 1.0
C      1  0.5220590000000  0.5066080000000  0.3898230000000 1.0
C      1  0.5070880000000  0.5090640000000  0.5144810000000 1.0
C      1  0.3999320000000  0.4482530000000  0.5182000000000 1.0
C      1  0.4845830000000  0.4749730000000  0.4501820000000 1.0
C      1  0.5127760000000  0.5130860000000  0.4694010000000 1.0
C      1  0.5034940000000  0.4835000000000  0.4753520000000 1.0
C      1  0.4114620000000  0.4756250000000  0.5074190000000 1.0
C      1  0.5518740000000  0.4625000000000  0.4829350000000 1.0
C      1  0.4859800000000  0.5677520000000  0.4047450000000 1.0
C      1  0.4505280000000  0.5768430000000  0.5563640000000 1.0
C      1  0.5368620000000  0.4829330000000  0.5776830000000 1.0
C      1  0.5327490000000  0.4328920000000  0.5133990000000 1.0
C      1  0.5751140000000  0.4036210000000  0.4831900000000 1.0
C      1  0.4574410000000  0.5037110000000  0.4918470000000 1.0
C      1  0.5760380000000  0.5430310000000  0.4976600000000 1.0
C      1  0.4448810000000  0.5340430000000  0.5951020000000 1.0
C      1  0.4559610000000  0.4624880000000  0.4124910000000 1.0
C      1  0.4562240000000  0.4777800000000  0.5795280000000 1.0
C      1  0.5736980000000  0.5404890000000  0.5498540000000 1.0
C      1  0.5214620000000  0.4340380000000  0.5809590000000 1.0
C      1  0.4868840000000  0.5211120000000  0.4899300000000 1.0
C      1  0.4046420000000  0.4675380000000  0.5459070000000 1.0
C      1  0.4950510000000  0.4077450000000  0.5061110000000 1.0
C      1  0.5290390000000  0.5693940000000  0.5800100000000 1.0
C      1  0.4515720000000  0.4979640000000  0.5542810000000 1.0
C      1  0.4675850000000  0.4054770000000  0.5059360000000 1.0
C      1  0.5410940000000  0.5526380000000  0.5303450000000 1.0
C      1  0.5435460000000  0.4350770000000  0.4172790000000 1.0
C      1  0.5017160000000  0.4154060000000  0.5686110000000 1.0
C      1  0.4503230000000  0.5934940000000  0.5121210000000 1.0
C      1  0.4404070000000  0.5516130000000  0.4378550000000 1.0
C      1  0.5966040000000  0.5334860000000  0.4531970000000 1.0
C      1  0.5419040000000  0.4063200000000  0.5046410000000 1.0
C      1  0.5076570000000  0.4520690000000  0.4130520000000 1.0
C      1  0.5123000000000  0.5340790000000  0.4425990000000 1.0
C      1  0.4979630000000  0.4869510000000  0.3782330000000 1.0
C      1  0.5045150000000  0.5609240000000  0.6016020000000 1.0
C      1  0.5994140000000  0.4736700000000  0.5012990000000 1.0
C      1  0.4610550000000  0.5485220000000  0.5710480000000 1.0
C      1  0.5098790000000  0.4529530000000  0.4445720000000 1.0
C      1  0.5522410000000  0.4225950000000  0.4472250000000 1.0
C      1  0.5186580000000  0.4604610000000  0.5597380000000 1.0
C      1  0.5732880000000  0.4577650000000  0.4575920000000 1.0
C      1  0.6010700000000  0.5167580000000  0.4310170000000 1.0
C      1  0.5640190000000  0.4565660000000  0.4035740000000 1.0
C      1  0.5732050000000  0.5108620000000  0.5517470000000 1.0
C      1  0.4375150000000  0.4906180000000  0.4174750000000 1.0
C      1  0.4328680000000  0.4305150000000  0.5323550000000 1.0
C      1  0.5458570000000  0.5823580000000  0.5235960000000 1.0
C      1  0.4223180000000  0.4557050000000  0.4662230000000 1.0
C      1  0.4714190000000  0.4420830000000  0.5890040000000 1.0
C      1  0.5782780000000  0.4524830000000  0.4997930000000 1.0
C      1  0.5200670000000  0.5094170000000  0.5908500000000 1.0
C      1  0.4765200000000  0.5675260000000  0.4435590000000 1.0
C      1  0.4735670000000  0.5178780000000  0.4261450000000 1.0
C      1  0.5525720000000  0.5121810000000  0.4660800000000 1.0
C      1  0.5615700000000  0.5967010000000  0.4628140000000 1.0
C      1  0.5808900000000  0.4202750000000  0.5041580000000 1.0
C      1  0.4681500000000  0.5338710000000  0.6154110000000 1.0
C      1  0.4808380000000  0.5385720000000  0.4477940000000 1.0
C      1  0.5749130000000  0.4721020000000  0.5743670000000 1.0
C      1  0.4696070000000  0.4230110000000  0.4499140000000 1.0
C      1  0.5166920000000  0.5294310000000  0.5635490000000 1.0
C      1  0.5202620000000  0.4741410000000  0.5286430000000 1.0
C      1  0.4413760000000  0.4492400000000  0.5795190000000 1.0
C      1  0.5937350000000  0.4747530000000  0.5535630000000 1.0
C      1  0.3943990000000  0.4309480000000  0.4970250000000 1.0
C      1  0.4181270000000  0.5201080000000  0.5283920000000 1.0
C      1  0.4357260000000  0.5824850000000  0.5325420000000 1.0
C      1  0.4625940000000  0.5723760000000  0.4911730000000 1.0
C      1  0.5094610000000  0.5466970000000  0.4900110000000 1.0
C      1  0.4398910000000  0.4740890000000  0.4888240000000 1.0
C      1  0.5847990000000  0.4922090000000  0.5257680000000 1.0
C      1  0.5517740000000  0.4698010000000  0.5257700000000 1.0
C      1  0.4441550000000  0.4432150000000  0.5025130000000 1.0
C      1  0.4137840000000  0.5596670000000  0.4870160000000 1.0
C      1  0.3895720000000  0.4944850000000  0.4984350000000 1.0
C      1  0.4276600000000  0.5272240000000  0.5665800000000 1.0
C      1  0.4208030000000  0.4870670000000  0.4534080000000 1.0
C      1  0.4561900000000  0.5199290000000  0.4619880000000 1.0
C      1  0.5227720000000  0.4744740000000  0.3987110000000 1.0
C      1  0.5133410000000  0.5877050000000  0.5570740000000 1.0
C      1  0.4583610000000  0.4112630000000  0.5326260000000 1.0
C      1  0.4940750000000  0.5769320000000  0.4876330000000 1.0
C      1  0.4878190000000  0.4720440000000  0.5682710000000 1.0
C      1  0.4626500000000  0.5507180000000  0.5173920000000 1.0
C      1  0.5224690000000  0.5090800000000  0.4229560000000 1.0
C      1  0.5635730000000  0.5017940000000  0.5809510000000 1.0
C      1  0.6017900000000  0.4878020000000  0.4767620000000 1.0
C      1  0.5175190000000  0.4274250000000  0.4657480000000 1.0
C      1  0.4897280000000  0.5579380000000  0.5334510000000 1.0
C      1  0.4726220000000  0.4300370000000  0.5572190000000 1.0
C      1  0.5408700000000  0.6069260000000  0.4528970000000 1.0
C      1  0.5848290000000  0.5172670000000  0.4772870000000 1.0
C      1  0.4586310000000  0.4584340000000  0.5448100000000 1.0
C      1  0.4150390000000  0.5589530000000  0.5194360000000 1.0
C      1  0.5313670000000  0.5404590000000  0.5989990000000 1.0
C      1  0.5614150000000  0.4886780000000  0.5012730000000 1.0
C      1  0.4446100000000  0.4994610000000  0.5230500000000 1.0
C      1  0.4540980000000  0.4900290000000  0.4471750000000 1.0
C      1  0.4175880000000  0.4969590000000  0.5547770000000 1.0
C      1  0.4833410000000  0.4714370000000  0.4039580000000 1.0
C      1  0.5637230000000  0.5658700000000  0.4769950000000 1.0
C      1  0.5350290000000  0.5092440000000  0.4950800000000 1.0
C      1  0.5140060000000  0.5590650000000  0.5176420000000 1.0
C      1  0.5118160000000  0.5838910000000  0.4141440000000 1.0
C      1  0.5057200000000  0.5997250000000  0.5078650000000 1.0
C      1  0.4598160000000  0.5715010000000  0.4182580000000 1.0
C      1  0.3991670000000  0.5157750000000  0.4847930000000 1.0
C      1  0.4733840000000  0.4492260000000  0.4663400000000 1.0
C      1  0.5141840000000  0.5500090000000  0.4125890000000 1.0
C      1  0.4297380000000  0.4612570000000  0.4339910000000 1.0
C      1  0.4384080000000  0.5433440000000  0.5386290000000 1.0
C      1  0.5433270000000  0.4565620000000  0.4436460000000 1.0
C      1  0.5683560000000  0.4402140000000  0.5287300000000 1.0
C      1  0.4170710000000  0.5848320000000  0.4721360000000 1.0
C      1  0.4516690000000  0.4134250000000  0.4768260000000 1.0
C      1  0.4825680000000  0.5561840000000  0.6217450000000 1.0
C      1  0.5179300000000  0.5034190000000  0.5462220000000 1.0
END
