TITL C-2847949-8115-674 -0.00199537522767181 125000 -729.687433506719 0 0 133 (C1) n - 1
REM
REM in /home/bkarasulu/work/CARBON/AIRSS/Generating-Clusters/AIREBO/with-SteepDescent/Only-C1/SD-CG-opt/Try1-1.4A-POS3A/HFTN-CG
REM
REM
REM
REM
REM
REM ./C.cell (11c1c37f851c82e70ff6c80c92926a4b)
REM
REM compiler GCC version 9.2.1 20190827 (Red Hat 9.2.1-1)
REM options -cpp -mtune=generic -march=x86-64 -g -O0 -fpre-include=/usr/include/finclude/math-vector-fortran.h
REM seed 964923566 950679532 -828775318 1004432755 1504191771 1295864501 356355072 -870197886 1462057573 -1421681548 -405783848 -1469904242 209796712 -54023100 819204318 1458856025 -1482247773 -1455313786 -816197051 660885539 -680040080 -911667866 99489394 502507316 1250220173 1354343407 503714201 1137245554 -4516613 1127794881 120043622 743423274 1761777004
REM
CELL 1.54180   50.00000   50.00000   50.00000   90.00000   90.00000   90.00000
LATT -1
SFAC C  
C      1  0.4256650000000  0.4388580000000  0.5043800000000 1.0
C      1  0.5408830000000  0.4699060000000  0.6058240000000 1.0
C      1  0.4315280000000  0.4491060000000  0.5606930000000 1.0
C      1  0.4146110000000  0.5012050000000  0.5314660000000 1.0
C      1  0.4916630000000  0.5408990000000  0.4382980000000 1.0
C      1  0.4739010000000  0.5982080000000  0.4748140000000 1.0
C      1  0.5222880000000  0.4643910000000  0.4658270000000 1.0
C      1  0.5112040000000  0.4692310000000  0.4964600000000 1.0
C      1  0.5177050000000  0.5533450000000  0.4932880000000 1.0
C      1  0.5571310000000  0.4832040000000  0.4345480000000 1.0
C      1  0.4136120000000  0.5123140000000  0.5027350000000 1.0
C      1  0.5047420000000  0.5896810000000  0.4830420000000 1.0
C      1  0.4602590000000  0.5432690000000  0.5670210000000 1.0
C      1  0.5438110000000  0.5718970000000  0.4482580000000 1.0
C      1  0.5264080000000  0.4536300000000  0.5476510000000 1.0
C      1  0.5108420000000  0.4211760000000  0.4555820000000 1.0
C      1  0.5115500000000  0.4771570000000  0.4162640000000 1.0
C      1  0.4528060000000  0.4532760000000  0.5775110000000 1.0
C      1  0.5168880000000  0.5621130000000  0.4299410000000 1.0
C      1  0.5258210000000  0.4104410000000  0.4830850000000 1.0
C      1  0.5326490000000  0.4284460000000  0.4358400000000 1.0
C      1  0.4822130000000  0.5644790000000  0.4792450000000 1.0
C      1  0.4994720000000  0.4363160000000  0.5406710000000 1.0
C      1  0.5280320000000  0.5258590000000  0.4177730000000 1.0
C      1  0.4571220000000  0.4977960000000  0.4271810000000 1.0
C      1  0.5757140000000  0.5328560000000  0.4829440000000 1.0
C      1  0.4764430000000  0.4960720000000  0.4512250000000 1.0
C      1  0.4258820000000  0.5607020000000  0.4747430000000 1.0
C      1  0.4672150000000  0.5561460000000  0.4520890000000 1.0
C      1  0.5816240000000  0.5256920000000  0.4341580000000 1.0
C      1  0.5337630000000  0.4584140000000  0.4343850000000 1.0
C      1  0.5572120000000  0.4174700000000  0.4394240000000 1.0
C      1  0.4631110000000  0.4409620000000  0.4724610000000 1.0
C      1  0.4779400000000  0.4360800000000  0.5672580000000 1.0
C      1  0.5420420000000  0.4824220000000  0.5568010000000 1.0
C      1  0.5325070000000  0.5928670000000  0.4694160000000 1.0
C      1  0.4203560000000  0.4619920000000  0.4884720000000 1.0
C      1  0.5280120000000  0.3956750000000  0.5270060000000 1.0
C      1  0.4137910000000  0.5073120000000  0.5781270000000 1.0
C      1  0.5301240000000  0.4976990000000  0.4315920000000 1.0
C      1  0.4612880000000  0.6201960000000  0.4722530000000 1.0
C      1  0.4561030000000  0.5112320000000  0.5366140000000 1.0
C      1  0.4873540000000  0.4098350000000  0.4773940000000 1.0
C      1  0.4277550000000  0.5150540000000  0.4730670000000 1.0
C      1  0.5421560000000  0.5271470000000  0.5397410000000 1.0
C      1  0.5070540000000  0.6002350000000  0.5153510000000 1.0
C      1  0.5372270000000  0.4966770000000  0.5300970000000 1.0
C      1  0.5214640000000  0.4585840000000  0.5814150000000 1.0
C      1  0.4626140000000  0.5181930000000  0.5908370000000 1.0
C      1  0.5822260000000  0.4342580000000  0.5098260000000 1.0
C      1  0.4396440000000  0.5761480000000  0.4497010000000 1.0
C      1  0.4683380000000  0.4845610000000  0.4920410000000 1.0
C      1  0.4666350000000  0.5688070000000  0.5091600000000 1.0
C      1  0.5486060000000  0.6021120000000  0.4901450000000 1.0
C      1  0.4481010000000  0.4668480000000  0.4730900000000 1.0
C      1  0.4388360000000  0.4849670000000  0.5332650000000 1.0
C      1  0.5880240000000  0.5393610000000  0.5139780000000 1.0
C      1  0.5315120000000  0.5559700000000  0.5473670000000 1.0
C      1  0.4605150000000  0.5370270000000  0.4983150000000 1.0
C      1  0.4836770000000  0.4403970000000  0.4480460000000 1.0
C      1  0.4392350000000  0.5372260000000  0.4540800000000 1.0
C      1  0.4986480000000  0.5614880000000  0.5155810000000 1.0
C      1  0.4495810000000  0.4661420000000  0.4192120000000 1.0
C      1  0.4664000000000  0.4398260000000  0.4238330000000 1.0
C      1  0.5363140000000  0.5328800000000  0.4490470000000 1.0
C      1  0.4549530000000  0.4642220000000  0.5158320000000 1.0
C      1  0.5468220000000  0.5077330000000  0.5768820000000 1.0
C      1  0.4619580000000  0.4839490000000  0.5882690000000 1.0
C      1  0.5783340000000  0.5022360000000  0.4739320000000 1.0
C      1  0.4627810000000  0.4007390000000  0.4837290000000 1.0
C      1  0.3983520000000  0.4983930000000  0.5981200000000 1.0
C      1  0.5026500000000  0.5119820000000  0.4456360000000 1.0
C      1  0.4873980000000  0.4742100000000  0.5369090000000 1.0
C      1  0.5748730000000  0.4251840000000  0.4585080000000 1.0
C      1  0.4871980000000  0.4668410000000  0.5629320000000 1.0
C      1  0.6126340000000  0.4424500000000  0.4750260000000 1.0
C      1  0.4597600000000  0.5112580000000  0.4764770000000 1.0
C      1  0.4908040000000  0.5330060000000  0.4889340000000 1.0
C      1  0.4174630000000  0.5655450000000  0.5297660000000 1.0
C      1  0.4976800000000  0.5006680000000  0.4981140000000 1.0
C      1  0.4972260000000  0.4695890000000  0.4459570000000 1.0
C      1  0.4950250000000  0.4772060000000  0.5906890000000 1.0
C      1  0.4319120000000  0.4459810000000  0.5329490000000 1.0
C      1  0.5574790000000  0.4833360000000  0.5113270000000 1.0
C      1  0.4233480000000  0.5587880000000  0.5018130000000 1.0
C      1  0.4449890000000  0.5038870000000  0.5679060000000 1.0
C      1  0.5517680000000  0.4446110000000  0.5771520000000 1.0
C      1  0.5365350000000  0.5930980000000  0.5144190000000 1.0
C      1  0.5659320000000  0.5464850000000  0.4537620000000 1.0
C      1  0.4332780000000  0.5451480000000  0.5500860000000 1.0
C      1  0.5780830000000  0.4996130000000  0.4435650000000 1.0
C      1  0.5485860000000  0.4549270000000  0.4851910000000 1.0
C      1  0.4931640000000  0.5465210000000  0.5413020000000 1.0
C      1  0.4362690000000  0.5321560000000  0.5185610000000 1.0
C      1  0.4870410000000  0.5037790000000  0.5302580000000 1.0
C      1  0.5505970000000  0.5358000000000  0.5017750000000 1.0
C      1  0.4897230000000  0.5302650000000  0.5779380000000 1.0
C      1  0.5504380000000  0.4885400000000  0.4804100000000 1.0
C      1  0.4324830000000  0.4730040000000  0.4461140000000 1.0
C      1  0.5918050000000  0.4805260000000  0.4910360000000 1.0
C      1  0.5644390000000  0.4530810000000  0.5252180000000 1.0
C      1  0.5289440000000  0.5129690000000  0.5034290000000 1.0
C      1  0.5151500000000  0.5596030000000  0.5718700000000 1.0
C      1  0.5089680000000  0.5211680000000  0.5442670000000 1.0
C      1  0.4682250000000  0.4867100000000  0.3992170000000 1.0
C      1  0.4043370000000  0.4852560000000  0.4845090000000 1.0
C      1  0.5738940000000  0.5103640000000  0.5572550000000 1.0
C      1  0.4123470000000  0.5200840000000  0.5518820000000 1.0
C      1  0.5739160000000  0.5307580000000  0.5357080000000 1.0
C      1  0.4835070000000  0.5679800000000  0.5642390000000 1.0
C      1  0.4435150000000  0.4221220000000  0.4901020000000 1.0
C      1  0.5734230000000  0.4097490000000  0.5099730000000 1.0
C      1  0.5891350000000  0.4839910000000  0.5207370000000 1.0
C      1  0.4834120000000  0.4489980000000  0.5165970000000 1.0
C      1  0.5680950000000  0.4609890000000  0.5557240000000 1.0
C      1  0.4930290000000  0.4417830000000  0.4877470000000 1.0
C      1  0.5180550000000  0.5560060000000  0.4637560000000 1.0
C      1  0.5050320000000  0.5212410000000  0.3972870000000 1.0
C      1  0.4395920000000  0.5224320000000  0.4268970000000 1.0
C      1  0.5229300000000  0.5266200000000  0.5747020000000 1.0
C      1  0.5390300000000  0.5629030000000  0.5179860000000 1.0
C      1  0.5504740000000  0.4933270000000  0.6040340000000 1.0
C      1  0.5324490000000  0.4488090000000  0.5145050000000 1.0
C      1  0.5027470000000  0.5517190000000  0.4017810000000 1.0
C      1  0.4960440000000  0.4088760000000  0.5582830000000 1.0
C      1  0.5340100000000  0.4152700000000  0.5084520000000 1.0
C      1  0.4320620000000  0.5971580000000  0.4345260000000 1.0
C      1  0.4836280000000  0.5846270000000  0.5344370000000 1.0
C      1  0.4953620000000  0.4938010000000  0.3972210000000 1.0
C      1  0.5860980000000  0.4864600000000  0.5491640000000 1.0
C      1  0.5262770000000  0.5079650000000  0.4699020000000 1.0
C      1  0.4127290000000  0.4920040000000  0.4554490000000 1.0
C      1  0.5819490000000  0.4497680000000  0.4809060000000 1.0
END
