TITL C-2848500-1637-644 -0.00253756599378724 125000 -422.950808383189 0 0 78 (C1) n - 1
REM
REM in /home/bkarasulu/work/CARBON/AIRSS/Generating-Clusters/AIREBO/with-SteepDescent/Only-C1/SD-CG-opt/Try1-1.4A-POS3A/HFTN-CG
REM
REM
REM
REM
REM
REM ./C.cell (11c1c37f851c82e70ff6c80c92926a4b)
REM
REM compiler GCC version 9.2.1 20190827 (Red Hat 9.2.1-1)
REM options -cpp -mtune=generic -march=x86-64 -g -O0 -fpre-include=/usr/include/finclude/math-vector-fortran.h
REM seed -1267721571 -1752980967 1649556544 692622565 1957293483 584781307 -1275058795 815941507 306584375 -270484108 -1833021440 -2088276722 -1786902745 -415213085 -2065127682 -1918311444 -229504645 -1432155610 -288326597 -92397294 1096854138 149522832 1721225429 907931377 1872024129 -1916401385 1585560279 1667592053 -1402203351 1777081674 -1683080392 -450349445 241597329
REM
CELL 1.54180   50.00000   50.00000   50.00000   90.00000   90.00000   90.00000
LATT -1
SFAC C  
C      1  0.4507650000000  0.5439670000000  0.4996120000000 1.0
C      1  0.5438190000000  0.5503520000000  0.5578970000000 1.0
C      1  0.5055980000000  0.5995280000000  0.5075510000000 1.0
C      1  0.4691140000000  0.4914230000000  0.4265580000000 1.0
C      1  0.5115310000000  0.5763080000000  0.5227930000000 1.0
C      1  0.4466280000000  0.5177090000000  0.4626840000000 1.0
C      1  0.5103910000000  0.4322040000000  0.4230200000000 1.0
C      1  0.5170350000000  0.4232280000000  0.5375060000000 1.0
C      1  0.4524950000000  0.4617780000000  0.4277370000000 1.0
C      1  0.5076990000000  0.4182490000000  0.4480650000000 1.0
C      1  0.4991570000000  0.4884750000000  0.4142580000000 1.0
C      1  0.5415870000000  0.4413000000000  0.4733890000000 1.0
C      1  0.5493630000000  0.4699700000000  0.5565640000000 1.0
C      1  0.4991080000000  0.4497150000000  0.5292120000000 1.0
C      1  0.4374670000000  0.5709010000000  0.4931840000000 1.0
C      1  0.5094460000000  0.4820500000000  0.4669240000000 1.0
C      1  0.5310130000000  0.4192250000000  0.4640070000000 1.0
C      1  0.5573000000000  0.4999470000000  0.4973790000000 1.0
C      1  0.5066750000000  0.4599810000000  0.4222830000000 1.0
C      1  0.4509720000000  0.4585410000000  0.4913320000000 1.0
C      1  0.4622380000000  0.5061690000000  0.4815290000000 1.0
C      1  0.4773960000000  0.5419760000000  0.4894770000000 1.0
C      1  0.5381160000000  0.4737200000000  0.4634940000000 1.0
C      1  0.4814710000000  0.4211130000000  0.4600800000000 1.0
C      1  0.5143110000000  0.5145680000000  0.5028170000000 1.0
C      1  0.4002400000000  0.4471700000000  0.4939750000000 1.0
C      1  0.5471730000000  0.4865460000000  0.5269450000000 1.0
C      1  0.4378920000000  0.4798950000000  0.5301500000000 1.0
C      1  0.4961240000000  0.5081640000000  0.4795190000000 1.0
C      1  0.4258790000000  0.4520760000000  0.4916610000000 1.0
C      1  0.4694220000000  0.5481680000000  0.6100870000000 1.0
C      1  0.5411300000000  0.5383440000000  0.5833400000000 1.0
C      1  0.4768680000000  0.4227350000000  0.5679650000000 1.0
C      1  0.5551830000000  0.4484040000000  0.5684880000000 1.0
C      1  0.5591300000000  0.5350310000000  0.5400360000000 1.0
C      1  0.4860050000000  0.4704970000000  0.4473680000000 1.0
C      1  0.4715020000000  0.4358450000000  0.5434400000000 1.0
C      1  0.4858300000000  0.5836250000000  0.4641970000000 1.0
C      1  0.4798660000000  0.4485860000000  0.5012000000000 1.0
C      1  0.4670580000000  0.4421550000000  0.4465720000000 1.0
C      1  0.4982260000000  0.4797000000000  0.5452750000000 1.0
C      1  0.5696720000000  0.5076470000000  0.5412690000000 1.0
C      1  0.4566200000000  0.4811170000000  0.5647790000000 1.0
C      1  0.4786870000000  0.4194020000000  0.4887580000000 1.0
C      1  0.5075630000000  0.5105170000000  0.5343530000000 1.0
C      1  0.5127010000000  0.5568320000000  0.4292770000000 1.0
C      1  0.4687450000000  0.5422020000000  0.5852830000000 1.0
C      1  0.5654990000000  0.5120940000000  0.4711970000000 1.0
C      1  0.4827120000000  0.5944540000000  0.4909410000000 1.0
C      1  0.4955480000000  0.5424560000000  0.5368040000000 1.0
C      1  0.4700780000000  0.4779100000000  0.4764490000000 1.0
C      1  0.5450780000000  0.5244680000000  0.5145890000000 1.0
C      1  0.5012700000000  0.5520160000000  0.5046750000000 1.0
C      1  0.4846320000000  0.4797330000000  0.5689940000000 1.0
C      1  0.4491220000000  0.4569420000000  0.5465860000000 1.0
C      1  0.4834130000000  0.5328720000000  0.4598820000000 1.0
C      1  0.5648190000000  0.5686720000000  0.4689310000000 1.0
C      1  0.5264090000000  0.4632590000000  0.5134290000000 1.0
C      1  0.5211470000000  0.5625500000000  0.5474890000000 1.0
C      1  0.5315290000000  0.4990750000000  0.5544340000000 1.0
C      1  0.4937880000000  0.5604460000000  0.4496420000000 1.0
C      1  0.5803700000000  0.4540900000000  0.5033390000000 1.0
C      1  0.5485430000000  0.5481930000000  0.4697080000000 1.0
C      1  0.5534570000000  0.4664470000000  0.4929770000000 1.0
C      1  0.4696990000000  0.4138520000000  0.5174650000000 1.0
C      1  0.4617720000000  0.5183330000000  0.4379740000000 1.0
C      1  0.4699760000000  0.5635170000000  0.5285590000000 1.0
C      1  0.4698300000000  0.5330430000000  0.5569570000000 1.0
C      1  0.5480550000000  0.5268630000000  0.4456660000000 1.0
C      1  0.4481680000000  0.5375540000000  0.5311360000000 1.0
C      1  0.5152370000000  0.5111420000000  0.4121740000000 1.0
C      1  0.5320570000000  0.5124210000000  0.5823660000000 1.0
C      1  0.4518140000000  0.5075740000000  0.5443330000000 1.0
C      1  0.4625670000000  0.5813540000000  0.5071800000000 1.0
C      1  0.5301900000000  0.5427960000000  0.4924690000000 1.0
C      1  0.5267920000000  0.5327380000000  0.4258650000000 1.0
C      1  0.5005110000000  0.4720440000000  0.4962520000000 1.0
C      1  0.5537100000000  0.4940380000000  0.4482510000000 1.0
END
