TITL C-2848501-3133-496 -3.37631358153635e-07 125000 -136.934032037386 0 0 24 (C1) n - 1
REM
REM in /home/bkarasulu/work/CARBON/AIRSS/Generating-Clusters/AIREBO/with-SteepDescent/Only-C1/SD-CG-opt/Try1-1.4A-POS3A/HFTN-CG
REM
REM
REM
REM
REM
REM ./C.cell (11c1c37f851c82e70ff6c80c92926a4b)
REM
REM compiler GCC version 9.2.1 20190827 (Red Hat 9.2.1-1)
REM options -cpp -mtune=generic -march=x86-64 -g -O0 -fpre-include=/usr/include/finclude/math-vector-fortran.h
REM seed 762593161 714797175 656381445 -1229727571 1611053826 1231866423 21143298 1799668276 -706554589 473888005 -1312986179 -1791619476 444690843 744326765 -907225352 957354182 697747979 236632740 -151768455 1588617931 -1772512026 -909741374 -1966036029 1761129555 -960516588 -1711961325 -2062540694 709911143 -747539185 -756906879 1340552264 -1554357399 -2085770441
REM
CELL 1.54180   50.00000   50.00000   50.00000   90.00000   90.00000   90.00000
LATT -1
SFAC C  
C      1  0.5439340000000  0.5068740000000  0.5501400000000 1.0
C      1  0.4167300000000  0.5534470000000  0.4526950000000 1.0
C      1  0.5154870000000  0.4461150000000  0.4786310000000 1.0
C      1  0.5565560000000  0.5263100000000  0.4990750000000 1.0
C      1  0.4958350000000  0.4840660000000  0.5280790000000 1.0
C      1  0.4773800000000  0.5317170000000  0.5051150000000 1.0
C      1  0.4327900000000  0.5380690000000  0.4663920000000 1.0
C      1  0.5386390000000  0.5073350000000  0.5196620000000 1.0
C      1  0.6032700000000  0.5352260000000  0.4761570000000 1.0
C      1  0.5241250000000  0.4975930000000  0.5668980000000 1.0
C      1  0.5028280000000  0.4824890000000  0.5580450000000 1.0
C      1  0.5797090000000  0.5301590000000  0.4864640000000 1.0
C      1  0.4882920000000  0.4403720000000  0.4739820000000 1.0
C      1  0.4569300000000  0.5347840000000  0.4869920000000 1.0
C      1  0.4714110000000  0.4601490000000  0.4821290000000 1.0
C      1  0.5217790000000  0.4836510000000  0.5121500000000 1.0
C      1  0.4803980000000  0.4179500000000  0.4613690000000 1.0
C      1  0.4683650000000  0.4792030000000  0.5089490000000 1.0
C      1  0.4758860000000  0.5089000000000  0.5203310000000 1.0
C      1  0.5019400000000  0.5450890000000  0.5068270000000 1.0
C      1  0.4507600000000  0.4840770000000  0.4811700000000 1.0
C      1  0.4425830000000  0.5086770000000  0.4747490000000 1.0
C      1  0.5267180000000  0.4617360000000  0.4978760000000 1.0
C      1  0.5276550000000  0.5360130000000  0.5061230000000 1.0
END
