TITL C-2847945-6269-470 -0.00185348844983425 125000 -495.397197508184 0 0 93 (C1) n - 1
REM
REM in /home/bkarasulu/work/CARBON/AIRSS/Generating-Clusters/AIREBO/with-SteepDescent/Only-C1/SD-CG-opt/Try1-1.4A-POS3A/HFTN-CG
REM
REM
REM
REM
REM
REM ./C.cell (11c1c37f851c82e70ff6c80c92926a4b)
REM
REM compiler GCC version 9.2.1 20190827 (Red Hat 9.2.1-1)
REM options -cpp -mtune=generic -march=x86-64 -g -O0 -fpre-include=/usr/include/finclude/math-vector-fortran.h
REM seed 709560835 -323348949 1098636143 -942886981 -890348662 1880855906 1000562425 1616710646 1195606932 -115456880 -1336371544 -1456633175 -1323139762 -617257420 1008548380 1539754042 1453089986 845848202 1179944412 395009606 1512920358 -1532582966 1644343630 1559380617 646563690 -1031244397 -199134989 -1681574029 -1441354174 -2040508172 1758023709 1115944089 2058842549
REM
CELL 1.54180   50.00000   50.00000   50.00000   90.00000   90.00000   90.00000
LATT -1
SFAC C  
C      1  0.4480360000000  0.4438010000000  0.5548110000000 1.0
C      1  0.4623240000000  0.5774090000000  0.4602030000000 1.0
C      1  0.4761040000000  0.5218850000000  0.5379820000000 1.0
C      1  0.4786790000000  0.4139450000000  0.4914940000000 1.0
C      1  0.5330910000000  0.5436440000000  0.4529800000000 1.0
C      1  0.4783700000000  0.4812980000000  0.5476260000000 1.0
C      1  0.4517100000000  0.4227890000000  0.4941660000000 1.0
C      1  0.5855580000000  0.4678650000000  0.4845420000000 1.0
C      1  0.5174140000000  0.5329040000000  0.5605660000000 1.0
C      1  0.5336120000000  0.5134220000000  0.5770320000000 1.0
C      1  0.5338700000000  0.4391460000000  0.4423690000000 1.0
C      1  0.5669440000000  0.5493260000000  0.5254970000000 1.0
C      1  0.5141460000000  0.5558110000000  0.4274970000000 1.0
C      1  0.4596490000000  0.4902860000000  0.4575930000000 1.0
C      1  0.5190520000000  0.5499050000000  0.5187310000000 1.0
C      1  0.5801250000000  0.5249650000000  0.5093570000000 1.0
C      1  0.4830710000000  0.4985600000000  0.5186700000000 1.0
C      1  0.5342440000000  0.4961670000000  0.4248050000000 1.0
C      1  0.5958140000000  0.5088630000000  0.5295550000000 1.0
C      1  0.4174800000000  0.5163920000000  0.4683170000000 1.0
C      1  0.4985440000000  0.5155340000000  0.4794850000000 1.0
C      1  0.4397120000000  0.4420280000000  0.5110210000000 1.0
C      1  0.4994780000000  0.4628280000000  0.4374500000000 1.0
C      1  0.4813730000000  0.5817630000000  0.5036300000000 1.0
C      1  0.4470490000000  0.5299690000000  0.4183530000000 1.0
C      1  0.5593210000000  0.5092490000000  0.5654410000000 1.0
C      1  0.5199970000000  0.4636770000000  0.5212010000000 1.0
C      1  0.5149410000000  0.4178940000000  0.4429010000000 1.0
C      1  0.4887030000000  0.5308690000000  0.5622930000000 1.0
C      1  0.4860210000000  0.4602380000000  0.4079180000000 1.0
C      1  0.5908370000000  0.4809570000000  0.5272200000000 1.0
C      1  0.4173510000000  0.5113740000000  0.5003300000000 1.0
C      1  0.4756330000000  0.4330940000000  0.5380740000000 1.0
C      1  0.5030230000000  0.4484360000000  0.4655570000000 1.0
C      1  0.5056090000000  0.4766750000000  0.5652540000000 1.0
C      1  0.5076710000000  0.5907060000000  0.5117940000000 1.0
C      1  0.4243640000000  0.5523200000000  0.4682300000000 1.0
C      1  0.5242110000000  0.5231670000000  0.4273010000000 1.0
C      1  0.5593210000000  0.4868690000000  0.4626280000000 1.0
C      1  0.5407250000000  0.4268070000000  0.5183820000000 1.0
C      1  0.5308050000000  0.5804990000000  0.4958590000000 1.0
C      1  0.5314660000000  0.5619190000000  0.5630330000000 1.0
C      1  0.5152130000000  0.5394600000000  0.4884890000000 1.0
C      1  0.5101100000000  0.4865980000000  0.4749860000000 1.0
C      1  0.5110300000000  0.4908940000000  0.5084020000000 1.0
C      1  0.4466700000000  0.5968000000000  0.5330790000000 1.0
C      1  0.4942040000000  0.5307870000000  0.4147740000000 1.0
C      1  0.5143360000000  0.5659240000000  0.4705430000000 1.0
C      1  0.5295750000000  0.4740630000000  0.4502250000000 1.0
C      1  0.5597780000000  0.5077620000000  0.4894500000000 1.0
C      1  0.4901050000000  0.4636660000000  0.4883320000000 1.0
C      1  0.5318070000000  0.4332110000000  0.5604820000000 1.0
C      1  0.5433180000000  0.4539700000000  0.5018670000000 1.0
C      1  0.4479990000000  0.5305240000000  0.5372380000000 1.0
C      1  0.4420920000000  0.5510000000000  0.5186330000000 1.0
C      1  0.4503380000000  0.5486560000000  0.4465760000000 1.0
C      1  0.5571110000000  0.4772850000000  0.5584870000000 1.0
C      1  0.5358440000000  0.4505830000000  0.4740200000000 1.0
C      1  0.4476990000000  0.5042640000000  0.5599420000000 1.0
C      1  0.4694830000000  0.5025980000000  0.4877500000000 1.0
C      1  0.4910740000000  0.4146440000000  0.5170440000000 1.0
C      1  0.4310680000000  0.4814020000000  0.5410510000000 1.0
C      1  0.4574580000000  0.4678970000000  0.5243780000000 1.0
C      1  0.4939960000000  0.4182030000000  0.4674500000000 1.0
C      1  0.5308620000000  0.5152260000000  0.5029750000000 1.0
C      1  0.4508990000000  0.5225970000000  0.4674620000000 1.0
C      1  0.5770150000000  0.5258410000000  0.5488460000000 1.0
C      1  0.4827630000000  0.5511370000000  0.4381040000000 1.0
C      1  0.4568460000000  0.5764840000000  0.5181430000000 1.0
C      1  0.5552150000000  0.5333210000000  0.4674900000000 1.0
C      1  0.5184850000000  0.4113750000000  0.5202820000000 1.0
C      1  0.5560650000000  0.5743330000000  0.5051450000000 1.0
C      1  0.4265680000000  0.5424070000000  0.4968760000000 1.0
C      1  0.4131380000000  0.4520160000000  0.5065030000000 1.0
C      1  0.4552460000000  0.4728770000000  0.5709000000000 1.0
C      1  0.5385490000000  0.5560580000000  0.5359050000000 1.0
C      1  0.4737420000000  0.4817740000000  0.3965040000000 1.0
C      1  0.5853140000000  0.4670030000000  0.5506360000000 1.0
C      1  0.4877540000000  0.4545000000000  0.5166720000000 1.0
C      1  0.5162260000000  0.4923630000000  0.5851120000000 1.0
C      1  0.4839790000000  0.5755700000000  0.4760350000000 1.0
C      1  0.4438960000000  0.4901630000000  0.5025460000000 1.0
C      1  0.4289100000000  0.4920410000000  0.4540710000000 1.0
C      1  0.5467960000000  0.4923010000000  0.5315670000000 1.0
C      1  0.5287820000000  0.5144910000000  0.5353160000000 1.0
C      1  0.4632940000000  0.5277840000000  0.5753890000000 1.0
C      1  0.4772440000000  0.4467150000000  0.5692740000000 1.0
C      1  0.4760740000000  0.4855950000000  0.4343890000000 1.0
C      1  0.4725450000000  0.5101840000000  0.4128060000000 1.0
C      1  0.4134440000000  0.4780770000000  0.5000580000000 1.0
C      1  0.5646560000000  0.4785080000000  0.5061170000000 1.0
C      1  0.5283360000000  0.4622980000000  0.5505100000000 1.0
C      1  0.5616030000000  0.4915150000000  0.4340220000000 1.0
END
