TITL C-2847947-6848-103 0.00180029415669846 125000 -504.115602756171 0 0 94 (C1) n - 1
REM
REM in /home/bkarasulu/work/CARBON/AIRSS/Generating-Clusters/AIREBO/with-SteepDescent/Only-C1/SD-CG-opt/Try1-1.4A-POS3A/HFTN-CG
REM
REM
REM
REM
REM
REM ./C.cell (11c1c37f851c82e70ff6c80c92926a4b)
REM
REM compiler GCC version 9.2.1 20190827 (Red Hat 9.2.1-1)
REM options -cpp -mtune=generic -march=x86-64 -g -O0 -fpre-include=/usr/include/finclude/math-vector-fortran.h
REM seed -1247322180 2076453058 -1878675112 -1117939548 -1292399697 1822070046 -134448804 372898607 -1161534142 2393058 1545315670 -1093865466 -2029313644 877580820 973045697 777506169 1267949277 1853618201 -637896671 414743631 1915494711 -1914059531 -964467378 -651581688 1964821572 -89525722 407673244 -801345940 319254230 -1514598079 -92911334 -1404342130 895384982
REM
CELL 1.54180   50.00000   50.00000   50.00000   90.00000   90.00000   90.00000
LATT -1
SFAC C  
C      1  0.5418930000000  0.4523420000000  0.5791780000000 1.0
C      1  0.5092880000000  0.5450840000000  0.4237600000000 1.0
C      1  0.5235610000000  0.4312840000000  0.5193320000000 1.0
C      1  0.5456950000000  0.4212630000000  0.4981890000000 1.0
C      1  0.5020620000000  0.5624720000000  0.4523670000000 1.0
C      1  0.4903760000000  0.5466730000000  0.5736450000000 1.0
C      1  0.5334640000000  0.5622110000000  0.5620570000000 1.0
C      1  0.5783310000000  0.5432710000000  0.5547730000000 1.0
C      1  0.4741030000000  0.4094010000000  0.4854960000000 1.0
C      1  0.5465790000000  0.4687530000000  0.5510210000000 1.0
C      1  0.5186610000000  0.5159110000000  0.4208510000000 1.0
C      1  0.5007390000000  0.4766750000000  0.4770890000000 1.0
C      1  0.4809920000000  0.5542560000000  0.5232740000000 1.0
C      1  0.5392860000000  0.5215760000000  0.4545460000000 1.0
C      1  0.4339660000000  0.5054600000000  0.4983080000000 1.0
C      1  0.4783820000000  0.5234690000000  0.5086920000000 1.0
C      1  0.5101420000000  0.4910360000000  0.5945570000000 1.0
C      1  0.5199090000000  0.5614510000000  0.5198970000000 1.0
C      1  0.4506870000000  0.5375110000000  0.4595180000000 1.0
C      1  0.4460840000000  0.4166290000000  0.4971010000000 1.0
C      1  0.5517870000000  0.5051790000000  0.5878400000000 1.0
C      1  0.4762360000000  0.4256320000000  0.5133000000000 1.0
C      1  0.5090260000000  0.4784170000000  0.5057790000000 1.0
C      1  0.4405590000000  0.4554460000000  0.5278540000000 1.0
C      1  0.4298120000000  0.5168130000000  0.5289350000000 1.0
C      1  0.4843640000000  0.5320730000000  0.4334460000000 1.0
C      1  0.5537530000000  0.5380510000000  0.5089990000000 1.0
C      1  0.5602320000000  0.4349420000000  0.4705910000000 1.0
C      1  0.5203870000000  0.4367000000000  0.4288800000000 1.0
C      1  0.5113320000000  0.4969610000000  0.5646490000000 1.0
C      1  0.4493940000000  0.5040040000000  0.5745510000000 1.0
C      1  0.5307910000000  0.4577850000000  0.5038880000000 1.0
C      1  0.5026310000000  0.5637380000000  0.5477920000000 1.0
C      1  0.5583370000000  0.4691070000000  0.5129380000000 1.0
C      1  0.5244210000000  0.4429470000000  0.5513350000000 1.0
C      1  0.4580130000000  0.5816180000000  0.4921880000000 1.0
C      1  0.4875910000000  0.4726570000000  0.5247220000000 1.0
C      1  0.4954050000000  0.4307300000000  0.5384330000000 1.0
C      1  0.4468950000000  0.4662620000000  0.4445640000000 1.0
C      1  0.4794370000000  0.5057220000000  0.4254130000000 1.0
C      1  0.4831680000000  0.5737830000000  0.4998490000000 1.0
C      1  0.5873710000000  0.4911090000000  0.4765380000000 1.0
C      1  0.4311190000000  0.4621420000000  0.4734880000000 1.0
C      1  0.5540220000000  0.4777060000000  0.5892350000000 1.0
C      1  0.4862790000000  0.4891170000000  0.5495900000000 1.0
C      1  0.5425380000000  0.4974990000000  0.4330740000000 1.0
C      1  0.5461570000000  0.4731620000000  0.4436420000000 1.0
C      1  0.4489230000000  0.5768010000000  0.4539240000000 1.0
C      1  0.4814020000000  0.5178870000000  0.5398050000000 1.0
C      1  0.5541990000000  0.5299420000000  0.5384750000000 1.0
C      1  0.5688710000000  0.5130310000000  0.4941760000000 1.0
C      1  0.4124500000000  0.5056370000000  0.4568680000000 1.0
C      1  0.4731460000000  0.5793830000000  0.4463390000000 1.0
C      1  0.5740500000000  0.4592570000000  0.5355970000000 1.0
C      1  0.4676410000000  0.4559890000000  0.5110700000000 1.0
C      1  0.5108520000000  0.5032760000000  0.4584730000000 1.0
C      1  0.5239260000000  0.5437110000000  0.4936650000000 1.0
C      1  0.4850190000000  0.4524820000000  0.4626840000000 1.0
C      1  0.5772800000000  0.4650710000000  0.4738470000000 1.0
C      1  0.4561340000000  0.4947060000000  0.4420510000000 1.0
C      1  0.4654850000000  0.5515640000000  0.5534170000000 1.0
C      1  0.4267220000000  0.5384160000000  0.5025540000000 1.0
C      1  0.5044320000000  0.4863160000000  0.4296980000000 1.0
C      1  0.5440140000000  0.5310440000000  0.5708990000000 1.0
C      1  0.5126370000000  0.5738300000000  0.4826390000000 1.0
C      1  0.5597220000000  0.5476200000000  0.4769020000000 1.0
C      1  0.4645570000000  0.4415830000000  0.5479200000000 1.0
C      1  0.4653450000000  0.4821270000000  0.5703640000000 1.0
C      1  0.4850750000000  0.4211670000000  0.4640890000000 1.0
C      1  0.4961190000000  0.4567690000000  0.4320540000000 1.0
C      1  0.5440900000000  0.4634920000000  0.4761830000000 1.0
C      1  0.4634280000000  0.4498400000000  0.4292750000000 1.0
C      1  0.5212380000000  0.5057360000000  0.5103790000000 1.0
C      1  0.5256560000000  0.5901930000000  0.5099900000000 1.0
C      1  0.5709820000000  0.5181610000000  0.4626670000000 1.0
C      1  0.4822950000000  0.5378270000000  0.4649370000000 1.0
C      1  0.4632150000000  0.4543070000000  0.5723560000000 1.0
C      1  0.5514120000000  0.4985000000000  0.5141400000000 1.0
C      1  0.5432760000000  0.4430590000000  0.4421640000000 1.0
C      1  0.5137460000000  0.5277260000000  0.5610450000000 1.0
C      1  0.4384030000000  0.5576850000000  0.4801200000000 1.0
C      1  0.5119090000000  0.5297380000000  0.5293770000000 1.0
C      1  0.4256160000000  0.4833590000000  0.5305040000000 1.0
C      1  0.5395920000000  0.5000760000000  0.5459940000000 1.0
C      1  0.5028980000000  0.5211980000000  0.4862730000000 1.0
C      1  0.4636050000000  0.4985700000000  0.4934350000000 1.0
C      1  0.4776060000000  0.4982260000000  0.4645710000000 1.0
C      1  0.4171070000000  0.4898680000000  0.4789300000000 1.0
C      1  0.4496120000000  0.5243640000000  0.5500030000000 1.0
C      1  0.4322520000000  0.4417360000000  0.4993020000000 1.0
C      1  0.4365880000000  0.5166120000000  0.4469900000000 1.0
C      1  0.4626950000000  0.4661050000000  0.4828350000000 1.0
C      1  0.5343940000000  0.5520620000000  0.4539400000000 1.0
C      1  0.5451260000000  0.5779240000000  0.4719130000000 1.0
END
