TITL C-2847944-5688-596 0.00218298679331344 125000 -521.521961164322 0 0 93 (C1) n - 1
REM
REM in /home/bkarasulu/work/CARBON/AIRSS/Generating-Clusters/AIREBO/with-SteepDescent/Only-C1/SD-CG-opt/Try1-1.4A-POS3A/HFTN-CG
REM
REM
REM
REM
REM
REM ./C.cell (11c1c37f851c82e70ff6c80c92926a4b)
REM
REM compiler GCC version 9.2.1 20190827 (Red Hat 9.2.1-1)
REM options -cpp -mtune=generic -march=x86-64 -g -O0 -fpre-include=/usr/include/finclude/math-vector-fortran.h
REM seed 323322269 -1707689941 388319731 1463227561 486787886 1969986376 952984110 1414786260 348540984 -1807789372 445052522 -1474176543 -1602183592 -1388479830 -289956589 -197648785 -973740018 1990267820 -988423840 2092591746 -519505599 1737891196 -1404602117 -779168039 -1053808297 1116918718 371427616 319829435 -826311054 659432633 -1395642909 1513106925 351357284
REM
CELL 1.54180   50.00000   50.00000   50.00000   90.00000   90.00000   90.00000
LATT -1
SFAC C  
C      1  0.4693060000000  0.5226360000000  0.4718350000000 1.0
C      1  0.4789470000000  0.5780160000000  0.5357510000000 1.0
C      1  0.5600570000000  0.5001170000000  0.5619470000000 1.0
C      1  0.4799940000000  0.5412650000000  0.4450740000000 1.0
C      1  0.5746810000000  0.4497590000000  0.5652730000000 1.0
C      1  0.4327330000000  0.5386390000000  0.4236940000000 1.0
C      1  0.4690040000000  0.4997770000000  0.5699820000000 1.0
C      1  0.5187500000000  0.4689410000000  0.4950890000000 1.0
C      1  0.5652780000000  0.5241020000000  0.4659300000000 1.0
C      1  0.4334040000000  0.4881650000000  0.5321190000000 1.0
C      1  0.5571720000000  0.4854500000000  0.4618360000000 1.0
C      1  0.5308020000000  0.5220680000000  0.5213070000000 1.0
C      1  0.4571820000000  0.5507180000000  0.4264770000000 1.0
C      1  0.5011810000000  0.4996480000000  0.5642720000000 1.0
C      1  0.4909410000000  0.5046230000000  0.4563330000000 1.0
C      1  0.5066890000000  0.5325020000000  0.5711190000000 1.0
C      1  0.4907630000000  0.5613710000000  0.5609650000000 1.0
C      1  0.4494560000000  0.5141210000000  0.5162780000000 1.0
C      1  0.5542540000000  0.4491540000000  0.5384740000000 1.0
C      1  0.5690380000000  0.4514560000000  0.5088400000000 1.0
C      1  0.5691910000000  0.5869570000000  0.5225080000000 1.0
C      1  0.4507210000000  0.4501830000000  0.4559050000000 1.0
C      1  0.5160680000000  0.5154300000000  0.4702780000000 1.0
C      1  0.4965290000000  0.4754550000000  0.4478400000000 1.0
C      1  0.5298280000000  0.5480480000000  0.5070680000000 1.0
C      1  0.4029480000000  0.4758310000000  0.5411120000000 1.0
C      1  0.4217480000000  0.4457040000000  0.4684670000000 1.0
C      1  0.5302810000000  0.4970090000000  0.5816650000000 1.0
C      1  0.5476290000000  0.4986890000000  0.5094370000000 1.0
C      1  0.4945760000000  0.4428120000000  0.5544820000000 1.0
C      1  0.5883280000000  0.4745930000000  0.5238300000000 1.0
C      1  0.5019630000000  0.4738790000000  0.4160760000000 1.0
C      1  0.4346390000000  0.5105970000000  0.4876620000000 1.0
C      1  0.5770730000000  0.4967060000000  0.5059060000000 1.0
C      1  0.5110490000000  0.4133960000000  0.4800530000000 1.0
C      1  0.4976780000000  0.5508770000000  0.5025380000000 1.0
C      1  0.6160480000000  0.4704320000000  0.5219450000000 1.0
C      1  0.4235310000000  0.5222470000000  0.4447100000000 1.0
C      1  0.4343510000000  0.4352110000000  0.5156710000000 1.0
C      1  0.5341070000000  0.4931150000000  0.4825370000000 1.0
C      1  0.5162470000000  0.4341930000000  0.4611460000000 1.0
C      1  0.5003470000000  0.5123950000000  0.5330130000000 1.0
C      1  0.4641020000000  0.4366410000000  0.5130090000000 1.0
C      1  0.5419880000000  0.5265060000000  0.5735140000000 1.0
C      1  0.4765800000000  0.4969680000000  0.5169250000000 1.0
C      1  0.5171900000000  0.4226700000000  0.5114700000000 1.0
C      1  0.4249450000000  0.4663540000000  0.4428050000000 1.0
C      1  0.5401300000000  0.4678550000000  0.5862700000000 1.0
C      1  0.5004780000000  0.4747160000000  0.5197830000000 1.0
C      1  0.4238980000000  0.4562860000000  0.5286750000000 1.0
C      1  0.4757420000000  0.4843620000000  0.3971400000000 1.0
C      1  0.5757980000000  0.4443500000000  0.4796150000000 1.0
C      1  0.5427450000000  0.4958510000000  0.4356240000000 1.0
C      1  0.5007810000000  0.4576890000000  0.4722130000000 1.0
C      1  0.5514870000000  0.5556650000000  0.5680750000000 1.0
C      1  0.4852450000000  0.5590110000000  0.4719460000000 1.0
C      1  0.4543950000000  0.4937020000000  0.4682440000000 1.0
C      1  0.5539600000000  0.5500640000000  0.4840570000000 1.0
C      1  0.4474640000000  0.5557000000000  0.4768560000000 1.0
C      1  0.5374440000000  0.4469400000000  0.4448490000000 1.0
C      1  0.4356310000000  0.5578890000000  0.5389560000000 1.0
C      1  0.5092470000000  0.5805370000000  0.4786730000000 1.0
C      1  0.4722150000000  0.4651950000000  0.5049710000000 1.0
C      1  0.5467090000000  0.5470400000000  0.4515340000000 1.0
C      1  0.5057730000000  0.5292880000000  0.4288500000000 1.0
C      1  0.4847610000000  0.4117510000000  0.5016440000000 1.0
C      1  0.4302080000000  0.4939190000000  0.4467000000000 1.0
C      1  0.4874710000000  0.5039630000000  0.4224840000000 1.0
C      1  0.4366700000000  0.5308200000000  0.5429950000000 1.0
C      1  0.5360000000000  0.4965070000000  0.5410270000000 1.0
C      1  0.4034790000000  0.4168480000000  0.4696560000000 1.0
C      1  0.5058170000000  0.4693760000000  0.5494750000000 1.0
C      1  0.5175010000000  0.5490250000000  0.4679070000000 1.0
C      1  0.5061750000000  0.5986390000000  0.4981310000000 1.0
C      1  0.5608440000000  0.4553550000000  0.4599250000000 1.0
C      1  0.4200150000000  0.4262840000000  0.4942900000000 1.0
C      1  0.5002310000000  0.5442710000000  0.5335420000000 1.0
C      1  0.5303990000000  0.4701010000000  0.4274080000000 1.0
C      1  0.5563240000000  0.5692220000000  0.5098480000000 1.0
C      1  0.4476030000000  0.5051720000000  0.5551990000000 1.0
C      1  0.4577900000000  0.5644970000000  0.5231180000000 1.0
C      1  0.5356690000000  0.4460490000000  0.5106710000000 1.0
C      1  0.4275720000000  0.5337610000000  0.4713480000000 1.0
C      1  0.5785310000000  0.4771750000000  0.5534280000000 1.0
C      1  0.4902960000000  0.4280730000000  0.5309530000000 1.0
C      1  0.5809940000000  0.5027820000000  0.4781040000000 1.0
C      1  0.4179980000000  0.5752200000000  0.5492160000000 1.0
C      1  0.4920880000000  0.5991170000000  0.5220990000000 1.0
C      1  0.4655460000000  0.5398720000000  0.5009160000000 1.0
C      1  0.5367430000000  0.4677100000000  0.5554110000000 1.0
C      1  0.5238720000000  0.5567260000000  0.5549790000000 1.0
C      1  0.5327060000000  0.5228590000000  0.4347440000000 1.0
C      1  0.4682410000000  0.4673390000000  0.4742850000000 1.0
END
