TITL C-2848506-1665-503 -0.0014940888797497 125000 -260.259282199051 0 0 47 (C1) n - 1
REM
REM in /home/bkarasulu/work/CARBON/AIRSS/Generating-Clusters/AIREBO/with-SteepDescent/Only-C1/SD-CG-opt/Try1-1.4A-POS3A/HFTN-CG
REM
REM
REM
REM
REM
REM ./C.cell (11c1c37f851c82e70ff6c80c92926a4b)
REM
REM compiler GCC version 9.2.1 20190827 (Red Hat 9.2.1-1)
REM options -cpp -mtune=generic -march=x86-64 -g -O0 -fpre-include=/usr/include/finclude/math-vector-fortran.h
REM seed -1650953492 -1361186309 -1518591854 -459200568 1982917114 164316015 -1115147187 -1116808348 583658993 1539769988 571423773 1204161598 -669418818 -1854163910 542586072 -553642418 -432291342 2119075521 -1238699241 -1550818170 -1583265249 623824166 1820151180 -1885154327 -799942314 -1342875366 1526852638 217130142 -164710903 -1468589497 1847621702 1637371923 -1188567515
REM
CELL 1.54180   50.00000   50.00000   50.00000   90.00000   90.00000   90.00000
LATT -1
SFAC C  
C      1  0.4708210000000  0.4477300000000  0.5147440000000 1.0
C      1  0.4690290000000  0.5635990000000  0.4697950000000 1.0
C      1  0.4455970000000  0.5241400000000  0.5254100000000 1.0
C      1  0.4856060000000  0.4576570000000  0.5405630000000 1.0
C      1  0.4497730000000  0.4730080000000  0.5049580000000 1.0
C      1  0.4695100000000  0.4880030000000  0.5596060000000 1.0
C      1  0.5117070000000  0.4221880000000  0.4793560000000 1.0
C      1  0.5536000000000  0.4952590000000  0.5485220000000 1.0
C      1  0.4606650000000  0.5102430000000  0.4353450000000 1.0
C      1  0.5390650000000  0.4719860000000  0.5324770000000 1.0
C      1  0.4646680000000  0.5361830000000  0.4776210000000 1.0
C      1  0.4706770000000  0.5404000000000  0.5294080000000 1.0
C      1  0.4955190000000  0.4679930000000  0.4542080000000 1.0
C      1  0.4856090000000  0.5399460000000  0.5016270000000 1.0
C      1  0.5091920000000  0.4803600000000  0.5357360000000 1.0
C      1  0.5140210000000  0.5504330000000  0.4861630000000 1.0
C      1  0.5193600000000  0.5452480000000  0.5573140000000 1.0
C      1  0.4748590000000  0.5097410000000  0.5712120000000 1.0
C      1  0.5184130000000  0.5018390000000  0.4903370000000 1.0
C      1  0.5346950000000  0.4944230000000  0.4418260000000 1.0
C      1  0.5190340000000  0.5070490000000  0.4228540000000 1.0
C      1  0.4357700000000  0.5013250000000  0.5176740000000 1.0
C      1  0.4522780000000  0.4736950000000  0.4744630000000 1.0
C      1  0.4868950000000  0.4303730000000  0.4996480000000 1.0
C      1  0.5181210000000  0.4257410000000  0.5101450000000 1.0
C      1  0.5372510000000  0.5168530000000  0.5517400000000 1.0
C      1  0.4880220000000  0.5325730000000  0.5535980000000 1.0
C      1  0.4922830000000  0.5745220000000  0.4833100000000 1.0
C      1  0.5538360000000  0.5445430000000  0.5090750000000 1.0
C      1  0.5472710000000  0.4669470000000  0.5004090000000 1.0
C      1  0.4715980000000  0.4556310000000  0.4631070000000 1.0
C      1  0.5381160000000  0.5372780000000  0.4867960000000 1.0
C      1  0.4528930000000  0.5005280000000  0.4616010000000 1.0
C      1  0.5410890000000  0.5526780000000  0.5321770000000 1.0
C      1  0.5242050000000  0.4316720000000  0.4563150000000 1.0
C      1  0.4707060000000  0.4852620000000  0.5274290000000 1.0
C      1  0.5144630000000  0.5702510000000  0.5351890000000 1.0
C      1  0.4918900000000  0.4954590000000  0.4554390000000 1.0
C      1  0.4963060000000  0.4927850000000  0.5075240000000 1.0
C      1  0.4923710000000  0.5682940000000  0.5176620000000 1.0
C      1  0.4910410000000  0.5106300000000  0.4298280000000 1.0
C      1  0.5452400000000  0.4766130000000  0.4751880000000 1.0
C      1  0.4795190000000  0.5060100000000  0.4820280000000 1.0
C      1  0.5433880000000  0.5102450000000  0.4705390000000 1.0
C      1  0.5088280000000  0.5076490000000  0.5502120000000 1.0
C      1  0.5387520000000  0.4420930000000  0.5176590000000 1.0
C      1  0.5264480000000  0.4629220000000  0.4521630000000 1.0
END
