TITL C-2847951-7423-388 -0.00185866176224898 125000 -932.104993393061 0 0 181 (C1) n - 1
REM
REM in /home/bkarasulu/work/CARBON/AIRSS/Generating-Clusters/AIREBO/with-SteepDescent/Only-C1/SD-CG-opt/Try1-1.4A-POS3A/HFTN-CG
REM
REM
REM
REM
REM
REM ./C.cell (11c1c37f851c82e70ff6c80c92926a4b)
REM
REM compiler GCC version 9.2.1 20190827 (Red Hat 9.2.1-1)
REM options -cpp -mtune=generic -march=x86-64 -g -O0 -fpre-include=/usr/include/finclude/math-vector-fortran.h
REM seed 1413245623 -1798369151 726124870 -2017737976 -1752683440 -1164497764 -564555615 -845267266 1301093639 224477186 422930662 371376825 1549605552 -1273799056 1189950725 -1239658183 1936905330 -1018477486 -1284438856 490964303 -1492635262 1100548654 -942099467 -1248420193 1911869848 -88793736 1176381710 1164043143 2071927528 -943064985 1973173413 -1497084735 -1057958157
REM
CELL 1.54180   50.00000   50.00000   50.00000   90.00000   90.00000   90.00000
LATT -1
SFAC C  
C      1  0.5085700000000  0.4894000000000  0.5585430000000 1.0
C      1  0.5449320000000  0.4966820000000  0.5121060000000 1.0
C      1  0.4418520000000  0.4138520000000  0.4319870000000 1.0
C      1  0.5764990000000  0.4881980000000  0.5063090000000 1.0
C      1  0.5766600000000  0.4919270000000  0.5459090000000 1.0
C      1  0.4675930000000  0.5034840000000  0.5421660000000 1.0
C      1  0.4944620000000  0.4971760000000  0.4155880000000 1.0
C      1  0.4238350000000  0.5006040000000  0.5185800000000 1.0
C      1  0.4965020000000  0.4551370000000  0.5956570000000 1.0
C      1  0.4572550000000  0.4225730000000  0.5376930000000 1.0
C      1  0.5166820000000  0.5900680000000  0.5727180000000 1.0
C      1  0.5252930000000  0.5370740000000  0.5342120000000 1.0
C      1  0.5035380000000  0.3931500000000  0.4773770000000 1.0
C      1  0.4537750000000  0.5188640000000  0.5927710000000 1.0
C      1  0.5061940000000  0.4590690000000  0.4151150000000 1.0
C      1  0.5568970000000  0.5327650000000  0.4675490000000 1.0
C      1  0.4898900000000  0.5238930000000  0.4445410000000 1.0
C      1  0.4376370000000  0.4042040000000  0.4612070000000 1.0
C      1  0.5269400000000  0.5018490000000  0.4438190000000 1.0
C      1  0.4279410000000  0.5702860000000  0.4852490000000 1.0
C      1  0.4780980000000  0.4036460000000  0.5567730000000 1.0
C      1  0.4974500000000  0.4469090000000  0.5236140000000 1.0
C      1  0.5365020000000  0.5047600000000  0.5653020000000 1.0
C      1  0.4513340000000  0.5869210000000  0.5687200000000 1.0
C      1  0.4033960000000  0.5587880000000  0.5065370000000 1.0
C      1  0.5518270000000  0.5083580000000  0.5405910000000 1.0
C      1  0.5841400000000  0.5377590000000  0.5163140000000 1.0
C      1  0.4802030000000  0.5335840000000  0.4867420000000 1.0
C      1  0.5120320000000  0.4254880000000  0.4751010000000 1.0
C      1  0.4288540000000  0.4406900000000  0.5442650000000 1.0
C      1  0.5286440000000  0.4726950000000  0.5211340000000 1.0
C      1  0.5698490000000  0.5727640000000  0.4576660000000 1.0
C      1  0.4806260000000  0.4342730000000  0.4766070000000 1.0
C      1  0.5440180000000  0.5914110000000  0.5704520000000 1.0
C      1  0.4726070000000  0.6102520000000  0.5099530000000 1.0
C      1  0.4302830000000  0.4539570000000  0.4596910000000 1.0
C      1  0.5023030000000  0.5939950000000  0.5459110000000 1.0
C      1  0.3830830000000  0.5198280000000  0.4680900000000 1.0
C      1  0.4362290000000  0.5160230000000  0.5462630000000 1.0
C      1  0.4817910000000  0.5434390000000  0.5281660000000 1.0
C      1  0.4745310000000  0.4827880000000  0.3851580000000 1.0
C      1  0.5081150000000  0.4793760000000  0.3899940000000 1.0
C      1  0.5754200000000  0.5217510000000  0.4437090000000 1.0
C      1  0.4353010000000  0.5148030000000  0.4442380000000 1.0
C      1  0.3810980000000  0.4781350000000  0.5331430000000 1.0
C      1  0.4857010000000  0.6005130000000  0.4737420000000 1.0
C      1  0.5096080000000  0.3944190000000  0.5168290000000 1.0
C      1  0.4646320000000  0.5618440000000  0.4918890000000 1.0
C      1  0.5356700000000  0.4047910000000  0.5613330000000 1.0
C      1  0.6012410000000  0.5181890000000  0.5536670000000 1.0
C      1  0.5375030000000  0.3925780000000  0.4759250000000 1.0
C      1  0.4732480000000  0.5940170000000  0.5382120000000 1.0
C      1  0.4643860000000  0.4924390000000  0.5741670000000 1.0
C      1  0.4823300000000  0.3880060000000  0.5013250000000 1.0
C      1  0.5479350000000  0.5577070000000  0.4875090000000 1.0
C      1  0.4868480000000  0.4164710000000  0.5819690000000 1.0
C      1  0.4789110000000  0.5426920000000  0.3996790000000 1.0
C      1  0.5788570000000  0.4476840000000  0.5763010000000 1.0
C      1  0.5486300000000  0.4348000000000  0.5017810000000 1.0
C      1  0.4892110000000  0.3929910000000  0.4489510000000 1.0
C      1  0.4983310000000  0.5384940000000  0.5680030000000 1.0
C      1  0.4734830000000  0.4334810000000  0.5098670000000 1.0
C      1  0.5071610000000  0.5350580000000  0.5068730000000 1.0
C      1  0.4628280000000  0.5017200000000  0.5105080000000 1.0
C      1  0.4847600000000  0.5672860000000  0.4250240000000 1.0
C      1  0.4043980000000  0.4422920000000  0.4463960000000 1.0
C      1  0.5905920000000  0.5494930000000  0.4562190000000 1.0
C      1  0.5557400000000  0.5422560000000  0.5731570000000 1.0
C      1  0.5402690000000  0.4619930000000  0.4516910000000 1.0
C      1  0.5257080000000  0.5433160000000  0.5875810000000 1.0
C      1  0.4406460000000  0.5133410000000  0.4919040000000 1.0
C      1  0.5497320000000  0.5524790000000  0.4134130000000 1.0
C      1  0.5234090000000  0.5475810000000  0.3985150000000 1.0
C      1  0.4725690000000  0.5493920000000  0.4512400000000 1.0
C      1  0.5048490000000  0.6125020000000  0.4993530000000 1.0
C      1  0.4063140000000  0.5320690000000  0.5482530000000 1.0
C      1  0.4556950000000  0.3923220000000  0.5222440000000 1.0
C      1  0.4852710000000  0.4195420000000  0.4391840000000 1.0
C      1  0.5069890000000  0.4805440000000  0.4398770000000 1.0
C      1  0.4777660000000  0.4788720000000  0.4975470000000 1.0
C      1  0.4502490000000  0.4430550000000  0.4166950000000 1.0
C      1  0.5709850000000  0.4838720000000  0.4156210000000 1.0
C      1  0.5168430000000  0.5649190000000  0.4938000000000 1.0
C      1  0.4516700000000  0.5837370000000  0.5144630000000 1.0
C      1  0.3924800000000  0.5319950000000  0.5244370000000 1.0
C      1  0.5584600000000  0.5690750000000  0.5520250000000 1.0
C      1  0.4092180000000  0.5027510000000  0.4619370000000 1.0
C      1  0.4012840000000  0.5068040000000  0.4938860000000 1.0
C      1  0.5583660000000  0.4104430000000  0.5477860000000 1.0
C      1  0.4510030000000  0.3957480000000  0.4905910000000 1.0
C      1  0.4275180000000  0.5689420000000  0.5284610000000 1.0
C      1  0.5510600000000  0.5154240000000  0.5936090000000 1.0
C      1  0.5169410000000  0.4367610000000  0.5469960000000 1.0
C      1  0.4363570000000  0.4472360000000  0.5768440000000 1.0
C      1  0.5011650000000  0.4925080000000  0.5181990000000 1.0
C      1  0.4721610000000  0.5929830000000  0.4434720000000 1.0
C      1  0.3826880000000  0.5035920000000  0.5198810000000 1.0
C      1  0.4765420000000  0.4778040000000  0.4653120000000 1.0
C      1  0.5597490000000  0.5268530000000  0.4185750000000 1.0
C      1  0.5164420000000  0.5380060000000  0.4303990000000 1.0
C      1  0.5687830000000  0.5833960000000  0.4890540000000 1.0
C      1  0.5795250000000  0.4584290000000  0.4584130000000 1.0
C      1  0.5184420000000  0.4499950000000  0.4979600000000 1.0
C      1  0.4555740000000  0.4566850000000  0.4965330000000 1.0
C      1  0.4748370000000  0.4447580000000  0.5565370000000 1.0
C      1  0.5709320000000  0.4460000000000  0.4279960000000 1.0
C      1  0.4288540000000  0.4678860000000  0.5238200000000 1.0
C      1  0.6057170000000  0.4654290000000  0.5394340000000 1.0
C      1  0.5274940000000  0.4641400000000  0.6075020000000 1.0
C      1  0.5394230000000  0.4257600000000  0.3990230000000 1.0
C      1  0.4708960000000  0.5024180000000  0.6119670000000 1.0
C      1  0.4884930000000  0.5742090000000  0.5035350000000 1.0
C      1  0.5913190000000  0.4634050000000  0.4883700000000 1.0
C      1  0.5450000000000  0.4885530000000  0.6140220000000 1.0
C      1  0.5573610000000  0.4656550000000  0.4904440000000 1.0
C      1  0.5250460000000  0.5297880000000  0.4622610000000 1.0
C      1  0.5691410000000  0.4895450000000  0.4493960000000 1.0
C      1  0.5519770000000  0.5744060000000  0.4347210000000 1.0
C      1  0.5389350000000  0.6069600000000  0.5089310000000 1.0
C      1  0.5067730000000  0.4044630000000  0.5438670000000 1.0
C      1  0.5142290000000  0.4233040000000  0.5781140000000 1.0
C      1  0.4422060000000  0.4269980000000  0.4862310000000 1.0
C      1  0.4409930000000  0.4772220000000  0.5541820000000 1.0
C      1  0.5901940000000  0.4701980000000  0.4028540000000 1.0
C      1  0.5275170000000  0.5125340000000  0.4914570000000 1.0
C      1  0.4546260000000  0.5901590000000  0.3811000000000 1.0
C      1  0.4772500000000  0.5158250000000  0.3938230000000 1.0
C      1  0.5565340000000  0.4159690000000  0.4745920000000 1.0
C      1  0.4558380000000  0.4679500000000  0.4041680000000 1.0
C      1  0.4709980000000  0.4972370000000  0.4401200000000 1.0
C      1  0.5563420000000  0.5406460000000  0.5333130000000 1.0
C      1  0.5067050000000  0.5674390000000  0.5849550000000 1.0
C      1  0.4583730000000  0.4367010000000  0.4509990000000 1.0
C      1  0.5395230000000  0.4773250000000  0.4044270000000 1.0
C      1  0.4247750000000  0.4975910000000  0.5724620000000 1.0
C      1  0.5940980000000  0.5084970000000  0.5218700000000 1.0
C      1  0.4917960000000  0.4876030000000  0.5947440000000 1.0
C      1  0.4707110000000  0.5636270000000  0.5532560000000 1.0
C      1  0.4957380000000  0.4549770000000  0.4542680000000 1.0
C      1  0.4703020000000  0.5441310000000  0.5808570000000 1.0
C      1  0.4559570000000  0.5235330000000  0.4658180000000 1.0
C      1  0.4987300000000  0.5171460000000  0.5415220000000 1.0
C      1  0.6164150000000  0.4888010000000  0.5485860000000 1.0
C      1  0.5394610000000  0.5071470000000  0.4173160000000 1.0
C      1  0.5794400000000  0.5448840000000  0.4883390000000 1.0
C      1  0.5376930000000  0.4476390000000  0.4209700000000 1.0
C      1  0.5036200000000  0.5561700000000  0.4636410000000 1.0
C      1  0.4235310000000  0.4542490000000  0.4930440000000 1.0
C      1  0.5123240000000  0.4790120000000  0.4812790000000 1.0
C      1  0.5706350000000  0.4272910000000  0.4548480000000 1.0
C      1  0.5246030000000  0.5953880000000  0.4809060000000 1.0
C      1  0.4456070000000  0.6084170000000  0.3646000000000 1.0
C      1  0.5103160000000  0.5881620000000  0.4542730000000 1.0
C      1  0.4317790000000  0.5410250000000  0.5006200000000 1.0
C      1  0.5313240000000  0.4050640000000  0.5035160000000 1.0
C      1  0.5199440000000  0.5011400000000  0.5947800000000 1.0
C      1  0.4400550000000  0.5400830000000  0.5699840000000 1.0
C      1  0.3996790000000  0.4582270000000  0.5368190000000 1.0
C      1  0.4674460000000  0.4417500000000  0.5885400000000 1.0
C      1  0.5134970000000  0.5633270000000  0.5432790000000 1.0
C      1  0.5208880000000  0.4654420000000  0.5744970000000 1.0
C      1  0.4320860000000  0.4819690000000  0.4520420000000 1.0
C      1  0.4313060000000  0.5666860000000  0.5596430000000 1.0
C      1  0.5874200000000  0.5433110000000  0.5608320000000 1.0
C      1  0.4207170000000  0.4707900000000  0.5874460000000 1.0
C      1  0.5736870000000  0.4581860000000  0.5488630000000 1.0
C      1  0.5876750000000  0.5654450000000  0.5350150000000 1.0
C      1  0.5955050000000  0.4486850000000  0.5168100000000 1.0
C      1  0.4661760000000  0.5720500000000  0.3969410000000 1.0
C      1  0.5429880000000  0.4897220000000  0.4711780000000 1.0
C      1  0.4544860000000  0.5868150000000  0.4718630000000 1.0
C      1  0.5617640000000  0.5853900000000  0.5223350000000 1.0
C      1  0.5184300000000  0.5712330000000  0.4297210000000 1.0
C      1  0.5221530000000  0.5841270000000  0.5214320000000 1.0
C      1  0.4931430000000  0.5056320000000  0.4722830000000 1.0
C      1  0.4842990000000  0.4732740000000  0.5406000000000 1.0
C      1  0.5396860000000  0.4599180000000  0.5480520000000 1.0
C      1  0.5159100000000  0.4320320000000  0.4419270000000 1.0
C      1  0.4484020000000  0.5421010000000  0.5281430000000 1.0
C      1  0.5692470000000  0.4324890000000  0.5270380000000 1.0
C      1  0.4456250000000  0.4901000000000  0.4227310000000 1.0
END
