TITL C-2848501-3133-45 -0.00364973534194732 125000 -219.460595581387 0 0 40 (C1) n - 1
REM
REM in /home/bkarasulu/work/CARBON/AIRSS/Generating-Clusters/AIREBO/with-SteepDescent/Only-C1/SD-CG-opt/Try1-1.4A-POS3A/HFTN-CG
REM
REM
REM
REM
REM
REM ./C.cell (11c1c37f851c82e70ff6c80c92926a4b)
REM
REM compiler GCC version 9.2.1 20190827 (Red Hat 9.2.1-1)
REM options -cpp -mtune=generic -march=x86-64 -g -O0 -fpre-include=/usr/include/finclude/math-vector-fortran.h
REM seed 423179730 -1844362847 1334909724 1575916565 161621514 -1344011615 -1316201144 1570991441 319380217 -1620378877 694215134 -578146956 -156158145 -1891189986 1726953635 -203056439 -716010966 -2051370732 -1835249458 1472944544 1939097883 1077901444 -519562365 1194844588 -14862774 1951090149 1694429042 2113046193 731037973 -236049551 -320740967 -622572637 -460894088
REM
CELL 1.54180   50.00000   50.00000   50.00000   90.00000   90.00000   90.00000
LATT -1
SFAC C  
C      1  0.5873580000000  0.4734740000000  0.4958420000000 1.0
C      1  0.5008530000000  0.5610730000000  0.5173760000000 1.0
C      1  0.4818760000000  0.4672120000000  0.5380330000000 1.0
C      1  0.4643140000000  0.5339440000000  0.4906510000000 1.0
C      1  0.5233890000000  0.4753920000000  0.5024100000000 1.0
C      1  0.4534900000000  0.5096710000000  0.5369040000000 1.0
C      1  0.4828900000000  0.4481410000000  0.5134310000000 1.0
C      1  0.5121830000000  0.4599310000000  0.5260710000000 1.0
C      1  0.5032840000000  0.5033390000000  0.4465130000000 1.0
C      1  0.5542110000000  0.4701090000000  0.4890630000000 1.0
C      1  0.4742720000000  0.5635630000000  0.5027970000000 1.0
C      1  0.4465480000000  0.4990810000000  0.4661300000000 1.0
C      1  0.5457990000000  0.5277530000000  0.4644840000000 1.0
C      1  0.4524990000000  0.5062420000000  0.5050140000000 1.0
C      1  0.4743540000000  0.4616770000000  0.4370830000000 1.0
C      1  0.4684410000000  0.5491840000000  0.5622820000000 1.0
C      1  0.5260420000000  0.5543940000000  0.5087310000000 1.0
C      1  0.5085940000000  0.4546690000000  0.4560110000000 1.0
C      1  0.5157030000000  0.5039690000000  0.5031610000000 1.0
C      1  0.5569430000000  0.5007880000000  0.5336000000000 1.0
C      1  0.4702100000000  0.4563170000000  0.4898330000000 1.0
C      1  0.5561130000000  0.5240210000000  0.4887460000000 1.0
C      1  0.4951670000000  0.5466000000000  0.5450050000000 1.0
C      1  0.5340170000000  0.4594940000000  0.5477280000000 1.0
C      1  0.4705200000000  0.5360160000000  0.5241090000000 1.0
C      1  0.4651090000000  0.4840010000000  0.5489170000000 1.0
C      1  0.4209150000000  0.5073590000000  0.4622100000000 1.0
C      1  0.5222560000000  0.5305200000000  0.5467660000000 1.0
C      1  0.5374430000000  0.5234830000000  0.5171630000000 1.0
C      1  0.4799150000000  0.4463230000000  0.4647500000000 1.0
C      1  0.5276540000000  0.4586180000000  0.4745680000000 1.0
C      1  0.5653270000000  0.4982560000000  0.5035750000000 1.0
C      1  0.4489590000000  0.5336720000000  0.5576700000000 1.0
C      1  0.5504770000000  0.4812580000000  0.5504420000000 1.0
C      1  0.4802190000000  0.5053200000000  0.4685360000000 1.0
C      1  0.5244260000000  0.5214410000000  0.4487030000000 1.0
C      1  0.5036020000000  0.4773010000000  0.4355870000000 1.0
C      1  0.4927570000000  0.5167170000000  0.4972360000000 1.0
C      1  0.4558690000000  0.4800400000000  0.4909420000000 1.0
C      1  0.4660020000000  0.4896350000000  0.4419290000000 1.0
END
