TITL C-2847952-8118-306 0.00133244469315546 125000 -613.261342841387 0 0 110 (C1) n - 1
REM
REM in /home/bkarasulu/work/CARBON/AIRSS/Generating-Clusters/AIREBO/with-SteepDescent/Only-C1/SD-CG-opt/Try1-1.4A-POS3A/HFTN-CG
REM
REM
REM
REM
REM
REM ./C.cell (11c1c37f851c82e70ff6c80c92926a4b)
REM
REM compiler GCC version 9.2.1 20190827 (Red Hat 9.2.1-1)
REM options -cpp -mtune=generic -march=x86-64 -g -O0 -fpre-include=/usr/include/finclude/math-vector-fortran.h
REM seed 2074684215 -1610797285 1962219189 1145640303 1807824577 851737167 -215319625 1311801228 -20245459 -682825374 -443457254 813802255 738865265 1240638337 1683732575 -1088485668 -1594736208 1232437173 1599793433 2047807634 1500275899 1210830432 -1686304408 -1307726449 -865609783 -372089392 -728176898 -392734183 315666562 -999081219 -290593971 1939937816 -1329122700
REM
CELL 1.54180   50.00000   50.00000   50.00000   90.00000   90.00000   90.00000
LATT -1
SFAC C  
C      1  0.4597440000000  0.5806980000000  0.5080450000000 1.0
C      1  0.4835040000000  0.4949470000000  0.4421360000000 1.0
C      1  0.4125350000000  0.4765730000000  0.4953350000000 1.0
C      1  0.5616270000000  0.5106200000000  0.4487030000000 1.0
C      1  0.5698500000000  0.4606670000000  0.4355560000000 1.0
C      1  0.4324700000000  0.5289990000000  0.5073150000000 1.0
C      1  0.5009400000000  0.4819990000000  0.4086580000000 1.0
C      1  0.4503350000000  0.5170040000000  0.4130650000000 1.0
C      1  0.5293760000000  0.5416200000000  0.4868300000000 1.0
C      1  0.4542180000000  0.4952900000000  0.5877450000000 1.0
C      1  0.4679600000000  0.5122870000000  0.4653770000000 1.0
C      1  0.5646440000000  0.4816320000000  0.4569980000000 1.0
C      1  0.5012730000000  0.5369100000000  0.4755440000000 1.0
C      1  0.4655380000000  0.4386380000000  0.4191710000000 1.0
C      1  0.4795860000000  0.4715390000000  0.5540730000000 1.0
C      1  0.5174640000000  0.4047810000000  0.5755510000000 1.0
C      1  0.5286620000000  0.4501260000000  0.4854530000000 1.0
C      1  0.5217860000000  0.4334950000000  0.5759200000000 1.0
C      1  0.4064110000000  0.5570720000000  0.4968290000000 1.0
C      1  0.4973320000000  0.4903870000000  0.4962340000000 1.0
C      1  0.5557490000000  0.4391680000000  0.5455390000000 1.0
C      1  0.5499410000000  0.5376590000000  0.4667810000000 1.0
C      1  0.4861420000000  0.4165350000000  0.4996160000000 1.0
C      1  0.5349710000000  0.4717230000000  0.4663680000000 1.0
C      1  0.4609750000000  0.5825080000000  0.5630180000000 1.0
C      1  0.4721940000000  0.5459500000000  0.4631450000000 1.0
C      1  0.6011020000000  0.4645110000000  0.5166420000000 1.0
C      1  0.5052770000000  0.5022350000000  0.5813380000000 1.0
C      1  0.4202690000000  0.5159050000000  0.4279010000000 1.0
C      1  0.5659780000000  0.4977100000000  0.5713900000000 1.0
C      1  0.5056280000000  0.4978970000000  0.5254520000000 1.0
C      1  0.5277340000000  0.5406750000000  0.5641850000000 1.0
C      1  0.5020380000000  0.4423580000000  0.5063300000000 1.0
C      1  0.4817770000000  0.5320310000000  0.5565730000000 1.0
C      1  0.4081850000000  0.5408360000000  0.5501570000000 1.0
C      1  0.5274160000000  0.4894110000000  0.5656480000000 1.0
C      1  0.5803230000000  0.5398470000000  0.5201280000000 1.0
C      1  0.5480520000000  0.4456840000000  0.5728190000000 1.0
C      1  0.4826770000000  0.4653060000000  0.5062880000000 1.0
C      1  0.5285890000000  0.5133070000000  0.5056400000000 1.0
C      1  0.5824620000000  0.5291440000000  0.4681660000000 1.0
C      1  0.5273380000000  0.4042350000000  0.4635600000000 1.0
C      1  0.4809470000000  0.5192570000000  0.4961350000000 1.0
C      1  0.4265220000000  0.5408690000000  0.4499620000000 1.0
C      1  0.5394720000000  0.3819140000000  0.4571360000000 1.0
C      1  0.5186990000000  0.4737280000000  0.5391700000000 1.0
C      1  0.4355430000000  0.5047520000000  0.5683780000000 1.0
C      1  0.4588160000000  0.4798970000000  0.4588900000000 1.0
C      1  0.4778000000000  0.5034620000000  0.5424230000000 1.0
C      1  0.5753110000000  0.4934530000000  0.5392890000000 1.0
C      1  0.4522830000000  0.4734270000000  0.4976590000000 1.0
C      1  0.5065250000000  0.5128360000000  0.4553990000000 1.0
C      1  0.4250380000000  0.4395160000000  0.5172360000000 1.0
C      1  0.5394990000000  0.5087450000000  0.5436400000000 1.0
C      1  0.4759200000000  0.5596720000000  0.4327430000000 1.0
C      1  0.5036730000000  0.5768140000000  0.4374550000000 1.0
C      1  0.5044920000000  0.6003780000000  0.5282950000000 1.0
C      1  0.4870170000000  0.4013580000000  0.5252550000000 1.0
C      1  0.4376280000000  0.4361080000000  0.4918290000000 1.0
C      1  0.5776100000000  0.4509370000000  0.5315860000000 1.0
C      1  0.5672320000000  0.5632790000000  0.5142530000000 1.0
C      1  0.5455870000000  0.5100490000000  0.4191870000000 1.0
C      1  0.4498100000000  0.5417770000000  0.4304260000000 1.0
C      1  0.4696990000000  0.5601100000000  0.5315180000000 1.0
C      1  0.4510130000000  0.5037030000000  0.5003910000000 1.0
C      1  0.5199230000000  0.5504940000000  0.4298560000000 1.0
C      1  0.4905130000000  0.5364150000000  0.5239940000000 1.0
C      1  0.5209970000000  0.4960430000000  0.4766340000000 1.0
C      1  0.6009040000000  0.4910900000000  0.5086520000000 1.0
C      1  0.5365500000000  0.5613860000000  0.5116870000000 1.0
C      1  0.4074240000000  0.5432320000000  0.5226370000000 1.0
C      1  0.5379980000000  0.4654730000000  0.4328940000000 1.0
C      1  0.4895560000000  0.4583760000000  0.4176160000000 1.0
C      1  0.4790110000000  0.5431880000000  0.4032490000000 1.0
C      1  0.4979070000000  0.3965110000000  0.5563520000000 1.0
C      1  0.5219080000000  0.5877090000000  0.5162090000000 1.0
C      1  0.5707820000000  0.5487940000000  0.4423320000000 1.0
C      1  0.5147230000000  0.4256200000000  0.4723540000000 1.0
C      1  0.5543620000000  0.5296550000000  0.5736050000000 1.0
C      1  0.4551820000000  0.5494110000000  0.5604680000000 1.0
C      1  0.5623630000000  0.4737390000000  0.5155470000000 1.0
C      1  0.4485120000000  0.5091980000000  0.5308580000000 1.0
C      1  0.5021070000000  0.4467480000000  0.5515450000000 1.0
C      1  0.4576710000000  0.4189920000000  0.4839610000000 1.0
C      1  0.4312070000000  0.5320310000000  0.5637440000000 1.0
C      1  0.5284100000000  0.4865360000000  0.4159540000000 1.0
C      1  0.4780490000000  0.5048030000000  0.4126880000000 1.0
C      1  0.5043620000000  0.5296520000000  0.5754620000000 1.0
C      1  0.4343170000000  0.4631390000000  0.4729340000000 1.0
C      1  0.4304810000000  0.4847090000000  0.5431400000000 1.0
C      1  0.4992190000000  0.5278920000000  0.4259260000000 1.0
C      1  0.5356900000000  0.4622580000000  0.5140660000000 1.0
C      1  0.4807110000000  0.4890950000000  0.5796300000000 1.0
C      1  0.4843050000000  0.4310490000000  0.4687890000000 1.0
C      1  0.4586360000000  0.4705780000000  0.5301840000000 1.0
C      1  0.4329390000000  0.5483460000000  0.4788850000000 1.0
C      1  0.5613160000000  0.5051030000000  0.5104940000000 1.0
C      1  0.5500350000000  0.4731800000000  0.5794690000000 1.0
C      1  0.5260350000000  0.4352020000000  0.5293580000000 1.0
C      1  0.5132030000000  0.5996940000000  0.4245800000000 1.0
C      1  0.5455260000000  0.5400720000000  0.4271200000000 1.0
C      1  0.4809230000000  0.4220580000000  0.5488160000000 1.0
C      1  0.5689680000000  0.5257330000000  0.5436530000000 1.0
C      1  0.4581180000000  0.5691370000000  0.4811380000000 1.0
C      1  0.5874020000000  0.5193990000000  0.4959900000000 1.0
C      1  0.4825990000000  0.5843300000000  0.4630820000000 1.0
C      1  0.5240170000000  0.5361190000000  0.5306750000000 1.0
C      1  0.4758610000000  0.5928350000000  0.5346910000000 1.0
C      1  0.4170740000000  0.4665880000000  0.5211630000000 1.0
C      1  0.4759970000000  0.4524260000000  0.4484410000000 1.0
END
