TITL C-2847952-8118-447 -0.00397299589929604 125000 -943.455494999696 0 0 176 (C1) n - 1
REM
REM in /home/bkarasulu/work/CARBON/AIRSS/Generating-Clusters/AIREBO/with-SteepDescent/Only-C1/SD-CG-opt/Try1-1.4A-POS3A/HFTN-CG
REM
REM
REM
REM
REM
REM ./C.cell (11c1c37f851c82e70ff6c80c92926a4b)
REM
REM compiler GCC version 9.2.1 20190827 (Red Hat 9.2.1-1)
REM options -cpp -mtune=generic -march=x86-64 -g -O0 -fpre-include=/usr/include/finclude/math-vector-fortran.h
REM seed 1826439156 -1184119393 -1722767836 1830605581 -1872023267 1374100830 1036213419 1758007432 1289205761 87447070 -808548697 800891837 887714171 -1243313247 -958484734 -1190587368 -1945095754 1516017474 -135679528 1323822526 -98551051 629152351 -371375976 -1049284715 -2133222904 -943755270 1312199903 767126559 -129870765 371456915 -154783466 915485649 -834858818
REM
CELL 1.54180   50.00000   50.00000   50.00000   90.00000   90.00000   90.00000
LATT -1
SFAC C  
C      1  0.3914780000000  0.5226680000000  0.5307660000000 1.0
C      1  0.4162020000000  0.5060440000000  0.5143780000000 1.0
C      1  0.5615530000000  0.5190570000000  0.4802620000000 1.0
C      1  0.5090210000000  0.5090990000000  0.5939640000000 1.0
C      1  0.4045700000000  0.5091750000000  0.4761580000000 1.0
C      1  0.3996630000000  0.4557350000000  0.4761060000000 1.0
C      1  0.5814990000000  0.5555280000000  0.4533590000000 1.0
C      1  0.4478370000000  0.5351520000000  0.5777320000000 1.0
C      1  0.5698310000000  0.4538880000000  0.4314810000000 1.0
C      1  0.5419380000000  0.5079620000000  0.6024040000000 1.0
C      1  0.5647290000000  0.5464310000000  0.5804550000000 1.0
C      1  0.5586140000000  0.5846300000000  0.5202100000000 1.0
C      1  0.4524590000000  0.4046130000000  0.4614490000000 1.0
C      1  0.5035880000000  0.4234330000000  0.4176660000000 1.0
C      1  0.4553730000000  0.5889460000000  0.4622280000000 1.0
C      1  0.5283820000000  0.4567320000000  0.5673810000000 1.0
C      1  0.4723570000000  0.5908780000000  0.4262390000000 1.0
C      1  0.4444270000000  0.4485780000000  0.4647980000000 1.0
C      1  0.4510760000000  0.5101590000000  0.4716910000000 1.0
C      1  0.4533140000000  0.5016820000000  0.6092460000000 1.0
C      1  0.5698700000000  0.4821270000000  0.4335590000000 1.0
C      1  0.5604700000000  0.4030590000000  0.5080570000000 1.0
C      1  0.5504130000000  0.5478180000000  0.4896150000000 1.0
C      1  0.4370730000000  0.4755340000000  0.6145240000000 1.0
C      1  0.6065150000000  0.4942510000000  0.5233970000000 1.0
C      1  0.5205910000000  0.4454130000000  0.4806900000000 1.0
C      1  0.4840600000000  0.5546710000000  0.5465580000000 1.0
C      1  0.4965760000000  0.4509580000000  0.5567530000000 1.0
C      1  0.5261340000000  0.5268620000000  0.5543570000000 1.0
C      1  0.4588560000000  0.5492150000000  0.4636210000000 1.0
C      1  0.5663180000000  0.5739680000000  0.4948800000000 1.0
C      1  0.5821530000000  0.4294390000000  0.5005990000000 1.0
C      1  0.4251670000000  0.5473150000000  0.4679080000000 1.0
C      1  0.5571410000000  0.4895590000000  0.4745590000000 1.0
C      1  0.5089210000000  0.5343040000000  0.4816180000000 1.0
C      1  0.3968500000000  0.4670830000000  0.5241890000000 1.0
C      1  0.5070950000000  0.5514410000000  0.5094930000000 1.0
C      1  0.5421410000000  0.6076750000000  0.5239940000000 1.0
C      1  0.4719000000000  0.5843680000000  0.5697600000000 1.0
C      1  0.5534010000000  0.5163030000000  0.5367520000000 1.0
C      1  0.4681730000000  0.4048920000000  0.4881480000000 1.0
C      1  0.5161240000000  0.4573120000000  0.4355000000000 1.0
C      1  0.4277890000000  0.5827110000000  0.5107180000000 1.0
C      1  0.4667850000000  0.4540760000000  0.4322600000000 1.0
C      1  0.6221440000000  0.5083780000000  0.5015940000000 1.0
C      1  0.5145490000000  0.4967760000000  0.4048230000000 1.0
C      1  0.5633340000000  0.4146450000000  0.4764400000000 1.0
C      1  0.4891960000000  0.5090030000000  0.4723200000000 1.0
C      1  0.5163270000000  0.5398670000000  0.4057500000000 1.0
C      1  0.4728350000000  0.4266010000000  0.5556390000000 1.0
C      1  0.4641430000000  0.5209650000000  0.5535700000000 1.0
C      1  0.4338150000000  0.4404630000000  0.4141710000000 1.0
C      1  0.4987030000000  0.4255750000000  0.4685340000000 1.0
C      1  0.4090570000000  0.4609160000000  0.4510930000000 1.0
C      1  0.5435920000000  0.4744090000000  0.5314670000000 1.0
C      1  0.5300690000000  0.4008160000000  0.4943990000000 1.0
C      1  0.4215660000000  0.5414530000000  0.5663740000000 1.0
C      1  0.5056080000000  0.5885510000000  0.4357820000000 1.0
C      1  0.4486320000000  0.5114210000000  0.4067810000000 1.0
C      1  0.5476390000000  0.4983580000000  0.4125270000000 1.0
C      1  0.4778430000000  0.5390670000000  0.4359630000000 1.0
C      1  0.5320410000000  0.4239700000000  0.5740430000000 1.0
C      1  0.4690790000000  0.4060140000000  0.5222040000000 1.0
C      1  0.5074790000000  0.5807860000000  0.5079430000000 1.0
C      1  0.5593850000000  0.4231740000000  0.5327220000000 1.0
C      1  0.4599100000000  0.5890520000000  0.5112810000000 1.0
C      1  0.5920990000000  0.4711650000000  0.5655930000000 1.0
C      1  0.5539450000000  0.5356570000000  0.4515780000000 1.0
C      1  0.4587400000000  0.5577400000000  0.5243850000000 1.0
C      1  0.5131170000000  0.5986120000000  0.5335950000000 1.0
C      1  0.4924470000000  0.5652100000000  0.5895400000000 1.0
C      1  0.5951860000000  0.5260290000000  0.5007090000000 1.0
C      1  0.5162860000000  0.5707370000000  0.4088600000000 1.0
C      1  0.5219550000000  0.5551900000000  0.5971080000000 1.0
C      1  0.5476450000000  0.4391840000000  0.4520690000000 1.0
C      1  0.5820790000000  0.4805260000000  0.5102660000000 1.0
C      1  0.4897080000000  0.4531450000000  0.4564980000000 1.0
C      1  0.5302630000000  0.5221410000000  0.4312200000000 1.0
C      1  0.4449880000000  0.4295650000000  0.4917770000000 1.0
C      1  0.5642740000000  0.5180550000000  0.5844780000000 1.0
C      1  0.4997770000000  0.3953750000000  0.4798850000000 1.0
C      1  0.5240730000000  0.5009120000000  0.4558380000000 1.0
C      1  0.4091410000000  0.5596280000000  0.5115780000000 1.0
C      1  0.4959900000000  0.5284190000000  0.3896530000000 1.0
C      1  0.5855460000000  0.5637740000000  0.5841790000000 1.0
C      1  0.4601330000000  0.5266500000000  0.6015840000000 1.0
C      1  0.4845630000000  0.5613900000000  0.4167520000000 1.0
C      1  0.4502690000000  0.5676520000000  0.4363570000000 1.0
C      1  0.5756430000000  0.5147770000000  0.4357670000000 1.0
C      1  0.4704910000000  0.4591460000000  0.4839090000000 1.0
C      1  0.4473380000000  0.4918930000000  0.5589500000000 1.0
C      1  0.5318240000000  0.4501150000000  0.4085050000000 1.0
C      1  0.5541700000000  0.4135090000000  0.5623630000000 1.0
C      1  0.4752180000000  0.5078590000000  0.3952930000000 1.0
C      1  0.3892410000000  0.5461220000000  0.5434840000000 1.0
C      1  0.5029170000000  0.4871050000000  0.5716840000000 1.0
C      1  0.4816230000000  0.5873670000000  0.5375480000000 1.0
C      1  0.4808520000000  0.4642290000000  0.5832570000000 1.0
C      1  0.5730430000000  0.5191960000000  0.4037650000000 1.0
C      1  0.4973660000000  0.5986080000000  0.4042280000000 1.0
C      1  0.3937540000000  0.4801900000000  0.4941770000000 1.0
C      1  0.4989640000000  0.5902380000000  0.4833620000000 1.0
C      1  0.4799740000000  0.5353030000000  0.5122250000000 1.0
C      1  0.4894680000000  0.4322590000000  0.5911730000000 1.0
C      1  0.5330960000000  0.4435180000000  0.5364040000000 1.0
C      1  0.6051900000000  0.4464570000000  0.4834890000000 1.0
C      1  0.5088110000000  0.4378810000000  0.5210230000000 1.0
C      1  0.5371240000000  0.4714900000000  0.4538500000000 1.0
C      1  0.4890370000000  0.5327620000000  0.5960780000000 1.0
C      1  0.5793260000000  0.5784080000000  0.4701190000000 1.0
C      1  0.4453070000000  0.5201300000000  0.5249490000000 1.0
C      1  0.4738470000000  0.4588600000000  0.5326960000000 1.0
C      1  0.4210950000000  0.4288620000000  0.5477860000000 1.0
C      1  0.4380380000000  0.4783830000000  0.4512340000000 1.0
C      1  0.4686940000000  0.4907160000000  0.4522810000000 1.0
C      1  0.5070560000000  0.4034670000000  0.4449940000000 1.0
C      1  0.3843830000000  0.5101440000000  0.5025800000000 1.0
C      1  0.5363380000000  0.5567880000000  0.5669220000000 1.0
C      1  0.4470990000000  0.5731860000000  0.5519300000000 1.0
C      1  0.4548670000000  0.4789040000000  0.5854950000000 1.0
C      1  0.4712160000000  0.5929880000000  0.4834740000000 1.0
C      1  0.4971380000000  0.5986910000000  0.5864260000000 1.0
C      1  0.5344560000000  0.4094900000000  0.4621040000000 1.0
C      1  0.5184970000000  0.5141060000000  0.5173720000000 1.0
C      1  0.4931600000000  0.4020780000000  0.5460460000000 1.0
C      1  0.6062140000000  0.5798440000000  0.5853250000000 1.0
C      1  0.5379920000000  0.5408610000000  0.5189630000000 1.0
C      1  0.4260710000000  0.4656070000000  0.4077070000000 1.0
C      1  0.5053580000000  0.4150260000000  0.5750600000000 1.0
C      1  0.4210120000000  0.4511400000000  0.4967160000000 1.0
C      1  0.5534180000000  0.4508430000000  0.4834960000000 1.0
C      1  0.4455540000000  0.4706460000000  0.5382270000000 1.0
C      1  0.4461140000000  0.4179890000000  0.5442530000000 1.0
C      1  0.5924420000000  0.4920680000000  0.4569630000000 1.0
C      1  0.5302090000000  0.5357590000000  0.6148850000000 1.0
C      1  0.6072820000000  0.5156520000000  0.4715850000000 1.0
C      1  0.5246120000000  0.5065940000000  0.4890380000000 1.0
C      1  0.4248010000000  0.5156620000000  0.5517160000000 1.0
C      1  0.4161230000000  0.5649930000000  0.5444620000000 1.0
C      1  0.5707250000000  0.5105530000000  0.5114870000000 1.0
C      1  0.4940300000000  0.4830920000000  0.5253240000000 1.0
C      1  0.5690840000000  0.4537440000000  0.5214340000000 1.0
C      1  0.5264450000000  0.4788370000000  0.5936400000000 1.0
C      1  0.4572370000000  0.4876060000000  0.4935300000000 1.0
C      1  0.4890520000000  0.4768060000000  0.3944450000000 1.0
C      1  0.5486380000000  0.5641600000000  0.5367590000000 1.0
C      1  0.4127230000000  0.5000400000000  0.4443730000000 1.0
C      1  0.4073360000000  0.5402990000000  0.4899060000000 1.0
C      1  0.5288350000000  0.5546730000000  0.4653920000000 1.0
C      1  0.4170230000000  0.4550230000000  0.5380540000000 1.0
C      1  0.4702610000000  0.4378680000000  0.5105650000000 1.0
C      1  0.4322330000000  0.4784100000000  0.5095360000000 1.0
C      1  0.5147570000000  0.5816500000000  0.4618910000000 1.0
C      1  0.5084700000000  0.4070760000000  0.5167560000000 1.0
C      1  0.4953340000000  0.5309480000000  0.5627080000000 1.0
C      1  0.5594280000000  0.4700110000000  0.5612380000000 1.0
C      1  0.4732150000000  0.5023450000000  0.5171450000000 1.0
C      1  0.5823980000000  0.4681960000000  0.4790440000000 1.0
C      1  0.4974460000000  0.5134730000000  0.4290110000000 1.0
C      1  0.5689200000000  0.5026210000000  0.5594190000000 1.0
C      1  0.5196700000000  0.4950400000000  0.5441750000000 1.0
C      1  0.4524630000000  0.5332760000000  0.4933720000000 1.0
C      1  0.5348300000000  0.4237190000000  0.4246270000000 1.0
C      1  0.6050530000000  0.5411720000000  0.4533850000000 1.0
C      1  0.4324830000000  0.5224050000000  0.4507690000000 1.0
C      1  0.5161440000000  0.5839920000000  0.5623690000000 1.0
C      1  0.5375910000000  0.4767300000000  0.4988400000000 1.0
C      1  0.4883650000000  0.4460000000000  0.4093300000000 1.0
C      1  0.4479120000000  0.4283200000000  0.4404170000000 1.0
C      1  0.4869980000000  0.4811190000000  0.4281800000000 1.0
C      1  0.5448300000000  0.4701630000000  0.3942560000000 1.0
C      1  0.5003010000000  0.4626040000000  0.5003850000000 1.0
C      1  0.4474890000000  0.5345270000000  0.4274780000000 1.0
C      1  0.6012260000000  0.4955990000000  0.5507170000000 1.0
C      1  0.4284070000000  0.4923770000000  0.4151550000000 1.0
C      1  0.5021900000000  0.4798560000000  0.4711400000000 1.0
END
