TITL C-2847946-5639-500 0.000155939187807596 125000 -550.214836074525 0 0 103 (C1) n - 1
REM
REM in /home/bkarasulu/work/CARBON/AIRSS/Generating-Clusters/AIREBO/with-SteepDescent/Only-C1/SD-CG-opt/Try1-1.4A-POS3A/HFTN-CG
REM
REM
REM
REM
REM
REM ./C.cell (11c1c37f851c82e70ff6c80c92926a4b)
REM
REM compiler GCC version 9.2.1 20190827 (Red Hat 9.2.1-1)
REM options -cpp -mtune=generic -march=x86-64 -g -O0 -fpre-include=/usr/include/finclude/math-vector-fortran.h
REM seed 726807523 1190441670 186565648 193036963 316167165 -2109501629 -85464651 -1845243744 -1313276166 712969569 1011333751 -405928664 530483638 1062903618 -1950281821 1516569103 -2061537919 -489546296 1146025051 -1942492953 187291191 764092968 1682007200 2120430556 -736704208 1323166764 -1162246280 1053109346 2066991911 552074071 -283476465 1987416879 -2011366843
REM
CELL 1.54180   50.00000   50.00000   50.00000   90.00000   90.00000   90.00000
LATT -1
SFAC C  
C      1  0.5829410000000  0.5200700000000  0.4656090000000 1.0
C      1  0.4816130000000  0.4442390000000  0.5689060000000 1.0
C      1  0.4639990000000  0.5305580000000  0.5710250000000 1.0
C      1  0.4562730000000  0.5497130000000  0.4930140000000 1.0
C      1  0.5413850000000  0.4387540000000  0.5206190000000 1.0
C      1  0.4118700000000  0.5237480000000  0.4822620000000 1.0
C      1  0.4326660000000  0.5759170000000  0.4560710000000 1.0
C      1  0.4414400000000  0.5156330000000  0.5074910000000 1.0
C      1  0.4817460000000  0.4863860000000  0.5709760000000 1.0
C      1  0.5125270000000  0.4523230000000  0.5263980000000 1.0
C      1  0.5534820000000  0.5633860000000  0.4987650000000 1.0
C      1  0.4517870000000  0.4998800000000  0.4213490000000 1.0
C      1  0.4207950000000  0.5632740000000  0.5312270000000 1.0
C      1  0.5099160000000  0.5131740000000  0.5257730000000 1.0
C      1  0.5509100000000  0.4997380000000  0.4350110000000 1.0
C      1  0.5172590000000  0.5607910000000  0.4823400000000 1.0
C      1  0.5611510000000  0.5143980000000  0.4882670000000 1.0
C      1  0.4289230000000  0.4724960000000  0.4642200000000 1.0
C      1  0.4846360000000  0.5765770000000  0.4628810000000 1.0
C      1  0.5652340000000  0.5234030000000  0.4424980000000 1.0
C      1  0.4075120000000  0.5790520000000  0.5474050000000 1.0
C      1  0.5157010000000  0.5478470000000  0.5704080000000 1.0
C      1  0.5469110000000  0.5458820000000  0.4427940000000 1.0
C      1  0.4222800000000  0.5147920000000  0.5352900000000 1.0
C      1  0.5539340000000  0.4664190000000  0.5101910000000 1.0
C      1  0.5485540000000  0.4105530000000  0.4770260000000 1.0
C      1  0.4603320000000  0.5035270000000  0.5403030000000 1.0
C      1  0.4813820000000  0.5106970000000  0.5832940000000 1.0
C      1  0.5349560000000  0.4452820000000  0.5967800000000 1.0
C      1  0.4846570000000  0.5473640000000  0.5564990000000 1.0
C      1  0.5452510000000  0.5349270000000  0.5072490000000 1.0
C      1  0.5065700000000  0.5248290000000  0.4633830000000 1.0
C      1  0.4708260000000  0.4076430000000  0.5234820000000 1.0
C      1  0.4480940000000  0.4844560000000  0.5147060000000 1.0
C      1  0.5216660000000  0.5875540000000  0.5004040000000 1.0
C      1  0.5034490000000  0.5929810000000  0.4767880000000 1.0
C      1  0.4021810000000  0.5222280000000  0.5088390000000 1.0
C      1  0.5427830000000  0.5832160000000  0.5191440000000 1.0
C      1  0.5116950000000  0.4811400000000  0.5144710000000 1.0
C      1  0.4793030000000  0.5291170000000  0.4976150000000 1.0
C      1  0.4357130000000  0.5476960000000  0.5170570000000 1.0
C      1  0.5740640000000  0.5266160000000  0.5561550000000 1.0
C      1  0.5225310000000  0.4938380000000  0.5507430000000 1.0
C      1  0.5339960000000  0.4188110000000  0.4974280000000 1.0
C      1  0.4326480000000  0.5438340000000  0.4692770000000 1.0
C      1  0.5132730000000  0.5300380000000  0.4963080000000 1.0
C      1  0.4347040000000  0.4880990000000  0.4345650000000 1.0
C      1  0.4707750000000  0.4382090000000  0.5131030000000 1.0
C      1  0.4946330000000  0.3947940000000  0.5187670000000 1.0
C      1  0.4465200000000  0.5518900000000  0.4392730000000 1.0
C      1  0.5208500000000  0.4736960000000  0.4296940000000 1.0
C      1  0.4787410000000  0.5255100000000  0.5314260000000 1.0
C      1  0.5329850000000  0.5708010000000  0.5426870000000 1.0
C      1  0.5628160000000  0.4185380000000  0.4548680000000 1.0
C      1  0.5813920000000  0.4789990000000  0.4951260000000 1.0
C      1  0.4556110000000  0.4551820000000  0.4600960000000 1.0
C      1  0.5516780000000  0.4554960000000  0.5483710000000 1.0
C      1  0.4331320000000  0.4875220000000  0.5515910000000 1.0
C      1  0.5828860000000  0.4543110000000  0.5403000000000 1.0
C      1  0.5020800000000  0.4263460000000  0.5071040000000 1.0
C      1  0.4590840000000  0.5733690000000  0.4725040000000 1.0
C      1  0.5429160000000  0.4655020000000  0.4539090000000 1.0
C      1  0.5190800000000  0.5440120000000  0.5367870000000 1.0
C      1  0.4543060000000  0.4459320000000  0.5664800000000 1.0
C      1  0.4368560000000  0.4595440000000  0.5488790000000 1.0
C      1  0.4830070000000  0.5037200000000  0.4186420000000 1.0
C      1  0.4928250000000  0.5322540000000  0.4154700000000 1.0
C      1  0.4378310000000  0.5028770000000  0.4762000000000 1.0
C      1  0.5069510000000  0.5212640000000  0.5897200000000 1.0
C      1  0.5618800000000  0.4724630000000  0.4269440000000 1.0
C      1  0.4027190000000  0.4609040000000  0.4525430000000 1.0
C      1  0.5610370000000  0.5132520000000  0.5281660000000 1.0
C      1  0.5626320000000  0.4428990000000  0.4419510000000 1.0
C      1  0.4713070000000  0.4649060000000  0.4357870000000 1.0
C      1  0.5913970000000  0.5095270000000  0.4973780000000 1.0
C      1  0.4968690000000  0.4190010000000  0.4545500000000 1.0
C      1  0.5013510000000  0.4782910000000  0.4108120000000 1.0
C      1  0.5253820000000  0.5805820000000  0.5709610000000 1.0
C      1  0.4710090000000  0.5490030000000  0.4287560000000 1.0
C      1  0.5924470000000  0.4586150000000  0.5174980000000 1.0
C      1  0.4962960000000  0.4355910000000  0.4750640000000 1.0
C      1  0.4412440000000  0.4513990000000  0.5190780000000 1.0
C      1  0.5216850000000  0.5401820000000  0.4300310000000 1.0
C      1  0.4998180000000  0.4033620000000  0.4337280000000 1.0
C      1  0.5469450000000  0.5357340000000  0.5635590000000 1.0
C      1  0.5202600000000  0.4996090000000  0.4496340000000 1.0
C      1  0.5302410000000  0.5110120000000  0.5738500000000 1.0
C      1  0.4797470000000  0.4780260000000  0.5380750000000 1.0
C      1  0.4225730000000  0.4599370000000  0.4945650000000 1.0
C      1  0.5485910000000  0.4865130000000  0.5341090000000 1.0
C      1  0.5511420000000  0.4768640000000  0.4792250000000 1.0
C      1  0.4846540000000  0.4669280000000  0.4733200000000 1.0
C      1  0.4963790000000  0.5521170000000  0.4493750000000 1.0
C      1  0.5053950000000  0.4649680000000  0.5561970000000 1.0
C      1  0.4748480000000  0.4683410000000  0.5058510000000 1.0
C      1  0.4871700000000  0.4917570000000  0.4502070000000 1.0
C      1  0.4375410000000  0.5288520000000  0.5611170000000 1.0
C      1  0.5116750000000  0.4789110000000  0.4844150000000 1.0
C      1  0.5459050000000  0.5603750000000  0.4670810000000 1.0
C      1  0.4695140000000  0.5088200000000  0.4738550000000 1.0
C      1  0.5934540000000  0.5214500000000  0.5285940000000 1.0
C      1  0.5325950000000  0.4542660000000  0.5727270000000 1.0
C      1  0.5318290000000  0.5028800000000  0.4876900000000 1.0
END
