TITL C-2848500-1637-303 0.00178773172100202 125000 -622.986973709784 0 0 118 (C1) n - 1
REM
REM in /home/bkarasulu/work/CARBON/AIRSS/Generating-Clusters/AIREBO/with-SteepDescent/Only-C1/SD-CG-opt/Try1-1.4A-POS3A/HFTN-CG
REM
REM
REM
REM
REM
REM ./C.cell (11c1c37f851c82e70ff6c80c92926a4b)
REM
REM compiler GCC version 9.2.1 20190827 (Red Hat 9.2.1-1)
REM options -cpp -mtune=generic -march=x86-64 -g -O0 -fpre-include=/usr/include/finclude/math-vector-fortran.h
REM seed 894952421 1575981101 -1070414533 -556927062 285374528 -249150300 -931336230 -753093556 1118888856 621879725 -647594938 -694372133 661587522 -2074567681 286656992 1616115637 -1960940438 -1119819400 -1198500005 -558352034 -389715197 413298809 996713258 -1032940422 2128521262 -318871541 1433420508 1720239334 -2095469333 -1537267460 -1137683470 1402583296 -2102577568
REM
CELL 1.54180   50.00000   50.00000   50.00000   90.00000   90.00000   90.00000
LATT -1
SFAC C  
C      1  0.4874400000000  0.4834550000000  0.4449710000000 1.0
C      1  0.4790010000000  0.4703800000000  0.5730630000000 1.0
C      1  0.4613650000000  0.4781680000000  0.4237940000000 1.0
C      1  0.5560860000000  0.5127000000000  0.4983800000000 1.0
C      1  0.5596830000000  0.6056370000000  0.5167640000000 1.0
C      1  0.5255210000000  0.5105140000000  0.5573490000000 1.0
C      1  0.5734120000000  0.4975570000000  0.5570640000000 1.0
C      1  0.4068560000000  0.4986110000000  0.4894380000000 1.0
C      1  0.4625280000000  0.5608630000000  0.5470190000000 1.0
C      1  0.4539760000000  0.4649390000000  0.5273410000000 1.0
C      1  0.4871430000000  0.4666220000000  0.4087940000000 1.0
C      1  0.4932450000000  0.5737260000000  0.5394980000000 1.0
C      1  0.4810050000000  0.4053880000000  0.4886400000000 1.0
C      1  0.4362840000000  0.5287550000000  0.5164160000000 1.0
C      1  0.5588230000000  0.4486440000000  0.4612480000000 1.0
C      1  0.5059760000000  0.4877590000000  0.4087200000000 1.0
C      1  0.5954520000000  0.5103270000000  0.5034190000000 1.0
C      1  0.4667480000000  0.4987310000000  0.5588420000000 1.0
C      1  0.5606160000000  0.5435230000000  0.5425220000000 1.0
C      1  0.5262930000000  0.4701330000000  0.5851970000000 1.0
C      1  0.4308590000000  0.4267480000000  0.5011980000000 1.0
C      1  0.5756680000000  0.4732130000000  0.4777270000000 1.0
C      1  0.4270680000000  0.5122620000000  0.5431520000000 1.0
C      1  0.5269370000000  0.4821260000000  0.5440550000000 1.0
C      1  0.4428800000000  0.4566110000000  0.4359550000000 1.0
C      1  0.5406240000000  0.5233230000000  0.5845260000000 1.0
C      1  0.5440820000000  0.4314190000000  0.5359390000000 1.0
C      1  0.5012810000000  0.4478280000000  0.5793700000000 1.0
C      1  0.4247590000000  0.5138810000000  0.4675170000000 1.0
C      1  0.4895760000000  0.5494200000000  0.4093120000000 1.0
C      1  0.5225740000000  0.5309040000000  0.5340330000000 1.0
C      1  0.5299130000000  0.4845630000000  0.4234400000000 1.0
C      1  0.5248400000000  0.4075200000000  0.4661700000000 1.0
C      1  0.5025070000000  0.3938610000000  0.4770740000000 1.0
C      1  0.5355710000000  0.4652610000000  0.4475450000000 1.0
C      1  0.4872260000000  0.5508670000000  0.5055630000000 1.0
C      1  0.5853370000000  0.4838650000000  0.5043310000000 1.0
C      1  0.4811180000000  0.4976480000000  0.5309600000000 1.0
C      1  0.4720860000000  0.4400510000000  0.5627690000000 1.0
C      1  0.4755580000000  0.4767770000000  0.4736280000000 1.0
C      1  0.5192440000000  0.5383130000000  0.4216900000000 1.0
C      1  0.5049630000000  0.4556220000000  0.4540030000000 1.0
C      1  0.5333210000000  0.5079190000000  0.4443010000000 1.0
C      1  0.5276260000000  0.4768110000000  0.4785290000000 1.0
C      1  0.5002890000000  0.5299000000000  0.4821890000000 1.0
C      1  0.5228720000000  0.4372460000000  0.4758320000000 1.0
C      1  0.5486780000000  0.5339540000000  0.4316890000000 1.0
C      1  0.5630930000000  0.5230120000000  0.5622620000000 1.0
C      1  0.5034140000000  0.5123050000000  0.4532640000000 1.0
C      1  0.5933880000000  0.5295470000000  0.4800140000000 1.0
C      1  0.4134010000000  0.4729550000000  0.4740180000000 1.0
C      1  0.5146890000000  0.4364950000000  0.5069110000000 1.0
C      1  0.4859480000000  0.5008680000000  0.5868400000000 1.0
C      1  0.5206020000000  0.5746450000000  0.4600800000000 1.0
C      1  0.4452110000000  0.5031130000000  0.4144510000000 1.0
C      1  0.5269250000000  0.5488110000000  0.4802140000000 1.0
C      1  0.5133430000000  0.5579160000000  0.5619170000000 1.0
C      1  0.4683390000000  0.4488870000000  0.4779110000000 1.0
C      1  0.4268920000000  0.5448250000000  0.4562730000000 1.0
C      1  0.5166180000000  0.4996200000000  0.5870500000000 1.0
C      1  0.5404450000000  0.5883830000000  0.5133060000000 1.0
C      1  0.4405170000000  0.5253100000000  0.4327400000000 1.0
C      1  0.4520620000000  0.5300850000000  0.5578720000000 1.0
C      1  0.5457130000000  0.5499540000000  0.5061140000000 1.0
C      1  0.4354920000000  0.5795100000000  0.5025610000000 1.0
C      1  0.4975880000000  0.4798140000000  0.4924630000000 1.0
C      1  0.4239970000000  0.4689960000000  0.5174000000000 1.0
C      1  0.5195780000000  0.5884770000000  0.4911190000000 1.0
C      1  0.5726620000000  0.4148070000000  0.5383760000000 1.0
C      1  0.4332720000000  0.4772170000000  0.4541900000000 1.0
C      1  0.4402250000000  0.4479070000000  0.5595950000000 1.0
C      1  0.4756390000000  0.5544160000000  0.4399200000000 1.0
C      1  0.4946820000000  0.5159760000000  0.4127080000000 1.0
C      1  0.5060100000000  0.4161220000000  0.5315030000000 1.0
C      1  0.4150160000000  0.4950570000000  0.5164090000000 1.0
C      1  0.4381820000000  0.4813890000000  0.5525620000000 1.0
C      1  0.5763960000000  0.4774440000000  0.5794640000000 1.0
C      1  0.5298370000000  0.5519410000000  0.5877560000000 1.0
C      1  0.5501830000000  0.4654280000000  0.5614410000000 1.0
C      1  0.4663970000000  0.5275070000000  0.4807010000000 1.0
C      1  0.4525970000000  0.4197240000000  0.4805780000000 1.0
C      1  0.4850730000000  0.4661310000000  0.5187950000000 1.0
C      1  0.5276260000000  0.4393470000000  0.5602610000000 1.0
C      1  0.4178830000000  0.4523280000000  0.4947020000000 1.0
C      1  0.4933900000000  0.5285320000000  0.5271190000000 1.0
C      1  0.5667850000000  0.5502990000000  0.4794310000000 1.0
C      1  0.5506300000000  0.4457720000000  0.4922360000000 1.0
C      1  0.5480980000000  0.5580920000000  0.4539250000000 1.0
C      1  0.4730640000000  0.5822370000000  0.4571860000000 1.0
C      1  0.4657830000000  0.5175750000000  0.5101610000000 1.0
C      1  0.5343050000000  0.5023210000000  0.5192540000000 1.0
C      1  0.4430620000000  0.5722040000000  0.4546710000000 1.0
C      1  0.4825300000000  0.5520990000000  0.5712260000000 1.0
C      1  0.5335230000000  0.5631010000000  0.5350180000000 1.0
C      1  0.5689030000000  0.5243700000000  0.4572860000000 1.0
C      1  0.4210530000000  0.5369500000000  0.4895990000000 1.0
C      1  0.5604900000000  0.4249770000000  0.5108420000000 1.0
C      1  0.4841930000000  0.4457980000000  0.4323160000000 1.0
C      1  0.5663980000000  0.4780820000000  0.5319840000000 1.0
C      1  0.5467590000000  0.4738820000000  0.5053640000000 1.0
C      1  0.5534220000000  0.4971650000000  0.4697940000000 1.0
C      1  0.4891610000000  0.5933470000000  0.4761670000000 1.0
C      1  0.4782750000000  0.4230350000000  0.5388230000000 1.0
C      1  0.5745160000000  0.5341920000000  0.5149600000000 1.0
C      1  0.5205520000000  0.5924520000000  0.5472250000000 1.0
C      1  0.4735560000000  0.5204830000000  0.4391860000000 1.0
C      1  0.4807580000000  0.4343130000000  0.5065200000000 1.0
C      1  0.4706940000000  0.5278750000000  0.5858640000000 1.0
C      1  0.4586950000000  0.4338010000000  0.4499150000000 1.0
C      1  0.4923350000000  0.5812570000000  0.5070960000000 1.0
C      1  0.5507740000000  0.4171630000000  0.4554920000000 1.0
C      1  0.4553760000000  0.5556400000000  0.5163780000000 1.0
C      1  0.5100970000000  0.5059550000000  0.4990490000000 1.0
C      1  0.4558670000000  0.5016240000000  0.4613270000000 1.0
C      1  0.5067740000000  0.5667230000000  0.4341890000000 1.0
C      1  0.4398320000000  0.4341250000000  0.5284930000000 1.0
C      1  0.5125450000000  0.4559610000000  0.5347120000000 1.0
C      1  0.4539610000000  0.5579830000000  0.4824800000000 1.0
END
