TITL C-2848506-1665-594 0.00203112276769374 125000 -755.313585221066 0 0 142 (C1) n - 1
REM
REM in /home/bkarasulu/work/CARBON/AIRSS/Generating-Clusters/AIREBO/with-SteepDescent/Only-C1/SD-CG-opt/Try1-1.4A-POS3A/HFTN-CG
REM
REM
REM
REM
REM
REM ./C.cell (11c1c37f851c82e70ff6c80c92926a4b)
REM
REM compiler GCC version 9.2.1 20190827 (Red Hat 9.2.1-1)
REM options -cpp -mtune=generic -march=x86-64 -g -O0 -fpre-include=/usr/include/finclude/math-vector-fortran.h
REM seed -1513946768 -173973872 -646311545 -322943724 983492767 -301581375 -1994018672 1905937655 -1603196734 -109213615 1226769821 -392995843 -663477404 -582622200 -1946482174 -1904136841 -932917575 -906182612 1392877153 1196577650 274155069 -602562131 -1306094394 1911511946 -1631262668 1547559336 -349823082 698477242 -1797214962 -1911284221 -1758444712 -311989160 606926636
REM
CELL 1.54180   50.00000   50.00000   50.00000   90.00000   90.00000   90.00000
LATT -1
SFAC C  
C      1  0.5210860000000  0.4919770000000  0.4023560000000 1.0
C      1  0.5370390000000  0.5050410000000  0.4858270000000 1.0
C      1  0.5045820000000  0.5133330000000  0.4524290000000 1.0
C      1  0.5227890000000  0.5925340000000  0.4817030000000 1.0
C      1  0.4356350000000  0.5603130000000  0.5042240000000 1.0
C      1  0.4840340000000  0.4114040000000  0.5390700000000 1.0
C      1  0.4126490000000  0.4867250000000  0.4646650000000 1.0
C      1  0.5373190000000  0.4154140000000  0.4503000000000 1.0
C      1  0.4511720000000  0.4705190000000  0.4260490000000 1.0
C      1  0.4788130000000  0.4442330000000  0.5835550000000 1.0
C      1  0.4174790000000  0.4586750000000  0.5505240000000 1.0
C      1  0.4671620000000  0.5222070000000  0.4821160000000 1.0
C      1  0.5039940000000  0.4535740000000  0.4220940000000 1.0
C      1  0.4767020000000  0.4931380000000  0.4211000000000 1.0
C      1  0.5554790000000  0.5122090000000  0.5719830000000 1.0
C      1  0.5966310000000  0.4884310000000  0.4613830000000 1.0
C      1  0.4892120000000  0.5759120000000  0.4306390000000 1.0
C      1  0.4143350000000  0.5026970000000  0.4377230000000 1.0
C      1  0.4995600000000  0.3871770000000  0.4823810000000 1.0
C      1  0.4788210000000  0.4207430000000  0.5661410000000 1.0
C      1  0.5080760000000  0.4559360000000  0.5924000000000 1.0
C      1  0.5863760000000  0.5015360000000  0.5376730000000 1.0
C      1  0.4453840000000  0.4720960000000  0.5598570000000 1.0
C      1  0.5164080000000  0.5636280000000  0.5098560000000 1.0
C      1  0.4172320000000  0.4542990000000  0.5184240000000 1.0
C      1  0.4582630000000  0.5413440000000  0.4194300000000 1.0
C      1  0.5433850000000  0.4470230000000  0.5053670000000 1.0
C      1  0.5660970000000  0.4626560000000  0.4854690000000 1.0
C      1  0.5915140000000  0.4636690000000  0.4741260000000 1.0
C      1  0.4900200000000  0.5424850000000  0.5079090000000 1.0
C      1  0.4933270000000  0.4812810000000  0.5751740000000 1.0
C      1  0.4038880000000  0.5278910000000  0.5484650000000 1.0
C      1  0.5185840000000  0.5142350000000  0.6072640000000 1.0
C      1  0.5212200000000  0.5454210000000  0.5923270000000 1.0
C      1  0.4643000000000  0.5427290000000  0.5291850000000 1.0
C      1  0.5012960000000  0.5151920000000  0.4127220000000 1.0
C      1  0.5964320000000  0.4554890000000  0.5905990000000 1.0
C      1  0.4882100000000  0.5094000000000  0.5013470000000 1.0
C      1  0.4263570000000  0.5389640000000  0.5273450000000 1.0
C      1  0.5507870000000  0.4283350000000  0.4264440000000 1.0
C      1  0.5090020000000  0.5915020000000  0.5237160000000 1.0
C      1  0.5911180000000  0.4893640000000  0.4329710000000 1.0
C      1  0.4551180000000  0.4579610000000  0.5063850000000 1.0
C      1  0.5638360000000  0.5535770000000  0.5449470000000 1.0
C      1  0.5235160000000  0.5190800000000  0.5626230000000 1.0
C      1  0.4285850000000  0.4908190000000  0.5401390000000 1.0
C      1  0.5190140000000  0.4704840000000  0.5019510000000 1.0
C      1  0.4671850000000  0.6066150000000  0.4924400000000 1.0
C      1  0.5249230000000  0.5653020000000  0.4447750000000 1.0
C      1  0.4587370000000  0.5736750000000  0.5377830000000 1.0
C      1  0.5156440000000  0.5599030000000  0.4768880000000 1.0
C      1  0.5871660000000  0.5513320000000  0.5233990000000 1.0
C      1  0.5173060000000  0.4027150000000  0.4978760000000 1.0
C      1  0.4937350000000  0.5515210000000  0.5723490000000 1.0
C      1  0.4203230000000  0.5752610000000  0.4783990000000 1.0
C      1  0.4471800000000  0.5134600000000  0.5297260000000 1.0
C      1  0.5396340000000  0.4209970000000  0.4837750000000 1.0
C      1  0.4805950000000  0.4915140000000  0.5271040000000 1.0
C      1  0.5007930000000  0.5429660000000  0.5401860000000 1.0
C      1  0.5629590000000  0.5070680000000  0.4258650000000 1.0
C      1  0.5796670000000  0.4822340000000  0.5174120000000 1.0
C      1  0.4350490000000  0.5361930000000  0.5601000000000 1.0
C      1  0.4647970000000  0.5732430000000  0.4983170000000 1.0
C      1  0.5539330000000  0.5685320000000  0.4446150000000 1.0
C      1  0.4592000000000  0.4641830000000  0.5868900000000 1.0
C      1  0.5703160000000  0.4544680000000  0.5247540000000 1.0
C      1  0.5810930000000  0.4274330000000  0.5109700000000 1.0
C      1  0.4616340000000  0.5565760000000  0.5659430000000 1.0
C      1  0.4807590000000  0.4451410000000  0.4763790000000 1.0
C      1  0.5124150000000  0.4242430000000  0.4365220000000 1.0
C      1  0.4817280000000  0.4727670000000  0.4659080000000 1.0
C      1  0.4692540000000  0.5560920000000  0.4474710000000 1.0
C      1  0.5346990000000  0.4670810000000  0.5387480000000 1.0
C      1  0.5388140000000  0.5965500000000  0.5081410000000 1.0
C      1  0.5851930000000  0.5156840000000  0.4781990000000 1.0
C      1  0.4738990000000  0.5291840000000  0.4040060000000 1.0
C      1  0.4336400000000  0.4318280000000  0.5098550000000 1.0
C      1  0.5158140000000  0.5717550000000  0.5486410000000 1.0
C      1  0.5480940000000  0.4937510000000  0.5450670000000 1.0
C      1  0.4791690000000  0.5941480000000  0.5211230000000 1.0
C      1  0.4754900000000  0.3962330000000  0.4752470000000 1.0
C      1  0.4613730000000  0.4240250000000  0.4619030000000 1.0
C      1  0.5261370000000  0.4486720000000  0.4693420000000 1.0
C      1  0.4754380000000  0.4745670000000  0.5518800000000 1.0
C      1  0.5441280000000  0.5765030000000  0.5355100000000 1.0
C      1  0.5435900000000  0.4335660000000  0.5688440000000 1.0
C      1  0.4719890000000  0.5932380000000  0.4622240000000 1.0
C      1  0.5131070000000  0.4432090000000  0.5621920000000 1.0
C      1  0.5100170000000  0.4116260000000  0.5231030000000 1.0
C      1  0.4133090000000  0.4566800000000  0.4608810000000 1.0
C      1  0.5468780000000  0.5292080000000  0.4460540000000 1.0
C      1  0.5646690000000  0.4945610000000  0.4914580000000 1.0
C      1  0.5273570000000  0.4344270000000  0.5325870000000 1.0
C      1  0.4526530000000  0.4803280000000  0.4585740000000 1.0
C      1  0.5445100000000  0.5355150000000  0.5102890000000 1.0
C      1  0.4413440000000  0.4441870000000  0.4459560000000 1.0
C      1  0.5294360000000  0.4652730000000  0.4506070000000 1.0
C      1  0.5174190000000  0.5354120000000  0.4330300000000 1.0
C      1  0.3987540000000  0.4808490000000  0.5272190000000 1.0
C      1  0.4753410000000  0.4558360000000  0.4071660000000 1.0
C      1  0.4297470000000  0.5824960000000  0.5293240000000 1.0
C      1  0.5051450000000  0.4415400000000  0.4951310000000 1.0
C      1  0.4956630000000  0.5119470000000  0.5746570000000 1.0
C      1  0.4419870000000  0.4547480000000  0.4782720000000 1.0
C      1  0.5141590000000  0.4883750000000  0.6009830000000 1.0
C      1  0.4041220000000  0.5226940000000  0.4623120000000 1.0
C      1  0.5468080000000  0.5434020000000  0.5720240000000 1.0
C      1  0.5418420000000  0.4818000000000  0.4235840000000 1.0
C      1  0.5652730000000  0.5182400000000  0.3986770000000 1.0
C      1  0.4365480000000  0.4969960000000  0.4826990000000 1.0
C      1  0.5556560000000  0.5671880000000  0.5049080000000 1.0
C      1  0.5224190000000  0.5203940000000  0.5300910000000 1.0
C      1  0.5621790000000  0.5219960000000  0.5336800000000 1.0
C      1  0.3978540000000  0.5114040000000  0.5224020000000 1.0
C      1  0.5706550000000  0.5484460000000  0.4609160000000 1.0
C      1  0.4783540000000  0.4346430000000  0.5148970000000 1.0
C      1  0.4438560000000  0.5758340000000  0.4543660000000 1.0
C      1  0.5808020000000  0.4685950000000  0.5724840000000 1.0
C      1  0.4906570000000  0.4505620000000  0.5423050000000 1.0
C      1  0.4526020000000  0.4889740000000  0.5082560000000 1.0
C      1  0.4636620000000  0.5235130000000  0.5736470000000 1.0
C      1  0.4936960000000  0.4804590000000  0.3945200000000 1.0
C      1  0.5792650000000  0.5455340000000  0.4934910000000 1.0
C      1  0.5065100000000  0.4923840000000  0.4791450000000 1.0
C      1  0.4034830000000  0.5200520000000  0.4962060000000 1.0
C      1  0.4831960000000  0.5585130000000  0.4784070000000 1.0
C      1  0.4239550000000  0.4871040000000  0.4177380000000 1.0
C      1  0.5020510000000  0.4819180000000  0.4408010000000 1.0
C      1  0.4774420000000  0.5257510000000  0.4564990000000 1.0
C      1  0.4580530000000  0.4157370000000  0.4949770000000 1.0
C      1  0.5819730000000  0.4954790000000  0.5659890000000 1.0
C      1  0.5371150000000  0.4492430000000  0.4149790000000 1.0
C      1  0.5133450000000  0.4903320000000  0.5259110000000 1.0
C      1  0.5703280000000  0.4135380000000  0.4928370000000 1.0
C      1  0.4910730000000  0.5331580000000  0.6008410000000 1.0
C      1  0.5863110000000  0.5236580000000  0.4453340000000 1.0
C      1  0.4345750000000  0.5306960000000  0.4868720000000 1.0
C      1  0.4247630000000  0.5479210000000  0.4592470000000 1.0
C      1  0.5368610000000  0.5348720000000  0.4774030000000 1.0
C      1  0.5051080000000  0.5912920000000  0.4544750000000 1.0
C      1  0.5620830000000  0.4543430000000  0.5543930000000 1.0
C      1  0.4587010000000  0.4942480000000  0.5902450000000 1.0
END
