TITL C-2848499-1157-156 -0.00151702229810484 125000 -446.060289836693 0 0 83 (C1) n - 1
REM
REM in /home/bkarasulu/work/CARBON/AIRSS/Generating-Clusters/AIREBO/with-SteepDescent/Only-C1/SD-CG-opt/Try1-1.4A-POS3A/HFTN-CG
REM
REM
REM
REM
REM
REM ./C.cell (11c1c37f851c82e70ff6c80c92926a4b)
REM
REM compiler GCC version 9.2.1 20190827 (Red Hat 9.2.1-1)
REM options -cpp -mtune=generic -march=x86-64 -g -O0 -fpre-include=/usr/include/finclude/math-vector-fortran.h
REM seed 2022257212 541697241 1076538356 431986570 2019181561 -897229673 -1859558806 672557584 1120529461 2093132665 544124457 720897878 853201120 -1908148659 -2035043746 -478967508 -100230092 -536012181 -822895454 -815253213 659640699 1401013959 -926747756 -103718059 -1976681811 997603485 -1346172301 -1071468178 990349585 1502834627 -1360529006 1579587023 1235823565
REM
CELL 1.54180   50.00000   50.00000   50.00000   90.00000   90.00000   90.00000
LATT -1
SFAC C  
C      1  0.5372760000000  0.4365220000000  0.5229930000000 1.0
C      1  0.5265020000000  0.5499320000000  0.4409180000000 1.0
C      1  0.4526450000000  0.4924700000000  0.4014980000000 1.0
C      1  0.5525520000000  0.5275020000000  0.5456350000000 1.0
C      1  0.5393400000000  0.4706420000000  0.5959550000000 1.0
C      1  0.4534830000000  0.4739750000000  0.5469340000000 1.0
C      1  0.4617950000000  0.5767730000000  0.5082340000000 1.0
C      1  0.4556540000000  0.4496190000000  0.4669570000000 1.0
C      1  0.5483150000000  0.5592040000000  0.5093860000000 1.0
C      1  0.4579070000000  0.5267430000000  0.5540740000000 1.0
C      1  0.4321600000000  0.5282800000000  0.5318670000000 1.0
C      1  0.5481120000000  0.4676770000000  0.4585030000000 1.0
C      1  0.4587440000000  0.4976910000000  0.4263810000000 1.0
C      1  0.4975310000000  0.5342960000000  0.4352140000000 1.0
C      1  0.5078310000000  0.4578510000000  0.4041980000000 1.0
C      1  0.5010280000000  0.4711720000000  0.5606440000000 1.0
C      1  0.4603320000000  0.4776860000000  0.5054910000000 1.0
C      1  0.5006920000000  0.4844220000000  0.4655980000000 1.0
C      1  0.4653900000000  0.5251000000000  0.4354790000000 1.0
C      1  0.4204270000000  0.4801210000000  0.4922610000000 1.0
C      1  0.5530170000000  0.4721290000000  0.5147090000000 1.0
C      1  0.5318150000000  0.4955040000000  0.4676270000000 1.0
C      1  0.4905510000000  0.3998590000000  0.4920550000000 1.0
C      1  0.4382980000000  0.5506510000000  0.4699830000000 1.0
C      1  0.5670500000000  0.4623620000000  0.4790830000000 1.0
C      1  0.4961860000000  0.5911410000000  0.4695480000000 1.0
C      1  0.4903130000000  0.5637740000000  0.5482750000000 1.0
C      1  0.5101340000000  0.4530900000000  0.4310580000000 1.0
C      1  0.4395580000000  0.4522310000000  0.4958050000000 1.0
C      1  0.4965120000000  0.5104980000000  0.4788860000000 1.0
C      1  0.5605600000000  0.4421680000000  0.5033930000000 1.0
C      1  0.5502760000000  0.5656460000000  0.4291860000000 1.0
C      1  0.5074320000000  0.4522440000000  0.4742800000000 1.0
C      1  0.5340430000000  0.4219800000000  0.4569010000000 1.0
C      1  0.5742960000000  0.4811450000000  0.5370590000000 1.0
C      1  0.4581600000000  0.5303940000000  0.5119130000000 1.0
C      1  0.4883860000000  0.5329020000000  0.5221310000000 1.0
C      1  0.5015180000000  0.5208990000000  0.5752510000000 1.0
C      1  0.5269890000000  0.5178380000000  0.4296980000000 1.0
C      1  0.5297430000000  0.4605900000000  0.5458150000000 1.0
C      1  0.4165440000000  0.5466290000000  0.4873100000000 1.0
C      1  0.4659190000000  0.5512510000000  0.4861490000000 1.0
C      1  0.5741640000000  0.5311450000000  0.4964450000000 1.0
C      1  0.4852740000000  0.4977260000000  0.5563170000000 1.0
C      1  0.5290890000000  0.5125490000000  0.5643890000000 1.0
C      1  0.5625510000000  0.4974330000000  0.5566600000000 1.0
C      1  0.4060560000000  0.5009770000000  0.4998160000000 1.0
C      1  0.4801940000000  0.5391150000000  0.5606750000000 1.0
C      1  0.5269430000000  0.5030020000000  0.5168960000000 1.0
C      1  0.5348230000000  0.5293800000000  0.4667070000000 1.0
C      1  0.4733800000000  0.5025050000000  0.5247580000000 1.0
C      1  0.4307730000000  0.4294370000000  0.5083190000000 1.0
C      1  0.5383980000000  0.4808620000000  0.5702800000000 1.0
C      1  0.5723520000000  0.5161290000000  0.4703310000000 1.0
C      1  0.4796110000000  0.4631750000000  0.5280420000000 1.0
C      1  0.5463510000000  0.5551680000000  0.5366990000000 1.0
C      1  0.5236880000000  0.5700360000000  0.5498820000000 1.0
C      1  0.4543700000000  0.4979530000000  0.5700550000000 1.0
C      1  0.5582390000000  0.5226010000000  0.4429970000000 1.0
C      1  0.4305880000000  0.4990910000000  0.5462770000000 1.0
C      1  0.4824230000000  0.4475840000000  0.5581500000000 1.0
C      1  0.5182350000000  0.4198190000000  0.5123510000000 1.0
C      1  0.5008060000000  0.5229080000000  0.6031010000000 1.0
C      1  0.5699480000000  0.5482190000000  0.4288100000000 1.0
C      1  0.4132560000000  0.5270460000000  0.5072330000000 1.0
C      1  0.4812220000000  0.5303250000000  0.4641430000000 1.0
C      1  0.5095510000000  0.5213350000000  0.5028440000000 1.0
C      1  0.5344040000000  0.4476260000000  0.4445590000000 1.0
C      1  0.4843980000000  0.4526750000000  0.4492280000000 1.0
C      1  0.5114140000000  0.4738550000000  0.5222270000000 1.0
C      1  0.5570620000000  0.5115120000000  0.5177170000000 1.0
C      1  0.4473250000000  0.4845400000000  0.4748270000000 1.0
C      1  0.4953150000000  0.5670860000000  0.4796930000000 1.0
C      1  0.4910720000000  0.4096660000000  0.5215120000000 1.0
C      1  0.5216210000000  0.5497120000000  0.4905780000000 1.0
C      1  0.5707420000000  0.4918680000000  0.4934000000000 1.0
C      1  0.4611270000000  0.4768830000000  0.4467650000000 1.0
C      1  0.5129430000000  0.4215470000000  0.4798520000000 1.0
C      1  0.4759280000000  0.4280540000000  0.5345290000000 1.0
C      1  0.5095200000000  0.5580180000000  0.5214810000000 1.0
C      1  0.4702230000000  0.5810990000000  0.5313410000000 1.0
C      1  0.4421690000000  0.5453600000000  0.4435040000000 1.0
C      1  0.5274400000000  0.4723780000000  0.4922750000000 1.0
END
