TITL C-2847949-8115-345 -0.000795707366121032 125000 -255.539747966062 0 0 49 (C1) n - 1
REM
REM in /home/bkarasulu/work/CARBON/AIRSS/Generating-Clusters/AIREBO/with-SteepDescent/Only-C1/SD-CG-opt/Try1-1.4A-POS3A/HFTN-CG
REM
REM
REM
REM
REM
REM ./C.cell (11c1c37f851c82e70ff6c80c92926a4b)
REM
REM compiler GCC version 9.2.1 20190827 (Red Hat 9.2.1-1)
REM options -cpp -mtune=generic -march=x86-64 -g -O0 -fpre-include=/usr/include/finclude/math-vector-fortran.h
REM seed -116056771 285809808 267936615 -1605179691 1288251827 -1957994222 -460603914 882023657 -1329766602 181225962 -752378780 -1460248821 1973018667 102991626 466772057 1510350228 -874247633 1917132065 416073514 420971664 940831288 -1409408868 -663143207 -59274219 378706119 1329387705 2112318694 2002434237 -1227219249 -617590785 -616747883 1754642001 -1740069987
REM
CELL 1.54180   50.00000   50.00000   50.00000   90.00000   90.00000   90.00000
LATT -1
SFAC C  
C      1  0.4660240000000  0.4465420000000  0.4906860000000 1.0
C      1  0.4862990000000  0.4694600000000  0.5363080000000 1.0
C      1  0.4956120000000  0.5489090000000  0.5548160000000 1.0
C      1  0.5174370000000  0.4709210000000  0.5114180000000 1.0
C      1  0.5041780000000  0.4982470000000  0.4475520000000 1.0
C      1  0.5384640000000  0.5342060000000  0.4598230000000 1.0
C      1  0.5003780000000  0.5262000000000  0.5058220000000 1.0
C      1  0.5054210000000  0.4307660000000  0.5235330000000 1.0
C      1  0.5496190000000  0.5229380000000  0.5055950000000 1.0
C      1  0.4477450000000  0.4861960000000  0.4633540000000 1.0
C      1  0.5041060000000  0.4646930000000  0.4420180000000 1.0
C      1  0.4535640000000  0.4866970000000  0.5509590000000 1.0
C      1  0.4720680000000  0.5077930000000  0.4534320000000 1.0
C      1  0.4379900000000  0.4903980000000  0.5011500000000 1.0
C      1  0.4555210000000  0.4576080000000  0.5423460000000 1.0
C      1  0.5322890000000  0.5651500000000  0.5214550000000 1.0
C      1  0.5393830000000  0.4659600000000  0.5442320000000 1.0
C      1  0.5183200000000  0.4194700000000  0.4991700000000 1.0
C      1  0.5196240000000  0.5225830000000  0.4390280000000 1.0
C      1  0.5342200000000  0.4720630000000  0.4461300000000 1.0
C      1  0.4418330000000  0.4620000000000  0.4865000000000 1.0
C      1  0.5260770000000  0.5634040000000  0.4659440000000 1.0
C      1  0.4730240000000  0.4736180000000  0.4470580000000 1.0
C      1  0.4662670000000  0.5522360000000  0.5170390000000 1.0
C      1  0.4544240000000  0.5297260000000  0.5264500000000 1.0
C      1  0.4697760000000  0.4900620000000  0.4890740000000 1.0
C      1  0.4933850000000  0.4766670000000  0.5668010000000 1.0
C      1  0.5063660000000  0.5183800000000  0.5443910000000 1.0
C      1  0.4759010000000  0.4425560000000  0.5194820000000 1.0
C      1  0.4804920000000  0.5652120000000  0.5379390000000 1.0
C      1  0.4824990000000  0.5469840000000  0.4913590000000 1.0
C      1  0.4925990000000  0.4940390000000  0.5136550000000 1.0
C      1  0.5027970000000  0.5467460000000  0.4473780000000 1.0
C      1  0.5261010000000  0.4922440000000  0.5351140000000 1.0
C      1  0.4889400000000  0.4556380000000  0.4711330000000 1.0
C      1  0.5259570000000  0.5355540000000  0.5225180000000 1.0
C      1  0.5136010000000  0.4516760000000  0.4893430000000 1.0
C      1  0.5024450000000  0.4927990000000  0.4806490000000 1.0
C      1  0.5380320000000  0.5778680000000  0.4921030000000 1.0
C      1  0.4995340000000  0.5719670000000  0.4847790000000 1.0
C      1  0.5109690000000  0.5866000000000  0.5095250000000 1.0
C      1  0.5419130000000  0.4337060000000  0.4834790000000 1.0
C      1  0.5482670000000  0.4589240000000  0.4708170000000 1.0
C      1  0.5342900000000  0.4896580000000  0.4750430000000 1.0
C      1  0.4795440000000  0.5371470000000  0.4620000000000 1.0
C      1  0.5462340000000  0.5162420000000  0.4794360000000 1.0
C      1  0.4743220000000  0.5086550000000  0.5383250000000 1.0
C      1  0.5233060000000  0.4431280000000  0.5418020000000 1.0
C      1  0.5028430000000  0.4997580000000  0.5720380000000 1.0
END
