TITL C-2848504-8560-14 0.0324011115815019 125000 -106.914544468391 0 0 19 (C1) n - 1
REM
REM in /home/bkarasulu/work/CARBON/AIRSS/Generating-Clusters/AIREBO/with-SteepDescent/Only-C1/SD-CG-opt/Try1-1.4A-POS3A/HFTN-CG
REM
REM
REM
REM
REM
REM ./C.cell (11c1c37f851c82e70ff6c80c92926a4b)
REM
REM compiler GCC version 9.2.1 20190827 (Red Hat 9.2.1-1)
REM options -cpp -mtune=generic -march=x86-64 -g -O0 -fpre-include=/usr/include/finclude/math-vector-fortran.h
REM seed 1502922594 -2066400783 895501141 1077970021 663584600 -828363515 -438856243 440011931 1411134692 1466430203 -2010152120 -2055832702 -226713194 386006578 -1896305328 790256166 -1942244949 -278297781 -1819043231 -653947220 -976426831 811818664 -446315025 2086888032 1804947411 -1182843613 631131925 -286209565 1585528884 -2069491271 1731774801 916471617 1626026883
REM
CELL 1.54180   50.00000   50.00000   50.00000   90.00000   90.00000   90.00000
LATT -1
SFAC C  
C      1  0.5155290000000  0.5344890000000  0.5332940000000 1.0
C      1  0.4835210000000  0.4657400000000  0.4452070000000 1.0
C      1  0.5154010000000  0.5016540000000  0.4389300000000 1.0
C      1  0.5212030000000  0.5467860000000  0.5575040000000 1.0
C      1  0.4439120000000  0.4911100000000  0.4607340000000 1.0
C      1  0.5006270000000  0.4575560000000  0.5542580000000 1.0
C      1  0.4922180000000  0.4409090000000  0.4560040000000 1.0
C      1  0.5202770000000  0.5744670000000  0.5590940000000 1.0
C      1  0.4934200000000  0.4612290000000  0.5011350000000 1.0
C      1  0.5014530000000  0.5085240000000  0.4878850000000 1.0
C      1  0.4684740000000  0.4810380000000  0.4646530000000 1.0
C      1  0.5112700000000  0.5153180000000  0.4623430000000 1.0
C      1  0.4846750000000  0.4853990000000  0.4882920000000 1.0
C      1  0.4958700000000  0.4589120000000  0.5285180000000 1.0
C      1  0.4995570000000  0.4403200000000  0.4828130000000 1.0
C      1  0.5075650000000  0.5225660000000  0.5108510000000 1.0
C      1  0.5169200000000  0.6003710000000  0.5612800000000 1.0
C      1  0.5283690000000  0.5320380000000  0.5789880000000 1.0
C      1  0.4997390000000  0.4815760000000  0.4282170000000 1.0
END
