TITL C-2847944-5688-188 -0.00313669310763801 125000 -795.883696327342 0 0 147 (C1) n - 1
REM
REM in /home/bkarasulu/work/CARBON/AIRSS/Generating-Clusters/AIREBO/with-SteepDescent/Only-C1/SD-CG-opt/Try1-1.4A-POS3A/HFTN-CG
REM
REM
REM
REM
REM
REM ./C.cell (11c1c37f851c82e70ff6c80c92926a4b)
REM
REM compiler GCC version 9.2.1 20190827 (Red Hat 9.2.1-1)
REM options -cpp -mtune=generic -march=x86-64 -g -O0 -fpre-include=/usr/include/finclude/math-vector-fortran.h
REM seed -2006227699 1877320521 -268304789 -336210130 477290918 -911398822 1929517781 847939943 -564486341 384385634 -909668599 -41161109 -329950124 1453142115 -885262192 -1710712176 526393776 1193876077 422794835 -972980883 -2147393869 -818013297 312445880 -30682742 2138851749 -2127905210 782265443 891210444 1942309772 -1800809708 319480747 -1292296138 2012993977
REM
CELL 1.54180   50.00000   50.00000   50.00000   90.00000   90.00000   90.00000
LATT -1
SFAC C  
C      1  0.5517360000000  0.4794900000000  0.5345660000000 1.0
C      1  0.4414820000000  0.4860470000000  0.5747070000000 1.0
C      1  0.5111980000000  0.4308230000000  0.4963150000000 1.0
C      1  0.4832830000000  0.4626940000000  0.5618750000000 1.0
C      1  0.3941380000000  0.5071050000000  0.5211850000000 1.0
C      1  0.5887280000000  0.4565600000000  0.5034740000000 1.0
C      1  0.5150850000000  0.5420820000000  0.5322520000000 1.0
C      1  0.5431160000000  0.4082340000000  0.5134440000000 1.0
C      1  0.4510080000000  0.5173410000000  0.4119980000000 1.0
C      1  0.4234100000000  0.4689880000000  0.4600450000000 1.0
C      1  0.5542130000000  0.4687970000000  0.4874890000000 1.0
C      1  0.4485730000000  0.5265570000000  0.5011040000000 1.0
C      1  0.4436650000000  0.5532680000000  0.4807400000000 1.0
C      1  0.4608590000000  0.4628900000000  0.5363080000000 1.0
C      1  0.5258740000000  0.4643550000000  0.5910040000000 1.0
C      1  0.4354540000000  0.4578910000000  0.5690690000000 1.0
C      1  0.5145710000000  0.4997110000000  0.4258940000000 1.0
C      1  0.5994160000000  0.5046860000000  0.4793980000000 1.0
C      1  0.4962190000000  0.3863420000000  0.5216540000000 1.0
C      1  0.5090730000000  0.5794080000000  0.4315890000000 1.0
C      1  0.4823240000000  0.4781890000000  0.5917240000000 1.0
C      1  0.5408860000000  0.5785430000000  0.5342020000000 1.0
C      1  0.4402830000000  0.5539440000000  0.5548740000000 1.0
C      1  0.4567920000000  0.4218110000000  0.5319460000000 1.0
C      1  0.4758290000000  0.5605260000000  0.4939200000000 1.0
C      1  0.4046840000000  0.4824650000000  0.5337800000000 1.0
C      1  0.5011760000000  0.5396070000000  0.5604990000000 1.0
C      1  0.5260840000000  0.4757370000000  0.4438340000000 1.0
C      1  0.5622560000000  0.5686750000000  0.4885590000000 1.0
C      1  0.5487220000000  0.5438700000000  0.5050500000000 1.0
C      1  0.5290920000000  0.5204420000000  0.4476040000000 1.0
C      1  0.5968990000000  0.5337840000000  0.4912410000000 1.0
C      1  0.4640020000000  0.6003650000000  0.4758520000000 1.0
C      1  0.5955200000000  0.5367010000000  0.5414390000000 1.0
C      1  0.4914290000000  0.4392090000000  0.4699310000000 1.0
C      1  0.4972580000000  0.5680250000000  0.5192800000000 1.0
C      1  0.4955490000000  0.5259350000000  0.5885460000000 1.0
C      1  0.5852700000000  0.5014710000000  0.4522210000000 1.0
C      1  0.5084290000000  0.5457380000000  0.4570480000000 1.0
C      1  0.5082750000000  0.4832080000000  0.6014230000000 1.0
C      1  0.5628660000000  0.5058850000000  0.5675540000000 1.0
C      1  0.5443530000000  0.4779880000000  0.5734910000000 1.0
C      1  0.4255800000000  0.4227330000000  0.4795920000000 1.0
C      1  0.4730170000000  0.5913960000000  0.5240220000000 1.0
C      1  0.4480070000000  0.4841700000000  0.4185320000000 1.0
C      1  0.4515020000000  0.5562440000000  0.4477890000000 1.0
C      1  0.5031090000000  0.5186750000000  0.4943310000000 1.0
C      1  0.5809990000000  0.4702350000000  0.4389760000000 1.0
C      1  0.4116380000000  0.4570030000000  0.5475270000000 1.0
C      1  0.5520880000000  0.5377710000000  0.4656910000000 1.0
C      1  0.5638390000000  0.5575990000000  0.4331710000000 1.0
C      1  0.5619340000000  0.4201010000000  0.4926580000000 1.0
C      1  0.5120170000000  0.4792540000000  0.5167240000000 1.0
C      1  0.5436560000000  0.5069570000000  0.3997560000000 1.0
C      1  0.5434780000000  0.5871670000000  0.5069150000000 1.0
C      1  0.5423180000000  0.5226930000000  0.5883860000000 1.0
C      1  0.5826240000000  0.5301750000000  0.4411880000000 1.0
C      1  0.5486280000000  0.5707740000000  0.4582800000000 1.0
C      1  0.4480810000000  0.5791080000000  0.5352290000000 1.0
C      1  0.4708870000000  0.5406850000000  0.4267080000000 1.0
C      1  0.4619890000000  0.5498150000000  0.5219720000000 1.0
C      1  0.5545360000000  0.4869190000000  0.4519640000000 1.0
C      1  0.4365840000000  0.4824020000000  0.5230850000000 1.0
C      1  0.4440620000000  0.5021030000000  0.5494010000000 1.0
C      1  0.5167260000000  0.5103780000000  0.5982510000000 1.0
C      1  0.4675250000000  0.5723360000000  0.4145850000000 1.0
C      1  0.5535150000000  0.5263350000000  0.4246850000000 1.0
C      1  0.5145270000000  0.5817930000000  0.4934220000000 1.0
C      1  0.5787010000000  0.4615080000000  0.4711920000000 1.0
C      1  0.4782450000000  0.4954380000000  0.4106250000000 1.0
C      1  0.4888280000000  0.5711830000000  0.4649730000000 1.0
C      1  0.5220890000000  0.5006380000000  0.4747540000000 1.0
C      1  0.4551030000000  0.4345440000000  0.5638050000000 1.0
C      1  0.4384350000000  0.4758910000000  0.4897600000000 1.0
C      1  0.4830250000000  0.5684600000000  0.5811340000000 1.0
C      1  0.5286020000000  0.4284370000000  0.5599700000000 1.0
C      1  0.4331060000000  0.4438210000000  0.5319710000000 1.0
C      1  0.5169470000000  0.5126310000000  0.5238120000000 1.0
C      1  0.4861360000000  0.5243070000000  0.4659460000000 1.0
C      1  0.5380120000000  0.4780610000000  0.4023600000000 1.0
C      1  0.4846280000000  0.5993140000000  0.4957060000000 1.0
C      1  0.5159860000000  0.3982210000000  0.5020100000000 1.0
C      1  0.4492410000000  0.5046130000000  0.4751210000000 1.0
C      1  0.5830920000000  0.5518550000000  0.4675990000000 1.0
C      1  0.4523980000000  0.4253940000000  0.4984110000000 1.0
C      1  0.5175680000000  0.5270170000000  0.4083150000000 1.0
C      1  0.4051020000000  0.4808740000000  0.4933630000000 1.0
C      1  0.5036880000000  0.5485420000000  0.4234900000000 1.0
C      1  0.4675890000000  0.5224000000000  0.5980410000000 1.0
C      1  0.4961620000000  0.4639000000000  0.4478290000000 1.0
C      1  0.5535900000000  0.5070410000000  0.4758280000000 1.0
C      1  0.3868880000000  0.5397510000000  0.5150330000000 1.0
C      1  0.4632940000000  0.4204070000000  0.4665790000000 1.0
C      1  0.5783190000000  0.4500830000000  0.5347620000000 1.0
C      1  0.4167970000000  0.5331210000000  0.4714370000000 1.0
C      1  0.4826330000000  0.4335660000000  0.5794110000000 1.0
C      1  0.5200660000000  0.5837150000000  0.4599270000000 1.0
C      1  0.4637410000000  0.4414600000000  0.4411740000000 1.0
C      1  0.5932160000000  0.4863600000000  0.4988130000000 1.0
C      1  0.5483520000000  0.5476120000000  0.5366880000000 1.0
C      1  0.5359870000000  0.4440310000000  0.4409950000000 1.0
C      1  0.4502960000000  0.4682860000000  0.4454500000000 1.0
C      1  0.4730620000000  0.5021550000000  0.5382440000000 1.0
C      1  0.4732490000000  0.4748390000000  0.5092770000000 1.0
C      1  0.4131490000000  0.4401030000000  0.4663090000000 1.0
C      1  0.5749650000000  0.4755560000000  0.5578760000000 1.0
C      1  0.5431400000000  0.4331490000000  0.4715280000000 1.0
C      1  0.5199450000000  0.5485060000000  0.4889290000000 1.0
C      1  0.4649460000000  0.4543620000000  0.4869570000000 1.0
C      1  0.5276190000000  0.5480410000000  0.5801670000000 1.0
C      1  0.4735020000000  0.5551170000000  0.5535310000000 1.0
C      1  0.4387870000000  0.5868830000000  0.4822950000000 1.0
C      1  0.4215480000000  0.5514390000000  0.4476200000000 1.0
C      1  0.4191460000000  0.5288460000000  0.5173730000000 1.0
C      1  0.5237740000000  0.4585900000000  0.4831120000000 1.0
C      1  0.5266930000000  0.4033380000000  0.4719640000000 1.0
C      1  0.4599400000000  0.4948910000000  0.5941710000000 1.0
C      1  0.5447420000000  0.4464770000000  0.5387850000000 1.0
C      1  0.5163530000000  0.4060310000000  0.5500160000000 1.0
C      1  0.4392130000000  0.5066080000000  0.4425180000000 1.0
C      1  0.5546320000000  0.4615110000000  0.4201790000000 1.0
C      1  0.5705940000000  0.4195890000000  0.5244710000000 1.0
C      1  0.3967010000000  0.5111860000000  0.4879040000000 1.0
C      1  0.5683390000000  0.5198700000000  0.4999650000000 1.0
C      1  0.5138320000000  0.4412650000000  0.5801840000000 1.0
C      1  0.4788520000000  0.5102280000000  0.4395930000000 1.0
C      1  0.4698980000000  0.5532940000000  0.6021810000000 1.0
C      1  0.4973550000000  0.4862960000000  0.5461090000000 1.0
C      1  0.5143240000000  0.5824380000000  0.5449450000000 1.0
C      1  0.5121140000000  0.4214130000000  0.4496330000000 1.0
C      1  0.4888870000000  0.4472470000000  0.4203400000000 1.0
C      1  0.5624910000000  0.4881810000000  0.5096970000000 1.0
C      1  0.4949260000000  0.4385380000000  0.5409710000000 1.0
C      1  0.5704300000000  0.5306150000000  0.5494430000000 1.0
C      1  0.4836110000000  0.4079260000000  0.5420680000000 1.0
C      1  0.5040620000000  0.4740590000000  0.4062030000000 1.0
C      1  0.4743390000000  0.4859260000000  0.4617890000000 1.0
C      1  0.6099210000000  0.5406960000000  0.5184310000000 1.0
C      1  0.4307680000000  0.5292500000000  0.5457670000000 1.0
C      1  0.5169180000000  0.4487000000000  0.5227180000000 1.0
C      1  0.5113800000000  0.5757250000000  0.5732750000000 1.0
C      1  0.4669150000000  0.5853710000000  0.4459880000000 1.0
C      1  0.5294890000000  0.4955000000000  0.5484180000000 1.0
C      1  0.4125350000000  0.5012400000000  0.4599360000000 1.0
C      1  0.4746890000000  0.5077990000000  0.5077970000000 1.0
C      1  0.5029220000000  0.4185040000000  0.4180860000000 1.0
C      1  0.4975000000000  0.4800060000000  0.4859860000000 1.0
END
