TITL C-2847955-7945-590 0.000458142688230284 125000 -455.495489184197 0 0 87 (C1) n - 1
REM
REM in /home/bkarasulu/work/CARBON/AIRSS/Generating-Clusters/AIREBO/with-SteepDescent/Only-C1/SD-CG-opt/Try1-1.4A-POS3A/HFTN-CG
REM
REM
REM
REM
REM
REM ./C.cell (11c1c37f851c82e70ff6c80c92926a4b)
REM
REM compiler GCC version 9.2.1 20190827 (Red Hat 9.2.1-1)
REM options -cpp -mtune=generic -march=x86-64 -g -O0 -fpre-include=/usr/include/finclude/math-vector-fortran.h
REM seed 205371605 127584648 -1318639870 -1716678957 105485347 -1629495382 -453251164 -1219406949 2089365683 -870887532 -1895464585 -307481234 -476059453 -1875164169 -1643274448 -478682504 -2066216445 -2044524132 88602080 1570854556 2077871300 -249564603 -1493209874 -845421461 1620520512 1303680649 -1228391644 677035003 -1560949061 1340171395 -725674268 1519424098 1632236018
REM
CELL 1.54180   50.00000   50.00000   50.00000   90.00000   90.00000   90.00000
LATT -1
SFAC C  
C      1  0.4310260000000  0.4849780000000  0.5370500000000 1.0
C      1  0.5242950000000  0.5241860000000  0.5207960000000 1.0
C      1  0.4931460000000  0.4630700000000  0.5568740000000 1.0
C      1  0.4997730000000  0.4985740000000  0.4253700000000 1.0
C      1  0.4788110000000  0.4646730000000  0.4437840000000 1.0
C      1  0.5425740000000  0.5233920000000  0.4860310000000 1.0
C      1  0.4115470000000  0.4731910000000  0.5163650000000 1.0
C      1  0.5867450000000  0.5444710000000  0.5444450000000 1.0
C      1  0.5696090000000  0.5177960000000  0.4440540000000 1.0
C      1  0.4774490000000  0.5779450000000  0.4512190000000 1.0
C      1  0.5430770000000  0.4436170000000  0.5120390000000 1.0
C      1  0.4753820000000  0.4342680000000  0.4695020000000 1.0
C      1  0.4450770000000  0.4572060000000  0.5480810000000 1.0
C      1  0.4856510000000  0.5753160000000  0.5472560000000 1.0
C      1  0.4618800000000  0.5516080000000  0.4446390000000 1.0
C      1  0.4471750000000  0.5079800000000  0.5654480000000 1.0
C      1  0.5199900000000  0.5682060000000  0.4791480000000 1.0
C      1  0.5142720000000  0.4425800000000  0.4731940000000 1.0
C      1  0.4989970000000  0.5458270000000  0.5218040000000 1.0
C      1  0.4210550000000  0.5209070000000  0.4697100000000 1.0
C      1  0.4659320000000  0.4824420000000  0.5561680000000 1.0
C      1  0.5749730000000  0.4712800000000  0.4784580000000 1.0
C      1  0.4584320000000  0.5023100000000  0.4951050000000 1.0
C      1  0.5022330000000  0.5289380000000  0.5770250000000 1.0
C      1  0.5021830000000  0.5182520000000  0.4524180000000 1.0
C      1  0.5009290000000  0.5273930000000  0.5489140000000 1.0
C      1  0.4767350000000  0.5370380000000  0.5001560000000 1.0
C      1  0.5642580000000  0.4646390000000  0.4496460000000 1.0
C      1  0.5901340000000  0.4900140000000  0.4920540000000 1.0
C      1  0.4588560000000  0.5742420000000  0.5291780000000 1.0
C      1  0.4887550000000  0.5771010000000  0.5132430000000 1.0
C      1  0.5022890000000  0.4716820000000  0.4795190000000 1.0
C      1  0.5711490000000  0.5160460000000  0.5029340000000 1.0
C      1  0.5450020000000  0.4410520000000  0.5394890000000 1.0
C      1  0.5794250000000  0.5157750000000  0.5360930000000 1.0
C      1  0.4763920000000  0.4674650000000  0.5011700000000 1.0
C      1  0.5412300000000  0.4607850000000  0.4315640000000 1.0
C      1  0.4994210000000  0.4387730000000  0.4458790000000 1.0
C      1  0.5323500000000  0.5502100000000  0.5003340000000 1.0
C      1  0.5698880000000  0.5647040000000  0.5375880000000 1.0
C      1  0.4612010000000  0.4957130000000  0.5252230000000 1.0
C      1  0.4572680000000  0.5744190000000  0.4769710000000 1.0
C      1  0.5164280000000  0.5026240000000  0.4795280000000 1.0
C      1  0.5050170000000  0.4712300000000  0.5191410000000 1.0
C      1  0.5615340000000  0.4704960000000  0.5633760000000 1.0
C      1  0.4205970000000  0.5396260000000  0.4953880000000 1.0
C      1  0.5093120000000  0.4660580000000  0.4281680000000 1.0
C      1  0.5247060000000  0.4571710000000  0.5529460000000 1.0
C      1  0.4417650000000  0.4795170000000  0.4453220000000 1.0
C      1  0.6009040000000  0.4957480000000  0.5193750000000 1.0
C      1  0.5583810000000  0.5029820000000  0.5536690000000 1.0
C      1  0.4357590000000  0.5510040000000  0.4668720000000 1.0
C      1  0.4198330000000  0.5332900000000  0.5224360000000 1.0
C      1  0.5527340000000  0.5667990000000  0.5169620000000 1.0
C      1  0.4938750000000  0.4998940000000  0.5336660000000 1.0
C      1  0.4645030000000  0.5036450000000  0.5899630000000 1.0
C      1  0.5367860000000  0.4886490000000  0.5756870000000 1.0
C      1  0.4793170000000  0.4880170000000  0.4644840000000 1.0
C      1  0.4284290000000  0.5169030000000  0.5437050000000 1.0
C      1  0.4551770000000  0.5576980000000  0.5039170000000 1.0
C      1  0.5402660000000  0.4838610000000  0.4641710000000 1.0
C      1  0.5420740000000  0.4808010000000  0.5370690000000 1.0
C      1  0.5710280000000  0.5245230000000  0.4698980000000 1.0
C      1  0.4908050000000  0.5757520000000  0.4824720000000 1.0
C      1  0.4776100000000  0.4335540000000  0.5034490000000 1.0
C      1  0.4926240000000  0.5071520000000  0.5034070000000 1.0
C      1  0.4476760000000  0.4913590000000  0.4216110000000 1.0
C      1  0.4728990000000  0.4518460000000  0.5317380000000 1.0
C      1  0.4748180000000  0.5197300000000  0.4709380000000 1.0
C      1  0.4771190000000  0.5305410000000  0.4329300000000 1.0
C      1  0.5109770000000  0.4400480000000  0.5069450000000 1.0
C      1  0.4373890000000  0.4963110000000  0.4717510000000 1.0
C      1  0.4929930000000  0.5044820000000  0.5881130000000 1.0
C      1  0.5348120000000  0.5795360000000  0.4607410000000 1.0
C      1  0.5482950000000  0.4682190000000  0.4949740000000 1.0
C      1  0.5290980000000  0.4145460000000  0.4822200000000 1.0
C      1  0.5115950000000  0.5498150000000  0.5910380000000 1.0
C      1  0.5188120000000  0.4064730000000  0.5070490000000 1.0
C      1  0.5094570000000  0.4827330000000  0.5794080000000 1.0
C      1  0.4210480000000  0.4595140000000  0.4975910000000 1.0
C      1  0.4479070000000  0.4658260000000  0.4826160000000 1.0
C      1  0.5491940000000  0.4995120000000  0.4375990000000 1.0
C      1  0.4699860000000  0.5072010000000  0.4149280000000 1.0
C      1  0.4687200000000  0.4054330000000  0.4865240000000 1.0
C      1  0.5293880000000  0.4925680000000  0.5093290000000 1.0
C      1  0.4505860000000  0.4492200000000  0.4535200000000 1.0
C      1  0.5311950000000  0.4980270000000  0.4174310000000 1.0
END
