TITL C-2848494-1720-311 -0.00193775669558475 125000 -968.621381054111 0 0 183 (C1) n - 1
REM
REM in /home/bkarasulu/work/CARBON/AIRSS/Generating-Clusters/AIREBO/with-SteepDescent/Only-C1/SD-CG-opt/Try1-1.4A-POS3A/HFTN-CG
REM
REM
REM
REM
REM
REM ./C.cell (11c1c37f851c82e70ff6c80c92926a4b)
REM
REM compiler GCC version 9.2.1 20190827 (Red Hat 9.2.1-1)
REM options -cpp -mtune=generic -march=x86-64 -g -O0 -fpre-include=/usr/include/finclude/math-vector-fortran.h
REM seed -2079389582 761047999 1601258846 363893723 1509283584 -15422369 428967927 -781006065 -112467740 -4156346 190412358 110388781 1364528319 -510281907 122388057 1662294470 297964807 646632330 -291614723 -391749010 -1889348229 1035487281 -2123426531 -840978142 605064355 -1052721710 811037323 879075227 172302070 18886762 -1716337649 -370161248 1642562991
REM
CELL 1.54180   50.00000   50.00000   50.00000   90.00000   90.00000   90.00000
LATT -1
SFAC C  
C      1  0.5055340000000  0.5052490000000  0.5811370000000 1.0
C      1  0.5328040000000  0.4452780000000  0.5292020000000 1.0
C      1  0.4145150000000  0.4720840000000  0.5249790000000 1.0
C      1  0.4795070000000  0.5751500000000  0.4808410000000 1.0
C      1  0.4810610000000  0.4464600000000  0.5867140000000 1.0
C      1  0.4861350000000  0.4691120000000  0.4546330000000 1.0
C      1  0.5165920000000  0.3896180000000  0.5770500000000 1.0
C      1  0.5180910000000  0.5666620000000  0.5152500000000 1.0
C      1  0.5555760000000  0.4411560000000  0.4100030000000 1.0
C      1  0.5134660000000  0.5808560000000  0.5547010000000 1.0
C      1  0.5020460000000  0.4731110000000  0.5891320000000 1.0
C      1  0.4520720000000  0.4585810000000  0.5627610000000 1.0
C      1  0.4224640000000  0.4342190000000  0.4675790000000 1.0
C      1  0.5285830000000  0.4851500000000  0.4075150000000 1.0
C      1  0.5069050000000  0.4468710000000  0.4870000000000 1.0
C      1  0.3966630000000  0.5269910000000  0.4928010000000 1.0
C      1  0.4080900000000  0.5378020000000  0.4685280000000 1.0
C      1  0.4615560000000  0.5987080000000  0.5075160000000 1.0
C      1  0.4700900000000  0.4607420000000  0.4805280000000 1.0
C      1  0.4752330000000  0.4062920000000  0.5628690000000 1.0
C      1  0.4266680000000  0.4819670000000  0.4427780000000 1.0
C      1  0.4600620000000  0.4893040000000  0.5216470000000 1.0
C      1  0.4572280000000  0.4975710000000  0.5624430000000 1.0
C      1  0.4175030000000  0.4326280000000  0.5228310000000 1.0
C      1  0.5617210000000  0.5314360000000  0.3918120000000 1.0
C      1  0.4946260000000  0.4742140000000  0.4969770000000 1.0
C      1  0.4711370000000  0.5757460000000  0.4069620000000 1.0
C      1  0.5974460000000  0.5158110000000  0.5324980000000 1.0
C      1  0.4254160000000  0.5337810000000  0.4434670000000 1.0
C      1  0.5519540000000  0.5370530000000  0.5222760000000 1.0
C      1  0.5545980000000  0.5417450000000  0.4897010000000 1.0
C      1  0.5070210000000  0.5867480000000  0.5860510000000 1.0
C      1  0.5349000000000  0.4538470000000  0.5616220000000 1.0
C      1  0.4082080000000  0.3884000000000  0.4741000000000 1.0
C      1  0.5914780000000  0.4912710000000  0.5521670000000 1.0
C      1  0.5806470000000  0.4307750000000  0.4621520000000 1.0
C      1  0.4857460000000  0.5041550000000  0.5535040000000 1.0
C      1  0.5261170000000  0.5151930000000  0.4813970000000 1.0
C      1  0.5336190000000  0.5287640000000  0.4527680000000 1.0
C      1  0.4749090000000  0.5494460000000  0.4507800000000 1.0
C      1  0.5376160000000  0.4763470000000  0.4552040000000 1.0
C      1  0.5958840000000  0.4458510000000  0.4885600000000 1.0
C      1  0.5675320000000  0.6135400000000  0.5143730000000 1.0
C      1  0.4626700000000  0.5204340000000  0.6143460000000 1.0
C      1  0.4759230000000  0.4653250000000  0.5398390000000 1.0
C      1  0.4606510000000  0.5485720000000  0.4208660000000 1.0
C      1  0.5753130000000  0.4839030000000  0.5230570000000 1.0
C      1  0.4714990000000  0.4389690000000  0.5188130000000 1.0
C      1  0.5611430000000  0.5592830000000  0.3914400000000 1.0
C      1  0.5255930000000  0.6021690000000  0.4785860000000 1.0
C      1  0.4666070000000  0.4098130000000  0.5355920000000 1.0
C      1  0.5073420000000  0.5209610000000  0.5046810000000 1.0
C      1  0.4502010000000  0.5039290000000  0.4793070000000 1.0
C      1  0.4362050000000  0.5098910000000  0.5205290000000 1.0
C      1  0.5381530000000  0.4902740000000  0.5097290000000 1.0
C      1  0.4201440000000  0.5059610000000  0.5898480000000 1.0
C      1  0.4625410000000  0.3722240000000  0.4940490000000 1.0
C      1  0.4228520000000  0.4481040000000  0.5700230000000 1.0
C      1  0.5703670000000  0.5787570000000  0.4411900000000 1.0
C      1  0.4892660000000  0.5728190000000  0.5322040000000 1.0
C      1  0.4463160000000  0.5071910000000  0.4471220000000 1.0
C      1  0.5467350000000  0.5135930000000  0.4032800000000 1.0
C      1  0.4062090000000  0.4997430000000  0.5107670000000 1.0
C      1  0.5147860000000  0.6032960000000  0.5308710000000 1.0
C      1  0.5365870000000  0.6022990000000  0.5105620000000 1.0
C      1  0.5812980000000  0.5425710000000  0.5377690000000 1.0
C      1  0.5111050000000  0.4249990000000  0.5476060000000 1.0
C      1  0.3886210000000  0.5140410000000  0.5369750000000 1.0
C      1  0.4395370000000  0.5649210000000  0.4403760000000 1.0
C      1  0.5910720000000  0.5682610000000  0.5228650000000 1.0
C      1  0.5185480000000  0.5372680000000  0.5323460000000 1.0
C      1  0.4416780000000  0.5244670000000  0.5485930000000 1.0
C      1  0.6064420000000  0.4999250000000  0.4788600000000 1.0
C      1  0.4898680000000  0.4303470000000  0.4636500000000 1.0
C      1  0.5193210000000  0.3790610000000  0.5519900000000 1.0
C      1  0.4497250000000  0.4048450000000  0.4996730000000 1.0
C      1  0.4302050000000  0.5484420000000  0.5291610000000 1.0
C      1  0.4550660000000  0.4435490000000  0.4212180000000 1.0
C      1  0.5379560000000  0.5888180000000  0.4498420000000 1.0
C      1  0.4916580000000  0.4868050000000  0.3897940000000 1.0
C      1  0.4948670000000  0.5665120000000  0.5988370000000 1.0
C      1  0.4520880000000  0.5210280000000  0.4165870000000 1.0
C      1  0.4353620000000  0.4068590000000  0.5305980000000 1.0
C      1  0.4579980000000  0.5928600000000  0.4470020000000 1.0
C      1  0.4432350000000  0.4738890000000  0.4866910000000 1.0
C      1  0.5275080000000  0.4863980000000  0.5640280000000 1.0
C      1  0.5501250000000  0.4629440000000  0.5139220000000 1.0
C      1  0.5796740000000  0.4759010000000  0.5732350000000 1.0
C      1  0.4833670000000  0.4428500000000  0.4351860000000 1.0
C      1  0.4184190000000  0.4249110000000  0.5544150000000 1.0
C      1  0.5532820000000  0.5137950000000  0.5970930000000 1.0
C      1  0.5498800000000  0.5426500000000  0.5793930000000 1.0
C      1  0.5614900000000  0.4808090000000  0.5958020000000 1.0
C      1  0.5590270000000  0.4132280000000  0.4656700000000 1.0
C      1  0.5869130000000  0.5503970000000  0.4503270000000 1.0
C      1  0.5349060000000  0.4429460000000  0.4770180000000 1.0
C      1  0.3907450000000  0.4516180000000  0.5205960000000 1.0
C      1  0.4253260000000  0.4094110000000  0.4783910000000 1.0
C      1  0.4878880000000  0.6098810000000  0.5173390000000 1.0
C      1  0.5234770000000  0.5092090000000  0.6086010000000 1.0
C      1  0.4888860000000  0.5157270000000  0.4670880000000 1.0
C      1  0.4452840000000  0.5810930000000  0.5567990000000 1.0
C      1  0.5446110000000  0.4164180000000  0.4954540000000 1.0
C      1  0.4847220000000  0.5376860000000  0.6139710000000 1.0
C      1  0.5571110000000  0.4682040000000  0.4149590000000 1.0
C      1  0.5024990000000  0.5054290000000  0.4160940000000 1.0
C      1  0.4790490000000  0.5036030000000  0.4973100000000 1.0
C      1  0.4470470000000  0.5286940000000  0.4988040000000 1.0
C      1  0.4753580000000  0.5703980000000  0.5607790000000 1.0
C      1  0.5742280000000  0.4595520000000  0.4579340000000 1.0
C      1  0.5700000000000  0.5752140000000  0.3711260000000 1.0
C      1  0.4667450000000  0.5380160000000  0.5671550000000 1.0
C      1  0.5552150000000  0.4673470000000  0.4818280000000 1.0
C      1  0.6054700000000  0.5225450000000  0.4568620000000 1.0
C      1  0.5014000000000  0.4199120000000  0.5797940000000 1.0
C      1  0.5891760000000  0.5066490000000  0.5019250000000 1.0
C      1  0.6135790000000  0.4730330000000  0.4798810000000 1.0
C      1  0.5377010000000  0.5031520000000  0.4348840000000 1.0
C      1  0.4812890000000  0.3956120000000  0.5084020000000 1.0
C      1  0.5733090000000  0.5504590000000  0.5668980000000 1.0
C      1  0.5457890000000  0.5576910000000  0.4472720000000 1.0
C      1  0.4457610000000  0.4681550000000  0.4105000000000 1.0
C      1  0.4642420000000  0.4928170000000  0.6157810000000 1.0
C      1  0.4854400000000  0.5334150000000  0.5390950000000 1.0
C      1  0.4704810000000  0.5426910000000  0.5139140000000 1.0
C      1  0.4200530000000  0.4809440000000  0.5788380000000 1.0
C      1  0.5107930000000  0.4068370000000  0.4674740000000 1.0
C      1  0.5243320000000  0.3828130000000  0.5257470000000 1.0
C      1  0.5252220000000  0.5041300000000  0.5361030000000 1.0
C      1  0.4198970000000  0.4660640000000  0.4677910000000 1.0
C      1  0.5345900000000  0.4080520000000  0.4511110000000 1.0
C      1  0.5781700000000  0.4191820000000  0.5002230000000 1.0
C      1  0.5827600000000  0.5034080000000  0.4435310000000 1.0
C      1  0.4574590000000  0.6006570000000  0.4764270000000 1.0
C      1  0.4556860000000  0.5707840000000  0.5261070000000 1.0
C      1  0.5567340000000  0.5084630000000  0.4947560000000 1.0
C      1  0.4417420000000  0.5584950000000  0.5777530000000 1.0
C      1  0.4777000000000  0.5942540000000  0.4267970000000 1.0
C      1  0.5513760000000  0.5052710000000  0.5662640000000 1.0
C      1  0.4496650000000  0.5622130000000  0.4708930000000 1.0
C      1  0.4671110000000  0.4882710000000  0.4093010000000 1.0
C      1  0.4204810000000  0.5123780000000  0.4171230000000 1.0
C      1  0.3969980000000  0.4803570000000  0.4843930000000 1.0
C      1  0.5139460000000  0.4028210000000  0.5011290000000 1.0
C      1  0.4904880000000  0.4941990000000  0.3632920000000 1.0
C      1  0.5740000000000  0.4777980000000  0.4362700000000 1.0
C      1  0.5912360000000  0.4546400000000  0.5195870000000 1.0
C      1  0.3995160000000  0.5376110000000  0.5214300000000 1.0
C      1  0.4417510000000  0.4547270000000  0.5138700000000 1.0
C      1  0.5316710000000  0.4238610000000  0.4234320000000 1.0
C      1  0.4152960000000  0.5719730000000  0.5096640000000 1.0
C      1  0.5489570000000  0.5700950000000  0.4157730000000 1.0
C      1  0.5021970000000  0.5877680000000  0.4963690000000 1.0
C      1  0.4991380000000  0.4867850000000  0.5275170000000 1.0
C      1  0.4185530000000  0.4819140000000  0.4135230000000 1.0
C      1  0.5172910000000  0.5671040000000  0.4212130000000 1.0
C      1  0.4971620000000  0.5368760000000  0.5823280000000 1.0
C      1  0.5108160000000  0.4916740000000  0.4620110000000 1.0
C      1  0.5254410000000  0.4351020000000  0.5984670000000 1.0
C      1  0.5046700000000  0.4324290000000  0.5150570000000 1.0
C      1  0.4315730000000  0.4803330000000  0.5482490000000 1.0
C      1  0.5409490000000  0.4593960000000  0.5946280000000 1.0
C      1  0.5009050000000  0.4548110000000  0.5603910000000 1.0
C      1  0.5228610000000  0.5493380000000  0.5638520000000 1.0
C      1  0.4678390000000  0.4297730000000  0.4863030000000 1.0
C      1  0.5850160000000  0.4394960000000  0.5417000000000 1.0
C      1  0.5301780000000  0.4472430000000  0.4451780000000 1.0
C      1  0.5079890000000  0.5348510000000  0.4157290000000 1.0
C      1  0.5724630000000  0.5848100000000  0.5123930000000 1.0
C      1  0.4813430000000  0.5421580000000  0.4833680000000 1.0
C      1  0.5052850000000  0.4390500000000  0.4150350000000 1.0
C      1  0.4285790000000  0.5506610000000  0.4882860000000 1.0
C      1  0.5143200000000  0.6196370000000  0.4553020000000 1.0
C      1  0.5077190000000  0.5962350000000  0.4329900000000 1.0
C      1  0.5688450000000  0.4516260000000  0.5616450000000 1.0
C      1  0.5475690000000  0.5700990000000  0.5003060000000 1.0
C      1  0.5054510000000  0.5465030000000  0.4458130000000 1.0
C      1  0.4434180000000  0.5284360000000  0.5924380000000 1.0
C      1  0.5664600000000  0.5270480000000  0.4614250000000 1.0
C      1  0.4641270000000  0.4759110000000  0.5887230000000 1.0
C      1  0.5089310000000  0.4613500000000  0.3976600000000 1.0
C      1  0.5587320000000  0.5096450000000  0.5378380000000 1.0
C      1  0.4783620000000  0.4985190000000  0.4397120000000 1.0
END
