TITL C-2848508-1660-455 0.000696648365448183 125000 -650.427572700802 0 0 121 (C1) n - 1
REM
REM in /home/bkarasulu/work/CARBON/AIRSS/Generating-Clusters/AIREBO/with-SteepDescent/Only-C1/SD-CG-opt/Try1-1.4A-POS3A/HFTN-CG
REM
REM
REM
REM
REM
REM ./C.cell (11c1c37f851c82e70ff6c80c92926a4b)
REM
REM compiler GCC version 9.2.1 20190827 (Red Hat 9.2.1-1)
REM options -cpp -mtune=generic -march=x86-64 -g -O0 -fpre-include=/usr/include/finclude/math-vector-fortran.h
REM seed 586128399 1725509792 -155411790 802386321 1037243838 -1445440390 -1295445819 849775455 111117365 2066109581 -1415585936 866163738 -1246382817 472415326 413700432 149345646 -998073895 -1349452870 -943614655 1686125771 -451513767 -1291645684 788222184 -692759550 -1273880042 -798352023 1529317326 315937850 271520940 -872754075 74394764 -2078873236 1298726193
REM
CELL 1.54180   50.00000   50.00000   50.00000   90.00000   90.00000   90.00000
LATT -1
SFAC C  
C      1  0.4596770000000  0.4954080000000  0.5333400000000 1.0
C      1  0.4665380000000  0.4168800000000  0.4536440000000 1.0
C      1  0.4865770000000  0.5034370000000  0.5530770000000 1.0
C      1  0.4809870000000  0.4003550000000  0.4760110000000 1.0
C      1  0.5591440000000  0.4446180000000  0.5348680000000 1.0
C      1  0.4470190000000  0.4536050000000  0.5472220000000 1.0
C      1  0.4415290000000  0.4660440000000  0.5788520000000 1.0
C      1  0.4331080000000  0.4843580000000  0.5514620000000 1.0
C      1  0.4743420000000  0.5599200000000  0.4768670000000 1.0
C      1  0.5169380000000  0.5905350000000  0.5510940000000 1.0
C      1  0.4481690000000  0.6043590000000  0.4924520000000 1.0
C      1  0.5160650000000  0.5481650000000  0.5348950000000 1.0
C      1  0.4349070000000  0.5578330000000  0.4710120000000 1.0
C      1  0.5278070000000  0.5648960000000  0.4538910000000 1.0
C      1  0.4539240000000  0.5128600000000  0.5841460000000 1.0
C      1  0.5125410000000  0.4117380000000  0.4686140000000 1.0
C      1  0.4521920000000  0.5068630000000  0.4597750000000 1.0
C      1  0.4087210000000  0.4892040000000  0.5202370000000 1.0
C      1  0.5187490000000  0.5251820000000  0.5125640000000 1.0
C      1  0.5635910000000  0.5384200000000  0.5185670000000 1.0
C      1  0.5795480000000  0.4496630000000  0.4877070000000 1.0
C      1  0.4873430000000  0.4801870000000  0.5779000000000 1.0
C      1  0.4939220000000  0.5295340000000  0.4320260000000 1.0
C      1  0.5027380000000  0.4325880000000  0.4226990000000 1.0
C      1  0.4832340000000  0.4821390000000  0.4550070000000 1.0
C      1  0.5535080000000  0.5151160000000  0.4850060000000 1.0
C      1  0.5841110000000  0.4933900000000  0.4591640000000 1.0
C      1  0.4749800000000  0.5523740000000  0.4442430000000 1.0
C      1  0.5124760000000  0.4827870000000  0.5956530000000 1.0
C      1  0.4416950000000  0.4582290000000  0.5010480000000 1.0
C      1  0.5399670000000  0.5078910000000  0.5667810000000 1.0
C      1  0.4331220000000  0.5156750000000  0.5644630000000 1.0
C      1  0.5467990000000  0.5085700000000  0.4336770000000 1.0
C      1  0.5466500000000  0.4235340000000  0.4332020000000 1.0
C      1  0.5793660000000  0.5016970000000  0.5169720000000 1.0
C      1  0.4938860000000  0.4378830000000  0.4798680000000 1.0
C      1  0.4357770000000  0.4348130000000  0.5237880000000 1.0
C      1  0.5166350000000  0.4868390000000  0.4894500000000 1.0
C      1  0.4999900000000  0.4902020000000  0.5158140000000 1.0
C      1  0.4334090000000  0.5368850000000  0.5427300000000 1.0
C      1  0.5170040000000  0.5066030000000  0.6082080000000 1.0
C      1  0.4767800000000  0.4525120000000  0.4240000000000 1.0
C      1  0.4069240000000  0.5298880000000  0.5064340000000 1.0
C      1  0.5315120000000  0.5934800000000  0.4719560000000 1.0
C      1  0.5115620000000  0.4798950000000  0.4110540000000 1.0
C      1  0.4946310000000  0.4087040000000  0.4405460000000 1.0
C      1  0.5856430000000  0.4735540000000  0.4392870000000 1.0
C      1  0.5538690000000  0.4656310000000  0.4617480000000 1.0
C      1  0.4715430000000  0.5039220000000  0.4316600000000 1.0
C      1  0.5182420000000  0.4948090000000  0.5441270000000 1.0
C      1  0.5264350000000  0.4569000000000  0.4245800000000 1.0
C      1  0.5585540000000  0.4343320000000  0.4741920000000 1.0
C      1  0.4792900000000  0.5600330000000  0.5691160000000 1.0
C      1  0.5090590000000  0.5016870000000  0.4443750000000 1.0
C      1  0.5368250000000  0.4950180000000  0.4632290000000 1.0
C      1  0.4747940000000  0.4950140000000  0.4822490000000 1.0
C      1  0.5551540000000  0.5540940000000  0.5471850000000 1.0
C      1  0.4769330000000  0.4078150000000  0.5287790000000 1.0
C      1  0.5710980000000  0.5172310000000  0.4497420000000 1.0
C      1  0.4082220000000  0.4882370000000  0.4713450000000 1.0
C      1  0.4714690000000  0.4503040000000  0.4575100000000 1.0
C      1  0.4923940000000  0.5174250000000  0.4969100000000 1.0
C      1  0.4763720000000  0.4461940000000  0.5400750000000 1.0
C      1  0.4669180000000  0.5445220000000  0.5224210000000 1.0
C      1  0.4836500000000  0.4785480000000  0.4152270000000 1.0
C      1  0.5061310000000  0.5983580000000  0.4565900000000 1.0
C      1  0.4027100000000  0.4710160000000  0.5444380000000 1.0
C      1  0.5411220000000  0.5547790000000  0.4900710000000 1.0
C      1  0.5260740000000  0.5214640000000  0.3901790000000 1.0
C      1  0.4509490000000  0.4081640000000  0.5230080000000 1.0
C      1  0.4696990000000  0.4759670000000  0.5089450000000 1.0
C      1  0.5414630000000  0.4173070000000  0.4601360000000 1.0
C      1  0.4932860000000  0.4512350000000  0.5681650000000 1.0
C      1  0.4099640000000  0.4702000000000  0.4948540000000 1.0
C      1  0.4900220000000  0.4489540000000  0.5100990000000 1.0
C      1  0.5303600000000  0.4276650000000  0.5302600000000 1.0
C      1  0.4496510000000  0.5738870000000  0.4957290000000 1.0
C      1  0.5842050000000  0.4828930000000  0.4897280000000 1.0
C      1  0.4322680000000  0.5118160000000  0.5207770000000 1.0
C      1  0.5462640000000  0.5093310000000  0.5154260000000 1.0
C      1  0.5132090000000  0.5695580000000  0.4060880000000 1.0
C      1  0.4416280000000  0.5202720000000  0.4891930000000 1.0
C      1  0.4092870000000  0.5146370000000  0.4803350000000 1.0
C      1  0.4991840000000  0.5840390000000  0.5300520000000 1.0
C      1  0.4481490000000  0.5401490000000  0.4540990000000 1.0
C      1  0.5673560000000  0.4641380000000  0.5133550000000 1.0
C      1  0.5775340000000  0.5392300000000  0.4884010000000 1.0
C      1  0.5335760000000  0.4528260000000  0.5529230000000 1.0
C      1  0.4744010000000  0.5703110000000  0.5410750000000 1.0
C      1  0.5532900000000  0.5708050000000  0.5174820000000 1.0
C      1  0.5586270000000  0.4551780000000  0.4298520000000 1.0
C      1  0.5283530000000  0.5628340000000  0.5615110000000 1.0
C      1  0.4430510000000  0.5658140000000  0.5282300000000 1.0
C      1  0.5377570000000  0.4779650000000  0.5220770000000 1.0
C      1  0.4080870000000  0.4497090000000  0.5209660000000 1.0
C      1  0.5214110000000  0.4466100000000  0.5832460000000 1.0
C      1  0.5694470000000  0.5658350000000  0.4748350000000 1.0
C      1  0.5264350000000  0.5240180000000  0.5895560000000 1.0
C      1  0.5845350000000  0.5119320000000  0.5423550000000 1.0
C      1  0.4799220000000  0.5273330000000  0.5763590000000 1.0
C      1  0.5231000000000  0.5079340000000  0.4140360000000 1.0
C      1  0.5083450000000  0.5460290000000  0.5796670000000 1.0
C      1  0.5456850000000  0.5369640000000  0.4614290000000 1.0
C      1  0.4674380000000  0.5357880000000  0.4948150000000 1.0
C      1  0.5222010000000  0.4528070000000  0.5097150000000 1.0
C      1  0.5149640000000  0.5658040000000  0.5075710000000 1.0
C      1  0.5109630000000  0.4479990000000  0.4522490000000 1.0
C      1  0.4895360000000  0.5330200000000  0.5382020000000 1.0
C      1  0.5115220000000  0.5567110000000  0.4288110000000 1.0
C      1  0.5088590000000  0.4082680000000  0.5351760000000 1.0
C      1  0.4601390000000  0.4854650000000  0.5897940000000 1.0
C      1  0.5597130000000  0.5759180000000  0.4497060000000 1.0
C      1  0.5478670000000  0.5939020000000  0.4934460000000 1.0
C      1  0.4875050000000  0.4199590000000  0.5580720000000 1.0
C      1  0.4865890000000  0.5826090000000  0.4463030000000 1.0
C      1  0.5386000000000  0.4753160000000  0.5764250000000 1.0
C      1  0.5636690000000  0.5237660000000  0.5557200000000 1.0
C      1  0.5274210000000  0.4589960000000  0.4779150000000 1.0
C      1  0.5043060000000  0.5649490000000  0.4784720000000 1.0
C      1  0.4320240000000  0.4820750000000  0.4575060000000 1.0
C      1  0.4435890000000  0.4584650000000  0.4688320000000 1.0
END
