TITL C-2848501-3133-358 0.00216962228737408 125000 -833.789191583156 0 0 156 (C1) n - 1
REM
REM in /home/bkarasulu/work/CARBON/AIRSS/Generating-Clusters/AIREBO/with-SteepDescent/Only-C1/SD-CG-opt/Try1-1.4A-POS3A/HFTN-CG
REM
REM
REM
REM
REM
REM ./C.cell (11c1c37f851c82e70ff6c80c92926a4b)
REM
REM compiler GCC version 9.2.1 20190827 (Red Hat 9.2.1-1)
REM options -cpp -mtune=generic -march=x86-64 -g -O0 -fpre-include=/usr/include/finclude/math-vector-fortran.h
REM seed -1603659398 -274466 2016085809 -2090695359 1097698417 601655832 -28246186 -1044937333 1137242851 -1853528535 1324117527 -1625171083 -111772511 -1115549484 -1195025442 2143926469 -1962445124 2060791712 236600056 1438928646 -665157845 902925107 -1369273618 -1968788734 2138658255 419875685 -323643892 -654646967 -649507450 647330765 1303502865 818006318 2017787297
REM
CELL 1.54180   50.00000   50.00000   50.00000   90.00000   90.00000   90.00000
LATT -1
SFAC C  
C      1  0.3728570000000  0.4777340000000  0.4724240000000 1.0
C      1  0.4004500000000  0.5211500000000  0.4734310000000 1.0
C      1  0.4630870000000  0.5579930000000  0.4226790000000 1.0
C      1  0.4574140000000  0.5005670000000  0.5446440000000 1.0
C      1  0.4316690000000  0.4973560000000  0.5260400000000 1.0
C      1  0.5743290000000  0.5532360000000  0.5193280000000 1.0
C      1  0.5886800000000  0.4281750000000  0.5296930000000 1.0
C      1  0.5471100000000  0.4049800000000  0.4897860000000 1.0
C      1  0.5395200000000  0.5973170000000  0.5406920000000 1.0
C      1  0.4746580000000  0.5816020000000  0.5378650000000 1.0
C      1  0.4253040000000  0.4753290000000  0.4711580000000 1.0
C      1  0.5373670000000  0.4790830000000  0.4117310000000 1.0
C      1  0.4435140000000  0.5405260000000  0.4367480000000 1.0
C      1  0.5092750000000  0.5338920000000  0.5389090000000 1.0
C      1  0.4806850000000  0.4269610000000  0.4498190000000 1.0
C      1  0.4112210000000  0.5046500000000  0.5714180000000 1.0
C      1  0.5561000000000  0.4547050000000  0.5783180000000 1.0
C      1  0.4712340000000  0.4511110000000  0.5545080000000 1.0
C      1  0.4698990000000  0.5272620000000  0.5367550000000 1.0
C      1  0.4985750000000  0.5352290000000  0.4043670000000 1.0
C      1  0.4353370000000  0.4461180000000  0.5127100000000 1.0
C      1  0.5230230000000  0.5717100000000  0.5412930000000 1.0
C      1  0.5960870000000  0.4840860000000  0.5143810000000 1.0
C      1  0.5386870000000  0.5154180000000  0.5943100000000 1.0
C      1  0.4892900000000  0.5802710000000  0.5143080000000 1.0
C      1  0.4538550000000  0.5852770000000  0.4967750000000 1.0
C      1  0.5145680000000  0.5010250000000  0.5665560000000 1.0
C      1  0.5182270000000  0.5594340000000  0.5788310000000 1.0
C      1  0.5066390000000  0.4498350000000  0.4965760000000 1.0
C      1  0.5678990000000  0.5016350000000  0.5144080000000 1.0
C      1  0.5985020000000  0.5084470000000  0.5380700000000 1.0
C      1  0.4076650000000  0.4298740000000  0.4893620000000 1.0
C      1  0.4822160000000  0.4494750000000  0.4728950000000 1.0
C      1  0.4693040000000  0.4813640000000  0.4962470000000 1.0
C      1  0.5459700000000  0.5644610000000  0.4737810000000 1.0
C      1  0.5307940000000  0.4738060000000  0.4965160000000 1.0
C      1  0.4124180000000  0.5350170000000  0.5024890000000 1.0
C      1  0.4862400000000  0.5415530000000  0.5629300000000 1.0
C      1  0.5270860000000  0.4837300000000  0.5930260000000 1.0
C      1  0.4580050000000  0.5297040000000  0.4655590000000 1.0
C      1  0.4623730000000  0.4046040000000  0.4857840000000 1.0
C      1  0.5578540000000  0.5764830000000  0.5007720000000 1.0
C      1  0.5758510000000  0.5564310000000  0.4096460000000 1.0
C      1  0.5553940000000  0.4350330000000  0.5307440000000 1.0
C      1  0.5157300000000  0.4388140000000  0.5274380000000 1.0
C      1  0.5201620000000  0.4302660000000  0.4751930000000 1.0
C      1  0.4949650000000  0.5739700000000  0.5587400000000 1.0
C      1  0.5236530000000  0.4595710000000  0.5693300000000 1.0
C      1  0.5474730000000  0.4019510000000  0.4623190000000 1.0
C      1  0.4940770000000  0.4497720000000  0.5751550000000 1.0
C      1  0.4376090000000  0.5586050000000  0.5725700000000 1.0
C      1  0.5170200000000  0.4710070000000  0.5383360000000 1.0
C      1  0.5073750000000  0.4631310000000  0.4565300000000 1.0
C      1  0.5682270000000  0.4220850000000  0.5029190000000 1.0
C      1  0.4424200000000  0.4236470000000  0.5257510000000 1.0
C      1  0.4244280000000  0.5460140000000  0.5512080000000 1.0
C      1  0.5232570000000  0.4241030000000  0.4181370000000 1.0
C      1  0.5137360000000  0.4553660000000  0.4147510000000 1.0
C      1  0.5403020000000  0.4321110000000  0.5581110000000 1.0
C      1  0.4257380000000  0.5228250000000  0.4246730000000 1.0
C      1  0.4519320000000  0.5203250000000  0.5964860000000 1.0
C      1  0.4889720000000  0.4889500000000  0.5831790000000 1.0
C      1  0.5478400000000  0.4849100000000  0.4412730000000 1.0
C      1  0.4619520000000  0.4964660000000  0.4666800000000 1.0
C      1  0.4903520000000  0.4329760000000  0.4188700000000 1.0
C      1  0.4845000000000  0.4146360000000  0.5071710000000 1.0
C      1  0.4830370000000  0.4015280000000  0.4646800000000 1.0
C      1  0.5025000000000  0.5616840000000  0.4175390000000 1.0
C      1  0.4219160000000  0.5105690000000  0.5954650000000 1.0
C      1  0.5733260000000  0.4778970000000  0.5716980000000 1.0
C      1  0.5943470000000  0.4655520000000  0.4566600000000 1.0
C      1  0.5084470000000  0.4698940000000  0.6152100000000 1.0
C      1  0.4847680000000  0.5556530000000  0.4950690000000 1.0
C      1  0.5988490000000  0.5411760000000  0.5268290000000 1.0
C      1  0.5508040000000  0.5144190000000  0.4246360000000 1.0
C      1  0.5421400000000  0.5885440000000  0.4518650000000 1.0
C      1  0.4073440000000  0.5101370000000  0.4434390000000 1.0
C      1  0.4402570000000  0.4308330000000  0.4448600000000 1.0
C      1  0.4859040000000  0.5989360000000  0.4910900000000 1.0
C      1  0.5735050000000  0.5366450000000  0.4293600000000 1.0
C      1  0.4815370000000  0.5309340000000  0.4318200000000 1.0
C      1  0.5642580000000  0.4770420000000  0.4912050000000 1.0
C      1  0.5438190000000  0.5216220000000  0.4763880000000 1.0
C      1  0.4419290000000  0.5012010000000  0.4119690000000 1.0
C      1  0.5102980000000  0.6007820000000  0.4765560000000 1.0
C      1  0.5366980000000  0.4489500000000  0.4547130000000 1.0
C      1  0.5788920000000  0.5075180000000  0.5644930000000 1.0
C      1  0.4770190000000  0.5038130000000  0.6085420000000 1.0
C      1  0.5745060000000  0.5238850000000  0.4750730000000 1.0
C      1  0.4388060000000  0.4247050000000  0.4765830000000 1.0
C      1  0.4654540000000  0.4735830000000  0.5291280000000 1.0
C      1  0.5545940000000  0.4806530000000  0.5479350000000 1.0
C      1  0.4678560000000  0.5101350000000  0.4081510000000 1.0
C      1  0.4634560000000  0.4764770000000  0.4391920000000 1.0
C      1  0.4052690000000  0.4529380000000  0.5132090000000 1.0
C      1  0.4822310000000  0.5734520000000  0.4430010000000 1.0
C      1  0.5008410000000  0.4890620000000  0.4913260000000 1.0
C      1  0.4570100000000  0.5396540000000  0.4980630000000 1.0
C      1  0.5093610000000  0.4012790000000  0.4743510000000 1.0
C      1  0.5172740000000  0.4053470000000  0.5061280000000 1.0
C      1  0.5873770000000  0.4982270000000  0.4780300000000 1.0
C      1  0.5378930000000  0.5047840000000  0.5464720000000 1.0
C      1  0.4375910000000  0.4906060000000  0.4982260000000 1.0
C      1  0.4680870000000  0.5707070000000  0.4695350000000 1.0
C      1  0.5469770000000  0.4629730000000  0.5244060000000 1.0
C      1  0.5347130000000  0.5276900000000  0.5027300000000 1.0
C      1  0.4206770000000  0.4810990000000  0.5538080000000 1.0
C      1  0.5145570000000  0.5524340000000  0.4789860000000 1.0
C      1  0.5822570000000  0.4535910000000  0.5080420000000 1.0
C      1  0.5579650000000  0.5251980000000  0.5742920000000 1.0
C      1  0.4373950000000  0.5671180000000  0.4657710000000 1.0
C      1  0.5679050000000  0.5476150000000  0.4581300000000 1.0
C      1  0.5332990000000  0.4928990000000  0.4676300000000 1.0
C      1  0.5570490000000  0.5998580000000  0.5228560000000 1.0
C      1  0.5087270000000  0.5288050000000  0.5852710000000 1.0
C      1  0.4265980000000  0.5405970000000  0.4727940000000 1.0
C      1  0.4583440000000  0.4974310000000  0.5739240000000 1.0
C      1  0.5555000000000  0.5285610000000  0.5295560000000 1.0
C      1  0.4935540000000  0.4850060000000  0.4378190000000 1.0
C      1  0.4506450000000  0.4557330000000  0.4839100000000 1.0
C      1  0.5206340000000  0.5538700000000  0.5124370000000 1.0
C      1  0.4056170000000  0.5253200000000  0.5528690000000 1.0
C      1  0.5091850000000  0.5897930000000  0.4454350000000 1.0
C      1  0.4023120000000  0.5114050000000  0.5248880000000 1.0
C      1  0.4945490000000  0.5085130000000  0.3921830000000 1.0
C      1  0.5189230000000  0.5572130000000  0.4456010000000 1.0
C      1  0.4623320000000  0.4687650000000  0.5899010000000 1.0
C      1  0.4716150000000  0.4222640000000  0.5377840000000 1.0
C      1  0.4982920000000  0.4958810000000  0.5245430000000 1.0
C      1  0.5981580000000  0.5158550000000  0.4309870000000 1.0
C      1  0.3986140000000  0.4766250000000  0.5282970000000 1.0
C      1  0.5351720000000  0.5993950000000  0.4895630000000 1.0
C      1  0.5281010000000  0.5026290000000  0.5169100000000 1.0
C      1  0.4428130000000  0.5423620000000  0.5273030000000 1.0
C      1  0.4327760000000  0.4876080000000  0.4418830000000 1.0
C      1  0.4881600000000  0.4548920000000  0.6039700000000 1.0
C      1  0.6084470000000  0.4721050000000  0.4850510000000 1.0
C      1  0.3963030000000  0.4889790000000  0.4747280000000 1.0
C      1  0.5389460000000  0.4197480000000  0.4417400000000 1.0
C      1  0.4283310000000  0.5649430000000  0.5064040000000 1.0
C      1  0.4917890000000  0.5262880000000  0.5107560000000 1.0
C      1  0.5634420000000  0.4638050000000  0.4600830000000 1.0
C      1  0.4468260000000  0.5820900000000  0.5294900000000 1.0
C      1  0.4593120000000  0.5453970000000  0.5825720000000 1.0
C      1  0.5379070000000  0.5440010000000  0.5542180000000 1.0
C      1  0.4620090000000  0.4470870000000  0.4314630000000 1.0
C      1  0.5999650000000  0.4946240000000  0.4471060000000 1.0
C      1  0.6260070000000  0.5283160000000  0.5358740000000 1.0
C      1  0.5038160000000  0.5034100000000  0.4619200000000 1.0
C      1  0.5058740000000  0.4863400000000  0.4087790000000 1.0
C      1  0.5544920000000  0.4982810000000  0.3949060000000 1.0
C      1  0.4786230000000  0.4470340000000  0.5156490000000 1.0
C      1  0.5244490000000  0.4107200000000  0.5375150000000 1.0
C      1  0.5299740000000  0.5268070000000  0.4468790000000 1.0
C      1  0.4411050000000  0.4623500000000  0.5657090000000 1.0
C      1  0.4918180000000  0.5327060000000  0.4630930000000 1.0
END
