TITL C-2847957-7266-569 0.00027885267155826 125000 -361.219959273801 0 0 69 (C1) n - 1
REM
REM in /home/bkarasulu/work/CARBON/AIRSS/Generating-Clusters/AIREBO/with-SteepDescent/Only-C1/SD-CG-opt/Try1-1.4A-POS3A/HFTN-CG
REM
REM
REM
REM
REM
REM ./C.cell (11c1c37f851c82e70ff6c80c92926a4b)
REM
REM compiler GCC version 9.2.1 20190827 (Red Hat 9.2.1-1)
REM options -cpp -mtune=generic -march=x86-64 -g -O0 -fpre-include=/usr/include/finclude/math-vector-fortran.h
REM seed -949246886 1130554749 1751499567 -1162300358 -1798426972 -390614558 114687650 -232903606 -520945003 -1276126554 1321800817 -1063701587 -1273824859 516987934 -134058279 -839533602 -1345542615 892941049 -1191306688 -1448472453 820918300 -568981213 -1666534039 -956529603 -80563401 -2004272696 940761253 1910926383 -2142485848 978850928 1036762327 1799580728 -1340828169
REM
CELL 1.54180   50.00000   50.00000   50.00000   90.00000   90.00000   90.00000
LATT -1
SFAC C  
C      1  0.4403810000000  0.5230390000000  0.4436430000000 1.0
C      1  0.4241620000000  0.4254250000000  0.5516640000000 1.0
C      1  0.4186540000000  0.5324510000000  0.4341550000000 1.0
C      1  0.4711920000000  0.5143660000000  0.4345510000000 1.0
C      1  0.4921070000000  0.4847310000000  0.5013550000000 1.0
C      1  0.5296540000000  0.4759220000000  0.5586360000000 1.0
C      1  0.5543480000000  0.4591010000000  0.4836240000000 1.0
C      1  0.5279530000000  0.5524310000000  0.4151540000000 1.0
C      1  0.5110440000000  0.4657400000000  0.5175460000000 1.0
C      1  0.4928120000000  0.4674110000000  0.5456060000000 1.0
C      1  0.5457870000000  0.5417610000000  0.5157230000000 1.0
C      1  0.5310060000000  0.4915780000000  0.4471830000000 1.0
C      1  0.5376340000000  0.5358240000000  0.4673170000000 1.0
C      1  0.4790600000000  0.5745320000000  0.4830160000000 1.0
C      1  0.5591350000000  0.4377680000000  0.5096640000000 1.0
C      1  0.4912470000000  0.4483420000000  0.4713670000000 1.0
C      1  0.4473970000000  0.4465590000000  0.5593250000000 1.0
C      1  0.4443040000000  0.4584080000000  0.5075730000000 1.0
C      1  0.5584020000000  0.4816030000000  0.4651690000000 1.0
C      1  0.4531180000000  0.5131440000000  0.4700630000000 1.0
C      1  0.4656130000000  0.4615460000000  0.4578500000000 1.0
C      1  0.4861990000000  0.4365970000000  0.5003740000000 1.0
C      1  0.4357530000000  0.4451570000000  0.5289490000000 1.0
C      1  0.5035330000000  0.5086550000000  0.4352960000000 1.0
C      1  0.5016910000000  0.5484940000000  0.5640180000000 1.0
C      1  0.5089420000000  0.5699530000000  0.4573280000000 1.0
C      1  0.4864610000000  0.4829710000000  0.5816710000000 1.0
C      1  0.4862910000000  0.5101410000000  0.4712320000000 1.0
C      1  0.5426940000000  0.4671190000000  0.5145980000000 1.0
C      1  0.4868960000000  0.5183750000000  0.5256360000000 1.0
C      1  0.5050840000000  0.4746920000000  0.4356570000000 1.0
C      1  0.4763280000000  0.5689950000000  0.4506630000000 1.0
C      1  0.4728580000000  0.5448930000000  0.5565670000000 1.0
C      1  0.4666760000000  0.4634510000000  0.5661860000000 1.0
C      1  0.4470800000000  0.5155380000000  0.5278880000000 1.0
C      1  0.5173670000000  0.4453460000000  0.5506750000000 1.0
C      1  0.5191140000000  0.5392610000000  0.5363180000000 1.0
C      1  0.5376880000000  0.4310930000000  0.4770260000000 1.0
C      1  0.5114520000000  0.4318360000000  0.5204070000000 1.0
C      1  0.5381710000000  0.5044730000000  0.4757270000000 1.0
C      1  0.4680570000000  0.5621910000000  0.5059620000000 1.0
C      1  0.4708670000000  0.5234300000000  0.4971310000000 1.0
C      1  0.5224060000000  0.5617360000000  0.5034820000000 1.0
C      1  0.5466260000000  0.5264630000000  0.5617730000000 1.0
C      1  0.5099230000000  0.5806930000000  0.4871870000000 1.0
C      1  0.5620250000000  0.5136110000000  0.5391730000000 1.0
C      1  0.5346120000000  0.4190480000000  0.5055130000000 1.0
C      1  0.5233310000000  0.5070370000000  0.5463870000000 1.0
C      1  0.5640580000000  0.5315830000000  0.4882980000000 1.0
C      1  0.4891630000000  0.5522810000000  0.5268020000000 1.0
C      1  0.5486110000000  0.5087090000000  0.5081780000000 1.0
C      1  0.4436010000000  0.4632610000000  0.4752080000000 1.0
C      1  0.5155460000000  0.4317420000000  0.4612100000000 1.0
C      1  0.4600760000000  0.4882090000000  0.5123160000000 1.0
C      1  0.4808370000000  0.4978770000000  0.5520820000000 1.0
C      1  0.5150540000000  0.5067550000000  0.5134010000000 1.0
C      1  0.4588530000000  0.5205480000000  0.5538240000000 1.0
C      1  0.4979950000000  0.5385140000000  0.4642500000000 1.0
C      1  0.5210330000000  0.5364470000000  0.4392970000000 1.0
C      1  0.4688400000000  0.5482460000000  0.4326570000000 1.0
C      1  0.4455640000000  0.5413040000000  0.5099400000000 1.0
C      1  0.5758050000000  0.4894740000000  0.5150350000000 1.0
C      1  0.5539580000000  0.4821950000000  0.5397920000000 1.0
C      1  0.5148540000000  0.5323540000000  0.4923190000000 1.0
C      1  0.4986570000000  0.4813910000000  0.4683770000000 1.0
C      1  0.4732300000000  0.4812330000000  0.4376270000000 1.0
C      1  0.4403360000000  0.4911250000000  0.4863440000000 1.0
C      1  0.5779260000000  0.5063030000000  0.4741860000000 1.0
C      1  0.5128670000000  0.4775170000000  0.5858510000000 1.0
END
