TITL C-2847950-6905-529 0.000657489732504556 125000 -931.01476530839 0 0 169 (C1) n - 1
REM
REM in /home/bkarasulu/work/CARBON/AIRSS/Generating-Clusters/AIREBO/with-SteepDescent/Only-C1/SD-CG-opt/Try1-1.4A-POS3A/HFTN-CG
REM
REM
REM
REM
REM
REM ./C.cell (11c1c37f851c82e70ff6c80c92926a4b)
REM
REM compiler GCC version 9.2.1 20190827 (Red Hat 9.2.1-1)
REM options -cpp -mtune=generic -march=x86-64 -g -O0 -fpre-include=/usr/include/finclude/math-vector-fortran.h
REM seed 1311948602 -2073140495 -1002546186 655700178 312481322 1498226430 831504990 -1807713191 -1143096833 724750133 -989061527 -29384356 -1354311083 -1864786285 2017190007 -925985361 1329868726 -1087869920 -845394760 -1599364779 -554768848 833277588 -1594922097 1484999603 -1835736325 507206336 -1946216939 420025375 -2017953641 -113880856 115701479 -778450588 1311030811
REM
CELL 1.54180   50.00000   50.00000   50.00000   90.00000   90.00000   90.00000
LATT -1
SFAC C  
C      1  0.5345200000000  0.4348460000000  0.4608190000000 1.0
C      1  0.5696560000000  0.4513090000000  0.5303290000000 1.0
C      1  0.4089110000000  0.5485120000000  0.5144820000000 1.0
C      1  0.4043760000000  0.5247100000000  0.5462530000000 1.0
C      1  0.4617910000000  0.4854250000000  0.4420270000000 1.0
C      1  0.4741430000000  0.5657700000000  0.4770050000000 1.0
C      1  0.4066760000000  0.5400390000000  0.4808560000000 1.0
C      1  0.4438290000000  0.5400780000000  0.4951310000000 1.0
C      1  0.5684410000000  0.5210190000000  0.4068830000000 1.0
C      1  0.4951530000000  0.5117780000000  0.4037870000000 1.0
C      1  0.5419920000000  0.5936710000000  0.5542910000000 1.0
C      1  0.4444330000000  0.4975150000000  0.4859500000000 1.0
C      1  0.4499980000000  0.5498620000000  0.5862460000000 1.0
C      1  0.5845090000000  0.5538210000000  0.5332650000000 1.0
C      1  0.4578540000000  0.3871950000000  0.5237140000000 1.0
C      1  0.4361310000000  0.5409710000000  0.4638780000000 1.0
C      1  0.5211010000000  0.4970770000000  0.5397070000000 1.0
C      1  0.4266140000000  0.4865590000000  0.5646350000000 1.0
C      1  0.4470470000000  0.5082450000000  0.5535410000000 1.0
C      1  0.5180140000000  0.5149170000000  0.3898080000000 1.0
C      1  0.4364100000000  0.4907680000000  0.4120870000000 1.0
C      1  0.4784000000000  0.4536560000000  0.4731190000000 1.0
C      1  0.5007100000000  0.4473680000000  0.5937340000000 1.0
C      1  0.4279410000000  0.5271120000000  0.3804250000000 1.0
C      1  0.4895430000000  0.4881220000000  0.5306810000000 1.0
C      1  0.5389510000000  0.5660530000000  0.5643180000000 1.0
C      1  0.5804580000000  0.5862800000000  0.4918480000000 1.0
C      1  0.5068900000000  0.5663130000000  0.5271980000000 1.0
C      1  0.4755160000000  0.5389560000000  0.4978740000000 1.0
C      1  0.5647360000000  0.4903910000000  0.4606490000000 1.0
C      1  0.5297120000000  0.4277070000000  0.5459600000000 1.0
C      1  0.5966300000000  0.4658710000000  0.4926810000000 1.0
C      1  0.4777800000000  0.4372040000000  0.5474310000000 1.0
C      1  0.4487160000000  0.4247940000000  0.5599750000000 1.0
C      1  0.4224590000000  0.4179120000000  0.4958200000000 1.0
C      1  0.4209880000000  0.4655760000000  0.5477810000000 1.0
C      1  0.5799020000000  0.4366350000000  0.5590050000000 1.0
C      1  0.4183950000000  0.4933070000000  0.4640980000000 1.0
C      1  0.5294370000000  0.5198860000000  0.4364680000000 1.0
C      1  0.5456780000000  0.4608250000000  0.5924120000000 1.0
C      1  0.5653800000000  0.5733620000000  0.5177830000000 1.0
C      1  0.4791630000000  0.5084690000000  0.5879940000000 1.0
C      1  0.4078060000000  0.5573570000000  0.5473410000000 1.0
C      1  0.4518800000000  0.5224660000000  0.5934540000000 1.0
C      1  0.3899860000000  0.4834850000000  0.5114730000000 1.0
C      1  0.5731810000000  0.5417260000000  0.4780430000000 1.0
C      1  0.5654960000000  0.4162150000000  0.5714140000000 1.0
C      1  0.4689480000000  0.5296380000000  0.4100130000000 1.0
C      1  0.4649500000000  0.4458530000000  0.4428500000000 1.0
C      1  0.5853450000000  0.4436440000000  0.5043390000000 1.0
C      1  0.5545290000000  0.4946420000000  0.5732460000000 1.0
C      1  0.5691950000000  0.4264730000000  0.4893980000000 1.0
C      1  0.4777950000000  0.4230010000000  0.4825550000000 1.0
C      1  0.5232310000000  0.5899310000000  0.4750440000000 1.0
C      1  0.4240560000000  0.5201330000000  0.5117320000000 1.0
C      1  0.5357230000000  0.5720160000000  0.4287810000000 1.0
C      1  0.4833640000000  0.5849220000000  0.5892880000000 1.0
C      1  0.5404560000000  0.5171490000000  0.4062880000000 1.0
C      1  0.4237750000000  0.4638210000000  0.4801920000000 1.0
C      1  0.4756570000000  0.5611040000000  0.5793010000000 1.0
C      1  0.4399220000000  0.5995520000000  0.5009830000000 1.0
C      1  0.4686540000000  0.4147860000000  0.4423620000000 1.0
C      1  0.5076260000000  0.4502160000000  0.5426570000000 1.0
C      1  0.4876510000000  0.5976960000000  0.4427850000000 1.0
C      1  0.4989360000000  0.4104860000000  0.4397800000000 1.0
C      1  0.5435150000000  0.4522290000000  0.5601750000000 1.0
C      1  0.5371460000000  0.5608360000000  0.5321690000000 1.0
C      1  0.4988520000000  0.4979270000000  0.4623830000000 1.0
C      1  0.4301470000000  0.5040730000000  0.5894760000000 1.0
C      1  0.4597670000000  0.4663270000000  0.4158800000000 1.0
C      1  0.5151520000000  0.4630540000000  0.5128740000000 1.0
C      1  0.5529820000000  0.4786770000000  0.4905770000000 1.0
C      1  0.4436750000000  0.5910280000000  0.5339880000000 1.0
C      1  0.4556860000000  0.5587280000000  0.5323240000000 1.0
C      1  0.5218370000000  0.4050810000000  0.4841150000000 1.0
C      1  0.6092660000000  0.5140430000000  0.4769230000000 1.0
C      1  0.5106550000000  0.4741280000000  0.5615520000000 1.0
C      1  0.5106820000000  0.5222150000000  0.5193180000000 1.0
C      1  0.6046690000000  0.5176850000000  0.5069560000000 1.0
C      1  0.5718780000000  0.4671610000000  0.5715220000000 1.0
C      1  0.5478040000000  0.4760430000000  0.5385820000000 1.0
C      1  0.4600990000000  0.5937340000000  0.4428750000000 1.0
C      1  0.5096070000000  0.5227610000000  0.5824960000000 1.0
C      1  0.4833680000000  0.4082220000000  0.5319420000000 1.0
C      1  0.5504970000000  0.4089710000000  0.4726050000000 1.0
C      1  0.5385450000000  0.5405080000000  0.5801920000000 1.0
C      1  0.3959440000000  0.5107210000000  0.4736140000000 1.0
C      1  0.5951140000000  0.4577160000000  0.4450170000000 1.0
C      1  0.5439100000000  0.4509210000000  0.5080930000000 1.0
C      1  0.4707520000000  0.5258150000000  0.4668770000000 1.0
C      1  0.5777020000000  0.5322180000000  0.4329580000000 1.0
C      1  0.5107440000000  0.3975970000000  0.5278500000000 1.0
C      1  0.5805080000000  0.4943310000000  0.5019820000000 1.0
C      1  0.5247590000000  0.4934680000000  0.5827630000000 1.0
C      1  0.5674430000000  0.5243390000000  0.5752910000000 1.0
C      1  0.4760220000000  0.5589720000000  0.4158270000000 1.0
C      1  0.4181470000000  0.5693290000000  0.4659470000000 1.0
C      1  0.4476260000000  0.5858670000000  0.4699180000000 1.0
C      1  0.4755310000000  0.4781300000000  0.5998800000000 1.0
C      1  0.5021880000000  0.4535220000000  0.3973090000000 1.0
C      1  0.4424630000000  0.5156440000000  0.4006530000000 1.0
C      1  0.4740150000000  0.6004190000000  0.5247570000000 1.0
C      1  0.4728770000000  0.5136020000000  0.4366260000000 1.0
C      1  0.5015200000000  0.5683250000000  0.4660910000000 1.0
C      1  0.5641280000000  0.5794210000000  0.4468930000000 1.0
C      1  0.4676750000000  0.5113930000000  0.5289370000000 1.0
C      1  0.6001780000000  0.5293160000000  0.5330570000000 1.0
C      1  0.5324900000000  0.4968890000000  0.4615250000000 1.0
C      1  0.4996380000000  0.5948230000000  0.5315140000000 1.0
C      1  0.4410540000000  0.4940230000000  0.5167330000000 1.0
C      1  0.5324590000000  0.4192450000000  0.5131430000000 1.0
C      1  0.4315730000000  0.4516270000000  0.4396700000000 1.0
C      1  0.4738360000000  0.4884590000000  0.5608700000000 1.0
C      1  0.5472100000000  0.5169470000000  0.5486470000000 1.0
C      1  0.5617420000000  0.4022380000000  0.5100760000000 1.0
C      1  0.4925550000000  0.5437060000000  0.5635560000000 1.0
C      1  0.4768000000000  0.4572600000000  0.5740670000000 1.0
C      1  0.5184150000000  0.4673590000000  0.6014570000000 1.0
C      1  0.4643600000000  0.4525950000000  0.5230000000000 1.0
C      1  0.4622550000000  0.4162970000000  0.5067750000000 1.0
C      1  0.5036460000000  0.5298500000000  0.4558140000000 1.0
C      1  0.5603210000000  0.5215880000000  0.4994240000000 1.0
C      1  0.3785700000000  0.4941340000000  0.4873120000000 1.0
C      1  0.4201040000000  0.4319570000000  0.4719550000000 1.0
C      1  0.3972490000000  0.5066290000000  0.5256320000000 1.0
C      1  0.4982840000000  0.4081510000000  0.4702160000000 1.0
C      1  0.6244910000000  0.4921300000000  0.4670030000000 1.0
C      1  0.5231580000000  0.5390450000000  0.6104850000000 1.0
C      1  0.5334170000000  0.5165510000000  0.4870680000000 1.0
C      1  0.4761880000000  0.4566360000000  0.3922070000000 1.0
C      1  0.5066740000000  0.4538290000000  0.4558350000000 1.0
C      1  0.4989090000000  0.4927460000000  0.4298590000000 1.0
C      1  0.4833820000000  0.4696970000000  0.5027370000000 1.0
C      1  0.5101680000000  0.4650250000000  0.4263860000000 1.0
C      1  0.5747730000000  0.4907130000000  0.5345580000000 1.0
C      1  0.4845810000000  0.5408670000000  0.5306000000000 1.0
C      1  0.4231250000000  0.4779110000000  0.4358620000000 1.0
C      1  0.5385130000000  0.5964480000000  0.4520640000000 1.0
C      1  0.5304520000000  0.4473500000000  0.3970810000000 1.0
C      1  0.4377050000000  0.4384570000000  0.5147540000000 1.0
C      1  0.5865990000000  0.5109470000000  0.5505570000000 1.0
C      1  0.5452830000000  0.5589240000000  0.4871440000000 1.0
C      1  0.4256830000000  0.5700300000000  0.4989040000000 1.0
C      1  0.4199910000000  0.4674690000000  0.5138260000000 1.0
C      1  0.5037070000000  0.5695780000000  0.4326160000000 1.0
C      1  0.4357460000000  0.5380750000000  0.5454220000000 1.0
C      1  0.4257600000000  0.4395390000000  0.5573950000000 1.0
C      1  0.5390290000000  0.5882550000000  0.5032020000000 1.0
C      1  0.5783900000000  0.5712540000000  0.4687930000000 1.0
C      1  0.5304910000000  0.4649120000000  0.4729290000000 1.0
C      1  0.5568890000000  0.5353010000000  0.5261630000000 1.0
C      1  0.5358270000000  0.4158640000000  0.5745750000000 1.0
C      1  0.5223190000000  0.4273100000000  0.4306610000000 1.0
C      1  0.5135270000000  0.4215960000000  0.5916620000000 1.0
C      1  0.5203470000000  0.5441810000000  0.4783350000000 1.0
C      1  0.5500920000000  0.5444000000000  0.4336830000000 1.0
C      1  0.4645860000000  0.5764940000000  0.5047200000000 1.0
C      1  0.4352420000000  0.4200700000000  0.4463800000000 1.0
C      1  0.5283080000000  0.5999730000000  0.5298580000000 1.0
C      1  0.5149310000000  0.4940880000000  0.5006740000000 1.0
C      1  0.6098830000000  0.4676980000000  0.4677980000000 1.0
C      1  0.5188150000000  0.3738910000000  0.5354110000000 1.0
C      1  0.4783760000000  0.4983210000000  0.4853830000000 1.0
C      1  0.4262910000000  0.5624570000000  0.5754350000000 1.0
C      1  0.5830310000000  0.5174370000000  0.4595540000000 1.0
C      1  0.5437490000000  0.4534860000000  0.4269270000000 1.0
C      1  0.5691090000000  0.4663510000000  0.4410230000000 1.0
C      1  0.4550570000000  0.5766260000000  0.4205840000000 1.0
C      1  0.4526200000000  0.4736030000000  0.4679680000000 1.0
END
