TITL C-2847952-8118-545 -0.00305665652753489 125000 -396.727119496144 0 0 72 (C1) n - 1
REM
REM in /home/bkarasulu/work/CARBON/AIRSS/Generating-Clusters/AIREBO/with-SteepDescent/Only-C1/SD-CG-opt/Try1-1.4A-POS3A/HFTN-CG
REM
REM
REM
REM
REM
REM ./C.cell (11c1c37f851c82e70ff6c80c92926a4b)
REM
REM compiler GCC version 9.2.1 20190827 (Red Hat 9.2.1-1)
REM options -cpp -mtune=generic -march=x86-64 -g -O0 -fpre-include=/usr/include/finclude/math-vector-fortran.h
REM seed 635884546 -425784210 1407225813 -2098618099 -1268125282 1366468874 -348717598 -1705181661 -1682767080 -1832810505 880737275 -1494265 838209948 1945307283 -407445286 -1579301691 -86649229 -1004290765 -1325158599 -755176633 -892996761 1737875045 -298717242 -867829522 1074522309 1915391908 834456067 -1540670161 2131918913 -782574835 1738736931 304123157 572840309
REM
CELL 1.54180   50.00000   50.00000   50.00000   90.00000   90.00000   90.00000
LATT -1
SFAC C  
C      1  0.4931810000000  0.4336920000000  0.5500350000000 1.0
C      1  0.5037120000000  0.4812980000000  0.5460090000000 1.0
C      1  0.5166560000000  0.4228240000000  0.4466880000000 1.0
C      1  0.4540570000000  0.4948110000000  0.4321860000000 1.0
C      1  0.5234990000000  0.4039770000000  0.5153200000000 1.0
C      1  0.5581340000000  0.4351500000000  0.4651800000000 1.0
C      1  0.5767800000000  0.5009920000000  0.5493870000000 1.0
C      1  0.4715190000000  0.5264300000000  0.5811130000000 1.0
C      1  0.5334290000000  0.5267360000000  0.5083990000000 1.0
C      1  0.4603620000000  0.4505310000000  0.4543350000000 1.0
C      1  0.5080570000000  0.4943410000000  0.4544240000000 1.0
C      1  0.4665780000000  0.5440040000000  0.5180980000000 1.0
C      1  0.5401750000000  0.5507260000000  0.4585800000000 1.0
C      1  0.5180790000000  0.4724420000000  0.5211470000000 1.0
C      1  0.4572110000000  0.5743990000000  0.5608820000000 1.0
C      1  0.4580870000000  0.5003750000000  0.4879710000000 1.0
C      1  0.5016470000000  0.4560920000000  0.5638520000000 1.0
C      1  0.4528250000000  0.5485850000000  0.5695180000000 1.0
C      1  0.4600290000000  0.4735730000000  0.5639400000000 1.0
C      1  0.5481040000000  0.5721960000000  0.4426780000000 1.0
C      1  0.4486850000000  0.5391900000000  0.4898960000000 1.0
C      1  0.5115160000000  0.5376630000000  0.4509980000000 1.0
C      1  0.4516800000000  0.5175160000000  0.5556760000000 1.0
C      1  0.4868270000000  0.4364830000000  0.5242040000000 1.0
C      1  0.4288750000000  0.4966200000000  0.4459090000000 1.0
C      1  0.5163100000000  0.5213400000000  0.5989300000000 1.0
C      1  0.5394720000000  0.4931050000000  0.5088170000000 1.0
C      1  0.4323250000000  0.4582830000000  0.5143890000000 1.0
C      1  0.5215510000000  0.4215620000000  0.4944740000000 1.0
C      1  0.4676660000000  0.4691740000000  0.4335270000000 1.0
C      1  0.5672720000000  0.4851300000000  0.5037960000000 1.0
C      1  0.4761840000000  0.4557670000000  0.4794180000000 1.0
C      1  0.5756170000000  0.5430680000000  0.5268140000000 1.0
C      1  0.5044800000000  0.4506480000000  0.4988240000000 1.0
C      1  0.5345290000000  0.5255880000000  0.5415630000000 1.0
C      1  0.4970630000000  0.5671920000000  0.4917060000000 1.0
C      1  0.5096480000000  0.4505790000000  0.4444890000000 1.0
C      1  0.4952270000000  0.4676490000000  0.4277850000000 1.0
C      1  0.4702920000000  0.5176170000000  0.4383050000000 1.0
C      1  0.5108570000000  0.4963330000000  0.4205970000000 1.0
C      1  0.4431960000000  0.4295020000000  0.4515560000000 1.0
C      1  0.5342980000000  0.4197100000000  0.4690240000000 1.0
C      1  0.5717750000000  0.4857140000000  0.4761250000000 1.0
C      1  0.5227250000000  0.4618510000000  0.4723970000000 1.0
C      1  0.4291920000000  0.5045800000000  0.4715620000000 1.0
C      1  0.5631810000000  0.5259250000000  0.5465860000000 1.0
C      1  0.5151660000000  0.4918160000000  0.4866060000000 1.0
C      1  0.4730920000000  0.4953280000000  0.5413380000000 1.0
C      1  0.4862480000000  0.5220400000000  0.5249200000000 1.0
C      1  0.5542660000000  0.4669880000000  0.4608940000000 1.0
C      1  0.4648110000000  0.5647190000000  0.4821190000000 1.0
C      1  0.5340390000000  0.5230500000000  0.6181560000000 1.0
C      1  0.4832660000000  0.4857910000000  0.4764890000000 1.0
C      1  0.4662080000000  0.4551300000000  0.5095110000000 1.0
C      1  0.4251570000000  0.5190030000000  0.5008170000000 1.0
C      1  0.4735110000000  0.5851360000000  0.5412250000000 1.0
C      1  0.4525360000000  0.4855770000000  0.5160680000000 1.0
C      1  0.4982260000000  0.5221700000000  0.5782980000000 1.0
C      1  0.5270690000000  0.5542230000000  0.4894070000000 1.0
C      1  0.4969200000000  0.5235580000000  0.4299370000000 1.0
C      1  0.5642790000000  0.5349680000000  0.4730430000000 1.0
C      1  0.5770550000000  0.5111960000000  0.4648700000000 1.0
C      1  0.4934700000000  0.5374790000000  0.4762870000000 1.0
C      1  0.4793870000000  0.5716070000000  0.5187160000000 1.0
C      1  0.5637890000000  0.5386970000000  0.5012230000000 1.0
C      1  0.4351630000000  0.5392100000000  0.5267700000000 1.0
C      1  0.5823850000000  0.4848040000000  0.5274430000000 1.0
C      1  0.4302420000000  0.5061150000000  0.5318720000000 1.0
C      1  0.4665860000000  0.5258390000000  0.4670940000000 1.0
C      1  0.5024740000000  0.5194590000000  0.4994340000000 1.0
C      1  0.5071470000000  0.5140130000000  0.5507380000000 1.0
C      1  0.5349490000000  0.4811220000000  0.4396170000000 1.0
END
