TITL C-2848506-1665-87 0.00319075054738522 125000 -694.97176956867 0 0 135 (C1) n - 1
REM
REM in /home/bkarasulu/work/CARBON/AIRSS/Generating-Clusters/AIREBO/with-SteepDescent/Only-C1/SD-CG-opt/Try1-1.4A-POS3A/HFTN-CG
REM
REM
REM
REM
REM
REM ./C.cell (11c1c37f851c82e70ff6c80c92926a4b)
REM
REM compiler GCC version 9.2.1 20190827 (Red Hat 9.2.1-1)
REM options -cpp -mtune=generic -march=x86-64 -g -O0 -fpre-include=/usr/include/finclude/math-vector-fortran.h
REM seed -1675031553 -1389202095 115901557 -1746354991 -828312456 -494676250 -73822187 129121277 -535979541 -536908251 -1232103404 -1040386258 23114568 -992392221 -1824155407 3523279 -491626909 -6258990 1427499630 -1102558871 1699992515 -1086151378 510855523 442720307 1841848414 397357924 -2143961787 403223522 -1201641474 559239228 2006760886 -2006021088 -1335266574
REM
CELL 1.54180   50.00000   50.00000   50.00000   90.00000   90.00000   90.00000
LATT -1
SFAC C  
C      1  0.4727650000000  0.4204470000000  0.5599370000000 1.0
C      1  0.5084720000000  0.4444100000000  0.5270080000000 1.0
C      1  0.5657210000000  0.5122850000000  0.4393330000000 1.0
C      1  0.4690670000000  0.4836650000000  0.4593110000000 1.0
C      1  0.4006300000000  0.5047270000000  0.5150680000000 1.0
C      1  0.4668310000000  0.5510820000000  0.4203290000000 1.0
C      1  0.4687300000000  0.4633530000000  0.4864730000000 1.0
C      1  0.5811330000000  0.5487140000000  0.4797180000000 1.0
C      1  0.5260270000000  0.5944900000000  0.5002640000000 1.0
C      1  0.4235780000000  0.4594760000000  0.4423310000000 1.0
C      1  0.6004200000000  0.5203190000000  0.4783920000000 1.0
C      1  0.4113040000000  0.5480450000000  0.4855160000000 1.0
C      1  0.4845370000000  0.5704990000000  0.4790010000000 1.0
C      1  0.5728850000000  0.4496250000000  0.4514000000000 1.0
C      1  0.5837190000000  0.4877240000000  0.5651750000000 1.0
C      1  0.5585300000000  0.5393660000000  0.5033560000000 1.0
C      1  0.5093450000000  0.4223870000000  0.5011180000000 1.0
C      1  0.5147680000000  0.4773360000000  0.4769230000000 1.0
C      1  0.5921690000000  0.4707280000000  0.4966140000000 1.0
C      1  0.5072140000000  0.4442160000000  0.4497970000000 1.0
C      1  0.4855980000000  0.5122350000000  0.4674830000000 1.0
C      1  0.4384080000000  0.5201220000000  0.4907490000000 1.0
C      1  0.5609360000000  0.4315560000000  0.5366110000000 1.0
C      1  0.4753640000000  0.4506600000000  0.4197130000000 1.0
C      1  0.5409360000000  0.4580350000000  0.4739200000000 1.0
C      1  0.5114190000000  0.5518530000000  0.5930070000000 1.0
C      1  0.4807340000000  0.4071790000000  0.4778240000000 1.0
C      1  0.5409240000000  0.5678390000000  0.5093230000000 1.0
C      1  0.5973860000000  0.5401940000000  0.5128180000000 1.0
C      1  0.4868210000000  0.5483410000000  0.5934430000000 1.0
C      1  0.4375340000000  0.4631080000000  0.5723850000000 1.0
C      1  0.4528750000000  0.4157960000000  0.4947820000000 1.0
C      1  0.5883280000000  0.3938900000000  0.5113990000000 1.0
C      1  0.5239600000000  0.4684120000000  0.5085640000000 1.0
C      1  0.5714180000000  0.5385110000000  0.5348210000000 1.0
C      1  0.4660460000000  0.5296390000000  0.5740800000000 1.0
C      1  0.5871580000000  0.5175200000000  0.5678530000000 1.0
C      1  0.5466630000000  0.4925840000000  0.5160430000000 1.0
C      1  0.6028750000000  0.4986160000000  0.5021230000000 1.0
C      1  0.5127770000000  0.5632950000000  0.5214710000000 1.0
C      1  0.5343010000000  0.5177390000000  0.4670340000000 1.0
C      1  0.4808290000000  0.5199880000000  0.5194570000000 1.0
C      1  0.4398620000000  0.5045440000000  0.5209480000000 1.0
C      1  0.5388810000000  0.4394590000000  0.4987880000000 1.0
C      1  0.5148280000000  0.5242160000000  0.5527030000000 1.0
C      1  0.5533390000000  0.4963630000000  0.4202320000000 1.0
C      1  0.4494590000000  0.5004290000000  0.4287580000000 1.0
C      1  0.4275750000000  0.6091990000000  0.5077420000000 1.0
C      1  0.5668520000000  0.4617790000000  0.5510590000000 1.0
C      1  0.5463950000000  0.4898880000000  0.4759780000000 1.0
C      1  0.4680040000000  0.5102720000000  0.4932950000000 1.0
C      1  0.4223680000000  0.4437450000000  0.5164970000000 1.0
C      1  0.4378630000000  0.5485160000000  0.5765270000000 1.0
C      1  0.5685510000000  0.5116090000000  0.4864440000000 1.0
C      1  0.4847800000000  0.4663410000000  0.5163030000000 1.0
C      1  0.4722000000000  0.5893310000000  0.5044870000000 1.0
C      1  0.4890960000000  0.4154920000000  0.4461450000000 1.0
C      1  0.4902130000000  0.4780620000000  0.5618670000000 1.0
C      1  0.5050820000000  0.5166140000000  0.3979540000000 1.0
C      1  0.5088170000000  0.4949410000000  0.4239010000000 1.0
C      1  0.4852520000000  0.5326070000000  0.3984900000000 1.0
C      1  0.5026650000000  0.6016370000000  0.4960470000000 1.0
C      1  0.4940880000000  0.5107960000000  0.5702390000000 1.0
C      1  0.5099460000000  0.5122670000000  0.5234250000000 1.0
C      1  0.4075940000000  0.4814560000000  0.4525450000000 1.0
C      1  0.4721400000000  0.4825540000000  0.5903320000000 1.0
C      1  0.5758040000000  0.4803860000000  0.5248740000000 1.0
C      1  0.5354830000000  0.5587480000000  0.5718220000000 1.0
C      1  0.5903760000000  0.5109480000000  0.5287010000000 1.0
C      1  0.5395940000000  0.5018480000000  0.5472770000000 1.0
C      1  0.5188090000000  0.4734640000000  0.5797010000000 1.0
C      1  0.4482530000000  0.5548010000000  0.4457100000000 1.0
C      1  0.4968820000000  0.5444110000000  0.4347670000000 1.0
C      1  0.4422200000000  0.5874610000000  0.5064990000000 1.0
C      1  0.4303590000000  0.4382480000000  0.4839000000000 1.0
C      1  0.5339450000000  0.4400200000000  0.5448860000000 1.0
C      1  0.5316320000000  0.4702090000000  0.4189950000000 1.0
C      1  0.5488680000000  0.5150170000000  0.5914490000000 1.0
C      1  0.5586310000000  0.5359990000000  0.5662790000000 1.0
C      1  0.4809850000000  0.4067520000000  0.5118240000000 1.0
C      1  0.5842950000000  0.4676320000000  0.4688040000000 1.0
C      1  0.5322860000000  0.5484490000000  0.4526390000000 1.0
C      1  0.5140720000000  0.4824810000000  0.5380210000000 1.0
C      1  0.4993930000000  0.5905640000000  0.5592510000000 1.0
C      1  0.4999350000000  0.5864560000000  0.4313680000000 1.0
C      1  0.4223410000000  0.5097630000000  0.4420940000000 1.0
C      1  0.4620730000000  0.4297670000000  0.4388190000000 1.0
C      1  0.5637310000000  0.5396960000000  0.4518040000000 1.0
C      1  0.4312840000000  0.5353390000000  0.4611130000000 1.0
C      1  0.4293990000000  0.5602530000000  0.5113390000000 1.0
C      1  0.4907020000000  0.5855630000000  0.5305840000000 1.0
C      1  0.4751370000000  0.4895920000000  0.5336320000000 1.0
C      1  0.3987850000000  0.5207140000000  0.4787540000000 1.0
C      1  0.4618150000000  0.4416510000000  0.5119190000000 1.0
C      1  0.4577360000000  0.5032590000000  0.5932800000000 1.0
C      1  0.5379010000000  0.4567380000000  0.5685730000000 1.0
C      1  0.4817700000000  0.5796190000000  0.4150660000000 1.0
C      1  0.5922310000000  0.5747310000000  0.4789030000000 1.0
C      1  0.4287700000000  0.4759330000000  0.5253920000000 1.0
C      1  0.5194640000000  0.3979390000000  0.4816290000000 1.0
C      1  0.5473890000000  0.5867130000000  0.5737800000000 1.0
C      1  0.4768070000000  0.4927680000000  0.4126240000000 1.0
C      1  0.5402590000000  0.4468560000000  0.4421990000000 1.0
C      1  0.4194850000000  0.5305500000000  0.5245920000000 1.0
C      1  0.4914080000000  0.4394660000000  0.4778200000000 1.0
C      1  0.4578420000000  0.5750220000000  0.4622430000000 1.0
C      1  0.5547380000000  0.4946230000000  0.5701480000000 1.0
C      1  0.4019590000000  0.4552220000000  0.4920350000000 1.0
C      1  0.5265800000000  0.4943530000000  0.5983150000000 1.0
C      1  0.5387600000000  0.4136560000000  0.4406080000000 1.0
C      1  0.4477690000000  0.4436680000000  0.5391040000000 1.0
C      1  0.5055720000000  0.5673570000000  0.4565280000000 1.0
C      1  0.5317090000000  0.5186950000000  0.5002000000000 1.0
C      1  0.4779790000000  0.5166570000000  0.4371780000000 1.0
C      1  0.4376650000000  0.4765610000000  0.4926770000000 1.0
C      1  0.4881470000000  0.5503570000000  0.5057710000000 1.0
C      1  0.4790110000000  0.4043160000000  0.5419690000000 1.0
C      1  0.5177260000000  0.5199740000000  0.4401560000000 1.0
C      1  0.4395210000000  0.5518420000000  0.5427270000000 1.0
C      1  0.4064900000000  0.4883470000000  0.4858340000000 1.0
C      1  0.5022740000000  0.5296130000000  0.4871340000000 1.0
C      1  0.5007010000000  0.4575140000000  0.4126570000000 1.0
C      1  0.5067310000000  0.5572230000000  0.5537090000000 1.0
C      1  0.4206650000000  0.4714250000000  0.5554110000000 1.0
C      1  0.4378240000000  0.4345200000000  0.4522610000000 1.0
C      1  0.4407510000000  0.4973560000000  0.4674650000000 1.0
C      1  0.4575040000000  0.5163260000000  0.5445450000000 1.0
C      1  0.5177830000000  0.4033530000000  0.4549700000000 1.0
C      1  0.5663840000000  0.5719710000000  0.5305360000000 1.0
C      1  0.4732360000000  0.5523280000000  0.5497850000000 1.0
C      1  0.4989560000000  0.4756860000000  0.4501410000000 1.0
C      1  0.5749850000000  0.4118880000000  0.5249970000000 1.0
C      1  0.4678370000000  0.4525480000000  0.5642420000000 1.0
C      1  0.5820990000000  0.4962060000000  0.4593280000000 1.0
C      1  0.4535070000000  0.4684650000000  0.4339700000000 1.0
END
