TITL C-2848509-3138-526 0.000434876876337363 125000 -489.605024440662 0 0 90 (C1) n - 1
REM
REM in /home/bkarasulu/work/CARBON/AIRSS/Generating-Clusters/AIREBO/with-SteepDescent/Only-C1/SD-CG-opt/Try1-1.4A-POS3A/HFTN-CG
REM
REM
REM
REM
REM
REM ./C.cell (11c1c37f851c82e70ff6c80c92926a4b)
REM
REM compiler GCC version 9.2.1 20190827 (Red Hat 9.2.1-1)
REM options -cpp -mtune=generic -march=x86-64 -g -O0 -fpre-include=/usr/include/finclude/math-vector-fortran.h
REM seed -943046924 241987260 291798092 1619969901 -2144214238 -1045635786 -564699782 -290754008 -1377332632 -1950797894 -1569904310 212078809 350741482 1737801126 2102418419 -1917363206 2132400615 -905578799 -946230453 379640279 -593714604 1973813453 -391529298 1217110718 -548234384 2127605030 955912575 1459456484 -2021658814 -1133758925 1705771099 1444674932 -1602052266
REM
CELL 1.54180   50.00000   50.00000   50.00000   90.00000   90.00000   90.00000
LATT -1
SFAC C  
C      1  0.5477450000000  0.4539770000000  0.4723820000000 1.0
C      1  0.5221060000000  0.5093080000000  0.5536880000000 1.0
C      1  0.4436580000000  0.5414780000000  0.4866890000000 1.0
C      1  0.4839840000000  0.4824930000000  0.4351210000000 1.0
C      1  0.4839160000000  0.5480690000000  0.4234880000000 1.0
C      1  0.4557090000000  0.4932640000000  0.4368040000000 1.0
C      1  0.5650750000000  0.5309770000000  0.5719570000000 1.0
C      1  0.5288200000000  0.4391600000000  0.5275320000000 1.0
C      1  0.5416350000000  0.4871120000000  0.5272940000000 1.0
C      1  0.4953420000000  0.4629920000000  0.4519450000000 1.0
C      1  0.4472980000000  0.5284730000000  0.5242150000000 1.0
C      1  0.5112380000000  0.5491200000000  0.4287440000000 1.0
C      1  0.5039980000000  0.5031690000000  0.4273690000000 1.0
C      1  0.5689810000000  0.5256010000000  0.4662160000000 1.0
C      1  0.4122840000000  0.4825460000000  0.5219300000000 1.0
C      1  0.5012670000000  0.4938320000000  0.5100500000000 1.0
C      1  0.5474770000000  0.4936200000000  0.4767650000000 1.0
C      1  0.5752340000000  0.4978800000000  0.4575900000000 1.0
C      1  0.4783040000000  0.5310530000000  0.5075400000000 1.0
C      1  0.4174550000000  0.5125890000000  0.5204810000000 1.0
C      1  0.5710930000000  0.4890050000000  0.5426450000000 1.0
C      1  0.5159320000000  0.4693450000000  0.5377190000000 1.0
C      1  0.5548800000000  0.4339110000000  0.5217100000000 1.0
C      1  0.4723040000000  0.4161290000000  0.4754750000000 1.0
C      1  0.5641340000000  0.4476830000000  0.5003300000000 1.0
C      1  0.4922620000000  0.4142320000000  0.4488220000000 1.0
C      1  0.5483480000000  0.5202560000000  0.5229980000000 1.0
C      1  0.4554300000000  0.4837100000000  0.5506910000000 1.0
C      1  0.5592590000000  0.5622040000000  0.4951040000000 1.0
C      1  0.5156320000000  0.4803240000000  0.5691380000000 1.0
C      1  0.4620610000000  0.4462160000000  0.4737190000000 1.0
C      1  0.5574390000000  0.4798360000000  0.5018070000000 1.0
C      1  0.5910370000000  0.4758270000000  0.4984050000000 1.0
C      1  0.5543450000000  0.5060800000000  0.5601340000000 1.0
C      1  0.4584920000000  0.5603090000000  0.4683890000000 1.0
C      1  0.4928170000000  0.5422290000000  0.5512450000000 1.0
C      1  0.4574810000000  0.5105680000000  0.4901360000000 1.0
C      1  0.5103100000000  0.4349160000000  0.5017690000000 1.0
C      1  0.4864280000000  0.5698890000000  0.4797950000000 1.0
C      1  0.4598860000000  0.4971940000000  0.5197980000000 1.0
C      1  0.5399210000000  0.5122180000000  0.4422890000000 1.0
C      1  0.4761560000000  0.5033200000000  0.5803250000000 1.0
C      1  0.4807040000000  0.4536160000000  0.5572470000000 1.0
C      1  0.4189520000000  0.5208950000000  0.4893710000000 1.0
C      1  0.4701890000000  0.5207960000000  0.4386870000000 1.0
C      1  0.4902360000000  0.5759990000000  0.5119100000000 1.0
C      1  0.5167400000000  0.5539290000000  0.4588830000000 1.0
C      1  0.4930270000000  0.5382360000000  0.4777360000000 1.0
C      1  0.4835450000000  0.5661920000000  0.5430200000000 1.0
C      1  0.4379310000000  0.4867810000000  0.4566070000000 1.0
C      1  0.5884300000000  0.4968930000000  0.5204490000000 1.0
C      1  0.4304360000000  0.4627590000000  0.5023620000000 1.0
C      1  0.4280170000000  0.5229360000000  0.5516860000000 1.0
C      1  0.4512850000000  0.4505450000000  0.5443650000000 1.0
C      1  0.4962420000000  0.5120850000000  0.4589990000000 1.0
C      1  0.5459450000000  0.5617360000000  0.5220560000000 1.0
C      1  0.4872260000000  0.4876030000000  0.5375940000000 1.0
C      1  0.5381050000000  0.5316210000000  0.4689160000000 1.0
C      1  0.5238880000000  0.5242680000000  0.4203240000000 1.0
C      1  0.5009750000000  0.4117230000000  0.4877670000000 1.0
C      1  0.5148460000000  0.5859700000000  0.4826100000000 1.0
C      1  0.4500400000000  0.4184060000000  0.4997590000000 1.0
C      1  0.4833590000000  0.4625200000000  0.4939930000000 1.0
C      1  0.4516660000000  0.5125210000000  0.5661550000000 1.0
C      1  0.5417210000000  0.5710010000000  0.4744140000000 1.0
C      1  0.4601570000000  0.5776170000000  0.5251970000000 1.0
C      1  0.4145690000000  0.4976420000000  0.4726220000000 1.0
C      1  0.5332210000000  0.4534070000000  0.4436160000000 1.0
C      1  0.5047100000000  0.5219320000000  0.5269270000000 1.0
C      1  0.4875140000000  0.4762350000000  0.5758040000000 1.0
C      1  0.5770400000000  0.5397560000000  0.4900890000000 1.0
C      1  0.4239640000000  0.4710640000000  0.5481220000000 1.0
C      1  0.4949520000000  0.5261940000000  0.5776430000000 1.0
C      1  0.4907690000000  0.4503950000000  0.5248870000000 1.0
C      1  0.5403770000000  0.4826240000000  0.4456380000000 1.0
C      1  0.5455240000000  0.5425040000000  0.5466390000000 1.0
C      1  0.5077610000000  0.4370310000000  0.4424450000000 1.0
C      1  0.4433160000000  0.4394690000000  0.5163080000000 1.0
C      1  0.4029390000000  0.4766100000000  0.4898680000000 1.0
C      1  0.5245200000000  0.5273590000000  0.4998070000000 1.0
C      1  0.5772890000000  0.5220070000000  0.5119400000000 1.0
C      1  0.5153750000000  0.4986490000000  0.4828230000000 1.0
C      1  0.5781940000000  0.4692110000000  0.4697300000000 1.0
C      1  0.5141550000000  0.3892380000000  0.4844140000000 1.0
C      1  0.5143160000000  0.4647570000000  0.4801030000000 1.0
C      1  0.4418490000000  0.5594690000000  0.5150350000000 1.0
C      1  0.5255110000000  0.5362560000000  0.5734350000000 1.0
C      1  0.4532820000000  0.4772930000000  0.4843980000000 1.0
C      1  0.4593630000000  0.5517090000000  0.4421400000000 1.0
C      1  0.5186530000000  0.5604240000000  0.5052170000000 1.0
END
