TITL C-2848499-1157-665 -0.00116195901170316 125000 -475.418463632924 0 0 90 (C1) n - 1
REM
REM in /home/bkarasulu/work/CARBON/AIRSS/Generating-Clusters/AIREBO/with-SteepDescent/Only-C1/SD-CG-opt/Try1-1.4A-POS3A/HFTN-CG
REM
REM
REM
REM
REM
REM ./C.cell (11c1c37f851c82e70ff6c80c92926a4b)
REM
REM compiler GCC version 9.2.1 20190827 (Red Hat 9.2.1-1)
REM options -cpp -mtune=generic -march=x86-64 -g -O0 -fpre-include=/usr/include/finclude/math-vector-fortran.h
REM seed 947178960 2087992464 -367307157 2057788762 -820291069 -591371247 -1483934723 433673955 -2088368435 -438283982 -1246499906 150608936 1487976648 -1829118788 -1242410013 -591137384 1044494387 983577936 -1793151745 646541045 -815967485 1293120562 1321051170 -1092418485 2118782096 -1724372304 -606139927 -943524547 1599002525 -1730851611 302618653 2126460857 945049332
REM
CELL 1.54180   50.00000   50.00000   50.00000   90.00000   90.00000   90.00000
LATT -1
SFAC C  
C      1  0.5108850000000  0.4371030000000  0.4745270000000 1.0
C      1  0.4907960000000  0.4174280000000  0.5201020000000 1.0
C      1  0.4753290000000  0.4590210000000  0.4426730000000 1.0
C      1  0.4949530000000  0.4317830000000  0.4472260000000 1.0
C      1  0.5695360000000  0.4727100000000  0.5583760000000 1.0
C      1  0.5278200000000  0.5748470000000  0.5528230000000 1.0
C      1  0.5053600000000  0.5130600000000  0.5073790000000 1.0
C      1  0.4476770000000  0.5316330000000  0.4795610000000 1.0
C      1  0.5265180000000  0.4906820000000  0.4929610000000 1.0
C      1  0.4757030000000  0.4838380000000  0.4194270000000 1.0
C      1  0.5044740000000  0.5200280000000  0.5512480000000 1.0
C      1  0.4271710000000  0.5370950000000  0.5149460000000 1.0
C      1  0.4208380000000  0.4850650000000  0.4992990000000 1.0
C      1  0.5106620000000  0.5226410000000  0.4026600000000 1.0
C      1  0.5211450000000  0.4995340000000  0.4334250000000 1.0
C      1  0.4653560000000  0.4908360000000  0.5252190000000 1.0
C      1  0.5617010000000  0.5341960000000  0.4283720000000 1.0
C      1  0.5046790000000  0.4640400000000  0.4259800000000 1.0
C      1  0.4843210000000  0.5245890000000  0.5772130000000 1.0
C      1  0.5004650000000  0.5733110000000  0.5347910000000 1.0
C      1  0.4702030000000  0.5702660000000  0.5441810000000 1.0
C      1  0.5372020000000  0.4946900000000  0.5229950000000 1.0
C      1  0.4915920000000  0.4660490000000  0.5710190000000 1.0
C      1  0.4920300000000  0.4687710000000  0.4900410000000 1.0
C      1  0.5027420000000  0.5011160000000  0.5863930000000 1.0
C      1  0.5507750000000  0.4867070000000  0.5725280000000 1.0
C      1  0.4828870000000  0.4933920000000  0.5527100000000 1.0
C      1  0.5004510000000  0.5698570000000  0.5022230000000 1.0
C      1  0.4368160000000  0.4785170000000  0.5275010000000 1.0
C      1  0.4486740000000  0.4466520000000  0.4573600000000 1.0
C      1  0.4797340000000  0.4823310000000  0.4650130000000 1.0
C      1  0.5458950000000  0.5178530000000  0.4462120000000 1.0
C      1  0.4653690000000  0.5721970000000  0.4587690000000 1.0
C      1  0.5604010000000  0.4787760000000  0.4759440000000 1.0
C      1  0.5557590000000  0.5161880000000  0.5739810000000 1.0
C      1  0.5058250000000  0.5453070000000  0.4806710000000 1.0
C      1  0.5445220000000  0.4619940000000  0.5288320000000 1.0
C      1  0.4944160000000  0.5633070000000  0.4469930000000 1.0
C      1  0.5511730000000  0.5607720000000  0.5425460000000 1.0
C      1  0.4950650000000  0.4837690000000  0.5159800000000 1.0
C      1  0.5403280000000  0.4407130000000  0.5550290000000 1.0
C      1  0.4616240000000  0.5088420000000  0.4293920000000 1.0
C      1  0.4945610000000  0.5049300000000  0.4517010000000 1.0
C      1  0.5736780000000  0.4794210000000  0.5268860000000 1.0
C      1  0.5378900000000  0.5656460000000  0.5153060000000 1.0
C      1  0.5344870000000  0.5130850000000  0.5475790000000 1.0
C      1  0.4647980000000  0.4576630000000  0.5521250000000 1.0
C      1  0.4604080000000  0.5078490000000  0.5002630000000 1.0
C      1  0.4440910000000  0.4812070000000  0.5579570000000 1.0
C      1  0.4838120000000  0.4393180000000  0.4950010000000 1.0
C      1  0.5628780000000  0.5545310000000  0.4800890000000 1.0
C      1  0.5074780000000  0.4076620000000  0.4912240000000 1.0
C      1  0.4287280000000  0.4673850000000  0.4713450000000 1.0
C      1  0.5606420000000  0.5328220000000  0.5460920000000 1.0
C      1  0.5411410000000  0.5687850000000  0.4886240000000 1.0
C      1  0.4559770000000  0.5091520000000  0.5662700000000 1.0
C      1  0.5609160000000  0.5060030000000  0.4697390000000 1.0
C      1  0.5118780000000  0.4674000000000  0.5367650000000 1.0
C      1  0.5443030000000  0.4805490000000  0.4393910000000 1.0
C      1  0.5061420000000  0.5396930000000  0.4250480000000 1.0
C      1  0.5141910000000  0.4401290000000  0.5656490000000 1.0
C      1  0.5055550000000  0.4918400000000  0.4064150000000 1.0
C      1  0.5631530000000  0.5255080000000  0.4925590000000 1.0
C      1  0.5158200000000  0.5309560000000  0.4567450000000 1.0
C      1  0.4527970000000  0.4909230000000  0.4760120000000 1.0
C      1  0.5135510000000  0.5771160000000  0.4714760000000 1.0
C      1  0.5313400000000  0.4524490000000  0.4440640000000 1.0
C      1  0.4422070000000  0.5191710000000  0.4499700000000 1.0
C      1  0.5163760000000  0.5439210000000  0.5301890000000 1.0
C      1  0.4694960000000  0.5697730000000  0.5097990000000 1.0
C      1  0.4214130000000  0.4984480000000  0.4611810000000 1.0
C      1  0.4556950000000  0.5604460000000  0.4820350000000 1.0
C      1  0.4525610000000  0.4403220000000  0.4894920000000 1.0
C      1  0.4918530000000  0.4402600000000  0.5411040000000 1.0
C      1  0.4562150000000  0.4437930000000  0.5235500000000 1.0
C      1  0.5208040000000  0.4284450000000  0.5119900000000 1.0
C      1  0.4275150000000  0.4527970000000  0.5084000000000 1.0
C      1  0.5289030000000  0.4659620000000  0.4751710000000 1.0
C      1  0.4563030000000  0.5409860000000  0.5218940000000 1.0
C      1  0.4077380000000  0.5514100000000  0.5255050000000 1.0
C      1  0.5214230000000  0.4806050000000  0.5667240000000 1.0
C      1  0.5441830000000  0.4312290000000  0.4707810000000 1.0
C      1  0.5457260000000  0.4386800000000  0.5040250000000 1.0
C      1  0.5363720000000  0.5255200000000  0.5097390000000 1.0
C      1  0.4787330000000  0.5335050000000  0.4422690000000 1.0
C      1  0.5769520000000  0.4704240000000  0.4960660000000 1.0
C      1  0.4218080000000  0.5151480000000  0.4942280000000 1.0
C      1  0.4816590000000  0.5329710000000  0.5006160000000 1.0
C      1  0.4643280000000  0.5394700000000  0.5540760000000 1.0
C      1  0.5726480000000  0.5131890000000  0.5223490000000 1.0
END
