TITL C-2848501-3133-223 0.00195242791266209 125000 -395.309581125617 0 0 70 (C1) n - 1
REM
REM in /home/bkarasulu/work/CARBON/AIRSS/Generating-Clusters/AIREBO/with-SteepDescent/Only-C1/SD-CG-opt/Try1-1.4A-POS3A/HFTN-CG
REM
REM
REM
REM
REM
REM ./C.cell (11c1c37f851c82e70ff6c80c92926a4b)
REM
REM compiler GCC version 9.2.1 20190827 (Red Hat 9.2.1-1)
REM options -cpp -mtune=generic -march=x86-64 -g -O0 -fpre-include=/usr/include/finclude/math-vector-fortran.h
REM seed 1074614528 45542065 -1639114035 -1489535742 -1628179770 -1899791413 1531046158 -26489942 189798959 -1490386093 -1677230705 392175625 -899663025 863538712 1136346758 -1263045192 -553015712 -1752776080 653112521 -102971212 1371877431 379621202 -941970746 1293298656 -255893933 -1129986683 -2005363501 -122707116 1620766068 518756661 -1477696698 -1794972283 1809005598
REM
CELL 1.54180   50.00000   50.00000   50.00000   90.00000   90.00000   90.00000
LATT -1
SFAC C  
C      1  0.5591660000000  0.5258650000000  0.5161800000000 1.0
C      1  0.4203830000000  0.5301630000000  0.5006690000000 1.0
C      1  0.4545830000000  0.4964180000000  0.4770220000000 1.0
C      1  0.4365790000000  0.5380160000000  0.5222330000000 1.0
C      1  0.4852310000000  0.4861570000000  0.5304040000000 1.0
C      1  0.4441060000000  0.4879470000000  0.4252010000000 1.0
C      1  0.4484510000000  0.4711000000000  0.4610860000000 1.0
C      1  0.5068550000000  0.4974990000000  0.4188470000000 1.0
C      1  0.4868990000000  0.4426010000000  0.4969200000000 1.0
C      1  0.5711310000000  0.5190420000000  0.4508550000000 1.0
C      1  0.4915760000000  0.5243540000000  0.5187520000000 1.0
C      1  0.4792030000000  0.4985000000000  0.5003140000000 1.0
C      1  0.4279430000000  0.4559650000000  0.4683300000000 1.0
C      1  0.5771690000000  0.4784290000000  0.5184960000000 1.0
C      1  0.4691010000000  0.5071550000000  0.5465690000000 1.0
C      1  0.5444120000000  0.5672740000000  0.5023640000000 1.0
C      1  0.5594210000000  0.4906060000000  0.4363490000000 1.0
C      1  0.5304050000000  0.4850900000000  0.4365570000000 1.0
C      1  0.4685550000000  0.4669950000000  0.4361370000000 1.0
C      1  0.4862300000000  0.4464600000000  0.5470820000000 1.0
C      1  0.5145680000000  0.4390510000000  0.5392330000000 1.0
C      1  0.4701470000000  0.4408390000000  0.5248790000000 1.0
C      1  0.4830340000000  0.4294080000000  0.4658690000000 1.0
C      1  0.5064360000000  0.4749700000000  0.5545300000000 1.0
C      1  0.4289260000000  0.5287070000000  0.5481750000000 1.0
C      1  0.4913240000000  0.5307120000000  0.4745940000000 1.0
C      1  0.5009440000000  0.5208450000000  0.5708740000000 1.0
C      1  0.5546070000000  0.4957380000000  0.4903810000000 1.0
C      1  0.4439990000000  0.5074370000000  0.5592140000000 1.0
C      1  0.5220370000000  0.4564860000000  0.4473740000000 1.0
C      1  0.4937200000000  0.4941220000000  0.5778580000000 1.0
C      1  0.5636980000000  0.5465760000000  0.4943430000000 1.0
C      1  0.5058340000000  0.4629000000000  0.5165760000000 1.0
C      1  0.5158230000000  0.5391310000000  0.4555880000000 1.0
C      1  0.5333730000000  0.5584530000000  0.5273900000000 1.0
C      1  0.5384110000000  0.4500510000000  0.4767310000000 1.0
C      1  0.5407070000000  0.5449560000000  0.5530490000000 1.0
C      1  0.5714260000000  0.4817320000000  0.4651180000000 1.0
C      1  0.5231660000000  0.5753560000000  0.4850830000000 1.0
C      1  0.4897570000000  0.4462910000000  0.4437010000000 1.0
C      1  0.5160990000000  0.5051440000000  0.4569190000000 1.0
C      1  0.5254800000000  0.5260310000000  0.5208520000000 1.0
C      1  0.4805500000000  0.5524460000000  0.4926290000000 1.0
C      1  0.5770020000000  0.5058180000000  0.5231240000000 1.0
C      1  0.5661240000000  0.5222590000000  0.4769920000000 1.0
C      1  0.4454090000000  0.5113820000000  0.4357110000000 1.0
C      1  0.4445820000000  0.4306930000000  0.5233190000000 1.0
C      1  0.5352580000000  0.4577090000000  0.5492000000000 1.0
C      1  0.4975610000000  0.4871100000000  0.4779870000000 1.0
C      1  0.5270680000000  0.4973870000000  0.5394200000000 1.0
C      1  0.4824030000000  0.4972170000000  0.4311250000000 1.0
C      1  0.4832580000000  0.5363280000000  0.5493400000000 1.0
C      1  0.4817430000000  0.5671990000000  0.5461370000000 1.0
C      1  0.4974840000000  0.5741800000000  0.4989430000000 1.0
C      1  0.5549490000000  0.4634470000000  0.4975670000000 1.0
C      1  0.4206240000000  0.4324880000000  0.5107540000000 1.0
C      1  0.5239510000000  0.5644940000000  0.4586550000000 1.0
C      1  0.4711670000000  0.5157960000000  0.4574630000000 1.0
C      1  0.5254800000000  0.4888610000000  0.5065410000000 1.0
C      1  0.5068110000000  0.4592990000000  0.4771730000000 1.0
C      1  0.4278710000000  0.5086700000000  0.4861330000000 1.0
C      1  0.5199710000000  0.5171560000000  0.4884930000000 1.0
C      1  0.4631640000000  0.5427320000000  0.5153600000000 1.0
C      1  0.5553420000000  0.4604880000000  0.5315120000000 1.0
C      1  0.5272580000000  0.5216080000000  0.5605260000000 1.0
C      1  0.4450820000000  0.4930760000000  0.5834480000000 1.0
C      1  0.4162540000000  0.4375300000000  0.4842790000000 1.0
C      1  0.4707690000000  0.4876400000000  0.5927740000000 1.0
C      1  0.5774130000000  0.5146600000000  0.4202700000000 1.0
C      1  0.4945390000000  0.5817550000000  0.5264260000000 1.0
END
