TITL C-2847949-8115-430 0.00166395836182357 125000 -947.285846434207 0 0 178 (C1) n - 1
REM
REM in /home/bkarasulu/work/CARBON/AIRSS/Generating-Clusters/AIREBO/with-SteepDescent/Only-C1/SD-CG-opt/Try1-1.4A-POS3A/HFTN-CG
REM
REM
REM
REM
REM
REM ./C.cell (11c1c37f851c82e70ff6c80c92926a4b)
REM
REM compiler GCC version 9.2.1 20190827 (Red Hat 9.2.1-1)
REM options -cpp -mtune=generic -march=x86-64 -g -O0 -fpre-include=/usr/include/finclude/math-vector-fortran.h
REM seed -1150876346 203704452 -808911922 1925246321 1174168911 -911010548 -235358805 -1030215070 -1143530397 -1566642838 -654371192 778640299 908472612 200730662 318093692 -1464630149 -1360583640 1050183325 1970669596 211708390 -747031855 1978464672 -160089778 774456850 1717411549 134492043 1084791043 -966056388 -640675900 -2009781814 1590665208 1856410326 -1782220453
REM
CELL 1.54180   50.00000   50.00000   50.00000   90.00000   90.00000   90.00000
LATT -1
SFAC C  
C      1  0.5364010000000  0.5429890000000  0.5680350000000 1.0
C      1  0.4541260000000  0.4415830000000  0.4549840000000 1.0
C      1  0.4272240000000  0.4137050000000  0.4621970000000 1.0
C      1  0.4055220000000  0.4615320000000  0.4972090000000 1.0
C      1  0.4654400000000  0.4476910000000  0.5467430000000 1.0
C      1  0.4473690000000  0.4262350000000  0.5048940000000 1.0
C      1  0.4716180000000  0.4975130000000  0.4092530000000 1.0
C      1  0.4876490000000  0.5848120000000  0.5627140000000 1.0
C      1  0.4916820000000  0.5297000000000  0.4449040000000 1.0
C      1  0.4365050000000  0.4709640000000  0.5904000000000 1.0
C      1  0.5633590000000  0.5813730000000  0.5314880000000 1.0
C      1  0.4075050000000  0.4913810000000  0.4471590000000 1.0
C      1  0.4569890000000  0.4632570000000  0.4758940000000 1.0
C      1  0.5888830000000  0.4321910000000  0.4550290000000 1.0
C      1  0.5142930000000  0.5573560000000  0.4098830000000 1.0
C      1  0.4674100000000  0.5246150000000  0.5171860000000 1.0
C      1  0.5780890000000  0.4986380000000  0.5229180000000 1.0
C      1  0.5579070000000  0.5534060000000  0.4920280000000 1.0
C      1  0.4694040000000  0.4805320000000  0.5096750000000 1.0
C      1  0.4722600000000  0.5348400000000  0.4791050000000 1.0
C      1  0.4598020000000  0.4121850000000  0.4566290000000 1.0
C      1  0.5819790000000  0.5173330000000  0.4834860000000 1.0
C      1  0.4865790000000  0.5976100000000  0.5370860000000 1.0
C      1  0.4447870000000  0.4501050000000  0.5736470000000 1.0
C      1  0.5218250000000  0.4389960000000  0.5514660000000 1.0
C      1  0.4564680000000  0.4894760000000  0.5950570000000 1.0
C      1  0.5976140000000  0.5537890000000  0.4949700000000 1.0
C      1  0.4227220000000  0.4136980000000  0.4894100000000 1.0
C      1  0.4923450000000  0.4371390000000  0.4077260000000 1.0
C      1  0.4002060000000  0.5411060000000  0.5005360000000 1.0
C      1  0.5105140000000  0.5895100000000  0.5196780000000 1.0
C      1  0.5398200000000  0.5317230000000  0.5972120000000 1.0
C      1  0.5207960000000  0.5803950000000  0.5695930000000 1.0
C      1  0.5418340000000  0.4004330000000  0.5202910000000 1.0
C      1  0.4175060000000  0.4708970000000  0.4671920000000 1.0
C      1  0.4454250000000  0.4707030000000  0.5316900000000 1.0
C      1  0.5749610000000  0.4464000000000  0.5538740000000 1.0
C      1  0.5572570000000  0.5696610000000  0.4372690000000 1.0
C      1  0.5038790000000  0.4401710000000  0.5870840000000 1.0
C      1  0.5081640000000  0.5037220000000  0.6149140000000 1.0
C      1  0.5669900000000  0.5198730000000  0.4530560000000 1.0
C      1  0.4675230000000  0.5344250000000  0.5558650000000 1.0
C      1  0.5138130000000  0.4332930000000  0.4943400000000 1.0
C      1  0.4258440000000  0.4950570000000  0.4897110000000 1.0
C      1  0.4810690000000  0.4051860000000  0.4738950000000 1.0
C      1  0.5209750000000  0.5237250000000  0.5483060000000 1.0
C      1  0.4025460000000  0.5005610000000  0.5381320000000 1.0
C      1  0.3864230000000  0.5058890000000  0.4884090000000 1.0
C      1  0.4637450000000  0.6072100000000  0.5245510000000 1.0
C      1  0.4914980000000  0.5068950000000  0.5872820000000 1.0
C      1  0.5481840000000  0.4195800000000  0.5422540000000 1.0
C      1  0.5928580000000  0.5279360000000  0.5126300000000 1.0
C      1  0.5163320000000  0.5026330000000  0.3842170000000 1.0
C      1  0.5451140000000  0.5041380000000  0.5966390000000 1.0
C      1  0.4594630000000  0.4909030000000  0.4597470000000 1.0
C      1  0.5551580000000  0.4434890000000  0.5734700000000 1.0
C      1  0.4852390000000  0.5550200000000  0.5354060000000 1.0
C      1  0.4267660000000  0.5192650000000  0.4443410000000 1.0
C      1  0.5748650000000  0.4842300000000  0.4803850000000 1.0
C      1  0.5992840000000  0.5477600000000  0.4644700000000 1.0
C      1  0.5111770000000  0.4783010000000  0.5374000000000 1.0
C      1  0.4246960000000  0.5309370000000  0.5763560000000 1.0
C      1  0.4136910000000  0.4710970000000  0.5396530000000 1.0
C      1  0.5404310000000  0.5445970000000  0.3931100000000 1.0
C      1  0.5000190000000  0.4856050000000  0.4846270000000 1.0
C      1  0.5206640000000  0.4806060000000  0.5933310000000 1.0
C      1  0.3972370000000  0.4506850000000  0.5272940000000 1.0
C      1  0.4911830000000  0.5938250000000  0.4412950000000 1.0
C      1  0.4461050000000  0.4945650000000  0.4311930000000 1.0
C      1  0.5110420000000  0.4180870000000  0.4643140000000 1.0
C      1  0.6013050000000  0.4777830000000  0.5093840000000 1.0
C      1  0.5033530000000  0.5564630000000  0.5860270000000 1.0
C      1  0.4556460000000  0.6327730000000  0.5266620000000 1.0
C      1  0.5443180000000  0.5711620000000  0.4134710000000 1.0
C      1  0.4940680000000  0.4634470000000  0.4518760000000 1.0
C      1  0.5037010000000  0.4863750000000  0.4076220000000 1.0
C      1  0.4580440000000  0.5059800000000  0.4901890000000 1.0
C      1  0.4414380000000  0.5250750000000  0.5350060000000 1.0
C      1  0.4129700000000  0.5222600000000  0.4752780000000 1.0
C      1  0.5820030000000  0.5949760000000  0.4732460000000 1.0
C      1  0.4964630000000  0.5622760000000  0.4363730000000 1.0
C      1  0.5707240000000  0.4752440000000  0.4237500000000 1.0
C      1  0.5816310000000  0.4544140000000  0.4944060000000 1.0
C      1  0.4045380000000  0.5169300000000  0.5644930000000 1.0
C      1  0.5204960000000  0.4436160000000  0.5205180000000 1.0
C      1  0.4659770000000  0.4473230000000  0.4037410000000 1.0
C      1  0.5331560000000  0.5678570000000  0.4782870000000 1.0
C      1  0.5872870000000  0.5096460000000  0.5602250000000 1.0
C      1  0.4502850000000  0.5881050000000  0.5104030000000 1.0
C      1  0.4684760000000  0.5279740000000  0.4125000000000 1.0
C      1  0.5654400000000  0.4986530000000  0.5766850000000 1.0
C      1  0.5496500000000  0.4871140000000  0.5523360000000 1.0
C      1  0.6055520000000  0.4905380000000  0.5412720000000 1.0
C      1  0.5739500000000  0.5685580000000  0.4663150000000 1.0
C      1  0.4866020000000  0.5639920000000  0.4689730000000 1.0
C      1  0.4409230000000  0.4455690000000  0.4180260000000 1.0
C      1  0.4785730000000  0.5673290000000  0.5974970000000 1.0
C      1  0.4616570000000  0.3971350000000  0.5282090000000 1.0
C      1  0.4513600000000  0.5152210000000  0.5788080000000 1.0
C      1  0.3914690000000  0.4875560000000  0.5087220000000 1.0
C      1  0.5380270000000  0.4387670000000  0.4631660000000 1.0
C      1  0.4612370000000  0.5646860000000  0.5700650000000 1.0
C      1  0.4579210000000  0.5327110000000  0.4420110000000 1.0
C      1  0.5334910000000  0.5651410000000  0.5973120000000 1.0
C      1  0.5532400000000  0.5242320000000  0.5003570000000 1.0
C      1  0.5449920000000  0.4535500000000  0.4187680000000 1.0
C      1  0.5043720000000  0.4361980000000  0.4363220000000 1.0
C      1  0.5473820000000  0.4987100000000  0.4806170000000 1.0
C      1  0.4176050000000  0.5171150000000  0.5145780000000 1.0
C      1  0.5106430000000  0.5212910000000  0.5193530000000 1.0
C      1  0.5068160000000  0.6034410000000  0.4617570000000 1.0
C      1  0.5659270000000  0.4680520000000  0.5317020000000 1.0
C      1  0.5670600000000  0.5064530000000  0.4218110000000 1.0
C      1  0.4283390000000  0.4720240000000  0.4192110000000 1.0
C      1  0.4676260000000  0.5887130000000  0.4729120000000 1.0
C      1  0.4982310000000  0.5312320000000  0.5701160000000 1.0
C      1  0.5214570000000  0.3899970000000  0.5398820000000 1.0
C      1  0.4950410000000  0.4583090000000  0.5596800000000 1.0
C      1  0.4726440000000  0.4172430000000  0.5507570000000 1.0
C      1  0.4118200000000  0.5458710000000  0.4319480000000 1.0
C      1  0.5771790000000  0.5740230000000  0.5080260000000 1.0
C      1  0.5200680000000  0.4790890000000  0.4365290000000 1.0
C      1  0.5168900000000  0.5476770000000  0.5002950000000 1.0
C      1  0.5393170000000  0.4105020000000  0.4914110000000 1.0
C      1  0.4530320000000  0.4974160000000  0.5498900000000 1.0
C      1  0.5349620000000  0.4704750000000  0.5191250000000 1.0
C      1  0.5332080000000  0.4662830000000  0.5682880000000 1.0
C      1  0.6073440000000  0.4783840000000  0.4757050000000 1.0
C      1  0.5251570000000  0.5239650000000  0.3751980000000 1.0
C      1  0.4899700000000  0.4971960000000  0.4547970000000 1.0
C      1  0.5344470000000  0.4346720000000  0.5924950000000 1.0
C      1  0.5173190000000  0.4562730000000  0.4043770000000 1.0
C      1  0.5359430000000  0.5923390000000  0.5421520000000 1.0
C      1  0.4306280000000  0.5578080000000  0.5761580000000 1.0
C      1  0.5438640000000  0.5446730000000  0.4558190000000 1.0
C      1  0.4575630000000  0.5571660000000  0.5168560000000 1.0
C      1  0.4888260000000  0.4109740000000  0.5794150000000 1.0
C      1  0.4364240000000  0.5906910000000  0.4616710000000 1.0
C      1  0.4244580000000  0.5661730000000  0.4466160000000 1.0
C      1  0.5185440000000  0.5589380000000  0.5297290000000 1.0
C      1  0.5368150000000  0.4243700000000  0.4344870000000 1.0
C      1  0.4870900000000  0.4998130000000  0.5290750000000 1.0
C      1  0.4370530000000  0.4584160000000  0.5010980000000 1.0
C      1  0.5631170000000  0.5244780000000  0.4024010000000 1.0
C      1  0.4870960000000  0.4748380000000  0.5977360000000 1.0
C      1  0.5936350000000  0.4887240000000  0.4455560000000 1.0
C      1  0.4729990000000  0.4469310000000  0.5134380000000 1.0
C      1  0.4562190000000  0.4152380000000  0.5867620000000 1.0
C      1  0.5286190000000  0.4790180000000  0.4918800000000 1.0
C      1  0.4231910000000  0.4440070000000  0.4470390000000 1.0
C      1  0.5650090000000  0.4290330000000  0.4790320000000 1.0
C      1  0.6003780000000  0.5220490000000  0.4469770000000 1.0
C      1  0.5892900000000  0.4226140000000  0.5037130000000 1.0
C      1  0.4718740000000  0.4452430000000  0.5906220000000 1.0
C      1  0.4453890000000  0.5517980000000  0.4672090000000 1.0
C      1  0.4967740000000  0.5151530000000  0.4908040000000 1.0
C      1  0.5138520000000  0.5348810000000  0.4689410000000 1.0
C      1  0.5389800000000  0.3995520000000  0.4586130000000 1.0
C      1  0.4851840000000  0.5465110000000  0.4014720000000 1.0
C      1  0.4074070000000  0.5715800000000  0.4991760000000 1.0
C      1  0.4352140000000  0.5522640000000  0.4960060000000 1.0
C      1  0.5189410000000  0.5186130000000  0.4320780000000 1.0
C      1  0.5497790000000  0.5147980000000  0.5325980000000 1.0
C      1  0.4823080000000  0.4910350000000  0.5615850000000 1.0
C      1  0.4288770000000  0.5914360000000  0.4923050000000 1.0
C      1  0.5373900000000  0.5033540000000  0.4503750000000 1.0
C      1  0.6014660000000  0.4560980000000  0.4510610000000 1.0
C      1  0.4466150000000  0.3983370000000  0.5588030000000 1.0
C      1  0.5069280000000  0.5841330000000  0.4876530000000 1.0
C      1  0.5497420000000  0.5549310000000  0.5426430000000 1.0
C      1  0.4671930000000  0.4724260000000  0.3898430000000 1.0
C      1  0.4886250000000  0.4538180000000  0.4840360000000 1.0
C      1  0.5108640000000  0.4082340000000  0.5572280000000 1.0
C      1  0.4623170000000  0.6034250000000  0.4436440000000 1.0
C      1  0.5318910000000  0.4661490000000  0.4638030000000 1.0
C      1  0.4717660000000  0.4038400000000  0.5008620000000 1.0
C      1  0.5995700000000  0.4345080000000  0.5542780000000 1.0
C      1  0.5764140000000  0.5338290000000  0.5418020000000 1.0
END
