TITL C-2848502-4955-132 -0.000664317579349798 125000 -981.843757976182 0 0 181 (C1) n - 1
REM
REM in /home/bkarasulu/work/CARBON/AIRSS/Generating-Clusters/AIREBO/with-SteepDescent/Only-C1/SD-CG-opt/Try1-1.4A-POS3A/HFTN-CG
REM
REM
REM
REM
REM
REM ./C.cell (11c1c37f851c82e70ff6c80c92926a4b)
REM
REM compiler GCC version 9.2.1 20190827 (Red Hat 9.2.1-1)
REM options -cpp -mtune=generic -march=x86-64 -g -O0 -fpre-include=/usr/include/finclude/math-vector-fortran.h
REM seed 1730419722 2032065942 -1052015421 454825383 -1593024966 -97908206 249418474 880168642 -521413057 1260765243 -1546246101 -1911017051 -759156749 643498164 -1247186857 -1093043779 1427109872 851698296 1660404068 -1326974615 -219278852 -717557850 -672175358 -377782065 -743350338 1005430020 -702654857 -683929328 271785037 1472895604 1839984806 -1687236916 -473183026
REM
CELL 1.54180   50.00000   50.00000   50.00000   90.00000   90.00000   90.00000
LATT -1
SFAC C  
C      1  0.4193610000000  0.4919260000000  0.4477830000000 1.0
C      1  0.4332490000000  0.4498990000000  0.5396820000000 1.0
C      1  0.4648980000000  0.5621560000000  0.4090670000000 1.0
C      1  0.5094340000000  0.4889770000000  0.4822340000000 1.0
C      1  0.4217980000000  0.5829940000000  0.5082790000000 1.0
C      1  0.5265680000000  0.4093390000000  0.4596340000000 1.0
C      1  0.4534820000000  0.4809550000000  0.4300550000000 1.0
C      1  0.5360890000000  0.5712370000000  0.5049260000000 1.0
C      1  0.4180500000000  0.5310840000000  0.5089520000000 1.0
C      1  0.5831800000000  0.5618220000000  0.5262420000000 1.0
C      1  0.5077840000000  0.5884230000000  0.4298460000000 1.0
C      1  0.5870640000000  0.5762930000000  0.5491740000000 1.0
C      1  0.4710250000000  0.5222900000000  0.6260800000000 1.0
C      1  0.5726220000000  0.5407510000000  0.4311200000000 1.0
C      1  0.5150080000000  0.5622690000000  0.4589070000000 1.0
C      1  0.4764110000000  0.4118920000000  0.4283480000000 1.0
C      1  0.4593160000000  0.5227600000000  0.5963260000000 1.0
C      1  0.4942520000000  0.4597110000000  0.4230110000000 1.0
C      1  0.4083270000000  0.5454340000000  0.5382870000000 1.0
C      1  0.4290250000000  0.5913580000000  0.5380690000000 1.0
C      1  0.4821020000000  0.4707310000000  0.4734480000000 1.0
C      1  0.4314830000000  0.4994780000000  0.5362130000000 1.0
C      1  0.5649350000000  0.4033810000000  0.4661250000000 1.0
C      1  0.4614090000000  0.4199220000000  0.4784420000000 1.0
C      1  0.5375680000000  0.5762200000000  0.4406050000000 1.0
C      1  0.4971880000000  0.5039740000000  0.6217480000000 1.0
C      1  0.5603480000000  0.5948490000000  0.5260530000000 1.0
C      1  0.3989360000000  0.4739110000000  0.6097930000000 1.0
C      1  0.5980920000000  0.4627560000000  0.5480710000000 1.0
C      1  0.5017510000000  0.6007450000000  0.5143280000000 1.0
C      1  0.5271080000000  0.5479340000000  0.6152160000000 1.0
C      1  0.5323480000000  0.4739870000000  0.5604530000000 1.0
C      1  0.4290270000000  0.4798670000000  0.4109580000000 1.0
C      1  0.4413380000000  0.5446530000000  0.5851880000000 1.0
C      1  0.4810550000000  0.5835350000000  0.5573090000000 1.0
C      1  0.5786350000000  0.4794650000000  0.4734890000000 1.0
C      1  0.5005050000000  0.4993020000000  0.4028900000000 1.0
C      1  0.4372580000000  0.5571980000000  0.5010870000000 1.0
C      1  0.5835100000000  0.5107780000000  0.5081790000000 1.0
C      1  0.5391270000000  0.5450020000000  0.4271100000000 1.0
C      1  0.4535100000000  0.5048860000000  0.5611330000000 1.0
C      1  0.4783880000000  0.3963240000000  0.4907220000000 1.0
C      1  0.4190800000000  0.4769990000000  0.5920990000000 1.0
C      1  0.5672040000000  0.4864850000000  0.3973950000000 1.0
C      1  0.4426920000000  0.5103930000000  0.4057200000000 1.0
C      1  0.4805840000000  0.4529790000000  0.3860290000000 1.0
C      1  0.6015880000000  0.4544200000000  0.4763330000000 1.0
C      1  0.5607700000000  0.5890800000000  0.5553070000000 1.0
C      1  0.4289260000000  0.5431750000000  0.4402850000000 1.0
C      1  0.4829800000000  0.4621900000000  0.5759060000000 1.0
C      1  0.5129890000000  0.4188240000000  0.5683330000000 1.0
C      1  0.4649000000000  0.4483080000000  0.4100620000000 1.0
C      1  0.4512220000000  0.4144510000000  0.4486430000000 1.0
C      1  0.5321020000000  0.4500290000000  0.4006440000000 1.0
C      1  0.3854770000000  0.4988840000000  0.4905170000000 1.0
C      1  0.4778070000000  0.6143160000000  0.5081200000000 1.0
C      1  0.4881060000000  0.4326580000000  0.5598430000000 1.0
C      1  0.5398640000000  0.5274110000000  0.3980130000000 1.0
C      1  0.4820190000000  0.5525240000000  0.4789130000000 1.0
C      1  0.4171680000000  0.5434860000000  0.5710850000000 1.0
C      1  0.4875550000000  0.5182240000000  0.5779140000000 1.0
C      1  0.5009480000000  0.5738690000000  0.5335530000000 1.0
C      1  0.5233410000000  0.5209800000000  0.6079310000000 1.0
C      1  0.5099400000000  0.5933190000000  0.4638540000000 1.0
C      1  0.5577280000000  0.4367260000000  0.5667820000000 1.0
C      1  0.4563490000000  0.4738210000000  0.5615350000000 1.0
C      1  0.5349320000000  0.4587710000000  0.5318730000000 1.0
C      1  0.4863760000000  0.5210330000000  0.4786070000000 1.0
C      1  0.5360260000000  0.5102340000000  0.4849290000000 1.0
C      1  0.5213530000000  0.4001640000000  0.5500560000000 1.0
C      1  0.5703500000000  0.4460980000000  0.4335350000000 1.0
C      1  0.4686080000000  0.5327040000000  0.5540790000000 1.0
C      1  0.5934290000000  0.4554130000000  0.4452090000000 1.0
C      1  0.5465770000000  0.4291960000000  0.4786450000000 1.0
C      1  0.4570200000000  0.5146210000000  0.5224820000000 1.0
C      1  0.4715650000000  0.5058420000000  0.4045710000000 1.0
C      1  0.4684920000000  0.4970200000000  0.4902100000000 1.0
C      1  0.5625640000000  0.4883840000000  0.5823460000000 1.0
C      1  0.5098530000000  0.5863260000000  0.5684920000000 1.0
C      1  0.5447160000000  0.5431310000000  0.5527120000000 1.0
C      1  0.4236300000000  0.5733040000000  0.4503820000000 1.0
C      1  0.4069120000000  0.5130350000000  0.5427390000000 1.0
C      1  0.4201150000000  0.4615290000000  0.4381710000000 1.0
C      1  0.4917080000000  0.4304700000000  0.5074010000000 1.0
C      1  0.4135480000000  0.4911720000000  0.4764390000000 1.0
C      1  0.4239240000000  0.4398160000000  0.4631300000000 1.0
C      1  0.5619110000000  0.4098460000000  0.4993770000000 1.0
C      1  0.5614730000000  0.5087930000000  0.3873510000000 1.0
C      1  0.5191040000000  0.5214170000000  0.5534410000000 1.0
C      1  0.5683750000000  0.4887840000000  0.5294670000000 1.0
C      1  0.4434420000000  0.4955510000000  0.5925240000000 1.0
C      1  0.4686130000000  0.4879180000000  0.6134600000000 1.0
C      1  0.4878580000000  0.5552640000000  0.4454920000000 1.0
C      1  0.5811830000000  0.5320550000000  0.4620630000000 1.0
C      1  0.5058680000000  0.4939640000000  0.5383360000000 1.0
C      1  0.4799200000000  0.6018290000000  0.4597170000000 1.0
C      1  0.5337020000000  0.4757290000000  0.4650860000000 1.0
C      1  0.4824080000000  0.5347270000000  0.4189250000000 1.0
C      1  0.4902530000000  0.5526480000000  0.5809390000000 1.0
C      1  0.4605520000000  0.5665490000000  0.5780310000000 1.0
C      1  0.5035080000000  0.3909400000000  0.4750590000000 1.0
C      1  0.4813100000000  0.4845290000000  0.4423830000000 1.0
C      1  0.5337150000000  0.5667480000000  0.4012220000000 1.0
C      1  0.5051630000000  0.4243490000000  0.4811130000000 1.0
C      1  0.5687430000000  0.5754090000000  0.4994040000000 1.0
C      1  0.5856620000000  0.5073960000000  0.5520680000000 1.0
C      1  0.5398710000000  0.4110700000000  0.5252780000000 1.0
C      1  0.4412560000000  0.5172540000000  0.4877790000000 1.0
C      1  0.4260370000000  0.5138840000000  0.4315090000000 1.0
C      1  0.5043800000000  0.4488700000000  0.4632970000000 1.0
C      1  0.4643480000000  0.6030230000000  0.4871150000000 1.0
C      1  0.4166630000000  0.4460860000000  0.4920020000000 1.0
C      1  0.5039120000000  0.4887220000000  0.5718990000000 1.0
C      1  0.5043610000000  0.5627210000000  0.5025320000000 1.0
C      1  0.4524200000000  0.5477840000000  0.5285070000000 1.0
C      1  0.4581220000000  0.4265750000000  0.5110620000000 1.0
C      1  0.3951430000000  0.4681890000000  0.4925460000000 1.0
C      1  0.4747820000000  0.3910370000000  0.5182400000000 1.0
C      1  0.4516890000000  0.5743670000000  0.5473300000000 1.0
C      1  0.3877630000000  0.5228470000000  0.5023370000000 1.0
C      1  0.4728120000000  0.4124310000000  0.5382700000000 1.0
C      1  0.5481200000000  0.4568290000000  0.4854040000000 1.0
C      1  0.5400800000000  0.5137500000000  0.5792300000000 1.0
C      1  0.4531150000000  0.5291960000000  0.4581630000000 1.0
C      1  0.4081730000000  0.4223030000000  0.5101550000000 1.0
C      1  0.6334740000000  0.4955210000000  0.5614190000000 1.0
C      1  0.5996180000000  0.5207050000000  0.4882920000000 1.0
C      1  0.4274430000000  0.4633810000000  0.5685480000000 1.0
C      1  0.5270870000000  0.4258410000000  0.4169000000000 1.0
C      1  0.5739920000000  0.4673920000000  0.5036390000000 1.0
C      1  0.5428280000000  0.4947200000000  0.4390960000000 1.0
C      1  0.4767200000000  0.4614140000000  0.6044580000000 1.0
C      1  0.4321300000000  0.4893060000000  0.5048870000000 1.0
C      1  0.4825340000000  0.5158940000000  0.4472470000000 1.0
C      1  0.4991400000000  0.5450110000000  0.5506370000000 1.0
C      1  0.4879180000000  0.5077380000000  0.5160300000000 1.0
C      1  0.5688500000000  0.5243510000000  0.5660450000000 1.0
C      1  0.5242750000000  0.4593790000000  0.4387020000000 1.0
C      1  0.5068800000000  0.4694380000000  0.3929740000000 1.0
C      1  0.5780240000000  0.4228160000000  0.5236640000000 1.0
C      1  0.6097780000000  0.5115920000000  0.4577370000000 1.0
C      1  0.5232450000000  0.5095830000000  0.4181070000000 1.0
C      1  0.5519380000000  0.4682980000000  0.4197310000000 1.0
C      1  0.5150650000000  0.5253850000000  0.4441820000000 1.0
C      1  0.4944910000000  0.5717550000000  0.4098410000000 1.0
C      1  0.4028330000000  0.5744460000000  0.5323180000000 1.0
C      1  0.5367040000000  0.4977430000000  0.5245110000000 1.0
C      1  0.5286800000000  0.4740850000000  0.5045410000000 1.0
C      1  0.4775560000000  0.4606950000000  0.5041680000000 1.0
C      1  0.5208550000000  0.5976410000000  0.4924750000000 1.0
C      1  0.5153700000000  0.4344200000000  0.5288180000000 1.0
C      1  0.5096210000000  0.5427700000000  0.4004270000000 1.0
C      1  0.5061060000000  0.5304950000000  0.5018070000000 1.0
C      1  0.5528050000000  0.5478530000000  0.5231640000000 1.0
C      1  0.5189850000000  0.4889190000000  0.6023800000000 1.0
C      1  0.5517060000000  0.4209750000000  0.4399010000000 1.0
C      1  0.5777980000000  0.5636650000000  0.4746290000000 1.0
C      1  0.5610060000000  0.5047220000000  0.4650140000000 1.0
C      1  0.4561500000000  0.4505780000000  0.4645710000000 1.0
C      1  0.4441350000000  0.4576550000000  0.5083960000000 1.0
C      1  0.5636910000000  0.4167920000000  0.5485110000000 1.0
C      1  0.4666570000000  0.4513700000000  0.5412460000000 1.0
C      1  0.4513730000000  0.5584980000000  0.4753610000000 1.0
C      1  0.4490660000000  0.5880470000000  0.4621590000000 1.0
C      1  0.4988410000000  0.4260220000000  0.4236190000000 1.0
C      1  0.5180310000000  0.5650700000000  0.5924270000000 1.0
C      1  0.6084220000000  0.4890590000000  0.5546220000000 1.0
C      1  0.4153920000000  0.4249960000000  0.5343370000000 1.0
C      1  0.4185430000000  0.4106840000000  0.4530820000000 1.0
C      1  0.5653780000000  0.4673870000000  0.5557520000000 1.0
C      1  0.4389780000000  0.5621030000000  0.4153730000000 1.0
C      1  0.5890370000000  0.4483290000000  0.5230100000000 1.0
C      1  0.4465490000000  0.4416270000000  0.4304630000000 1.0
C      1  0.5394360000000  0.5706240000000  0.5665250000000 1.0
C      1  0.5538040000000  0.5207330000000  0.5103380000000 1.0
C      1  0.6025920000000  0.4856030000000  0.4517750000000 1.0
C      1  0.5659850000000  0.5661870000000  0.4478120000000 1.0
C      1  0.4956470000000  0.4620980000000  0.5312810000000 1.0
C      1  0.5344610000000  0.4312910000000  0.5822880000000 1.0
C      1  0.5245540000000  0.5377660000000  0.4741850000000 1.0
C      1  0.5464120000000  0.4758650000000  0.6030580000000 1.0
END
