TITL C-2848497-6229-202 -426.84661490481 125000 -263.5458894632 0 0 50 (C1) n - 1
REM
REM in /home/bkarasulu/work/CARBON/AIRSS/Generating-Clusters/AIREBO/with-SteepDescent/Only-C1/SD-CG-opt/Try1-1.4A-POS3A/HFTN-CG
REM
REM
REM
REM
REM
REM ./C.cell (11c1c37f851c82e70ff6c80c92926a4b)
REM
REM compiler GCC version 9.2.1 20190827 (Red Hat 9.2.1-1)
REM options -cpp -mtune=generic -march=x86-64 -g -O0 -fpre-include=/usr/include/finclude/math-vector-fortran.h
REM seed 318295790 1476677995 2094581725 -960928130 109287696 616274615 -1691589311 -295297105 1537478522 2015284123 31774738 958164323 243660556 -1431691596 -931002312 -612310955 -162622800 -1576819864 1073269681 -256629021 -207658850 -993569336 1663681102 -2012686140 1232034007 -288195283 83833670 -1342979552 1098225431 1012695042 773613932 -879174784 -978936828
REM
CELL 1.54180   50.00000   50.00000   50.00000   90.00000   90.00000   90.00000
LATT -1
SFAC C  
C      1  0.4875950000000  0.4519130000000  0.4898320000000 1.0
C      1  0.5648020000000  0.4958350000000  0.5032760000000 1.0
C      1  0.5110610000000  0.4620960000000  0.5683210000000 1.0
C      1  0.5202010000000  0.4945190000000  0.5384990000000 1.0
C      1  0.4585930000000  0.4980710000000  0.5019940000000 1.0
C      1  0.5454340000000  0.4510190000000  0.4869310000000 1.0
C      1  0.4657080000000  0.5503260000000  0.5231290000000 1.0
C      1  0.4863490000000  0.4953750000000  0.4632720000000 1.0
C      1  0.4456400000000  0.4655470000000  0.5213310000000 1.0
C      1  0.5209310000000  0.5499530000000  0.4857710000000 1.0
C      1  0.5267280000000  0.5486200000000  0.5467130000000 1.0
C      1  0.4396300000000  0.5284850000000  0.4733370000000 1.0
C      1  0.5043510000000  0.4084410000000  0.5082030000000 1.0
C      1  0.4719740000000  0.5208640000000  0.4805890000000 1.0
C      1  0.5388490000000  0.5209000000000  0.5433460000000 1.0
C      1  0.5067970000000  0.5728410000000  0.4651430000000 1.0
C      1  0.4930640000000  0.5415140000000  0.4683970000000 1.0
C      1  0.4548780000000  0.5424720000000  0.5005160000000 1.0
C      1  0.5610320000000  0.4664130000000  0.5200440000000 1.0
C      1  0.5244940000000  0.4655110000000  0.5446120000000 1.0
C      1  0.5192430000000  0.5400640000000  0.5146840000000 1.0
C      1  0.5069760000000  0.4343250000000  0.5058910000000 1.0
C      1  0.5127370000000  0.4902230000000  0.4763960000000 1.0
C      1  0.5400060000000  0.5135470000000  0.5098820000000 1.0
C      1  0.5074800000000  0.5648900000000  0.5589540000000 1.0
C      1  0.4616780000000  0.4901450000000  0.5337630000000 1.0
C      1  0.4846920000000  0.4802790000000  0.5027910000000 1.0
C      1  0.5722080000000  0.4661040000000  0.4891730000000 1.0
C      1  0.5714600000000  0.5232270000000  0.4872760000000 1.0
C      1  0.5113070000000  0.4956690000000  0.5076340000000 1.0
C      1  0.5424320000000  0.4924250000000  0.4617260000000 1.0
C      1  0.4197420000000  0.4618960000000  0.5296550000000 1.0
C      1  0.4914890000000  0.4821520000000  0.5721290000000 1.0
C      1  0.4816640000000  0.4741690000000  0.4371010000000 1.0
C      1  0.4917640000000  0.5072850000000  0.4318860000000 1.0
C      1  0.5548560000000  0.5161200000000  0.4601950000000 1.0
C      1  0.5313650000000  0.4499300000000  0.5178900000000 1.0
C      1  0.4794890000000  0.5597700000000  0.5501000000000 1.0
C      1  0.4334730000000  0.5061490000000  0.4560640000000 1.0
C      1  0.4900900000000  0.5051170000000  0.5449250000000 1.0
C      1  0.4924610000000  0.5332280000000  0.5331680000000 1.0
C      1  0.5482520000000  0.5427670000000  0.4760090000000 1.0
C      1  0.4544640000000  0.4917000000000  0.4475520000000 1.0
C      1  0.4969930000000  0.4568910000000  0.4609270000000 1.0
C      1  0.4287470000000  0.4937520000000  0.4961190000000 1.0
C      1  0.4631950000000  0.4850370000000  0.5659860000000 1.0
C      1  0.4960580000000  0.5343520000000  0.4355840000000 1.0
C      1  0.4575590000000  0.4510970000000  0.5019240000000 1.0
C      1  0.5020170000000  0.5641970000000  0.4369170000000 1.0
C      1  0.5279940000000  0.4627770000000  0.4644430000000 1.0
END
