TITL C-2847955-7945-671 0.000855265073994893 125000 -188.750141770938 0 0 34 (C1) n - 1
REM
REM in /home/bkarasulu/work/CARBON/AIRSS/Generating-Clusters/AIREBO/with-SteepDescent/Only-C1/SD-CG-opt/Try1-1.4A-POS3A/HFTN-CG
REM
REM
REM
REM
REM
REM ./C.cell (11c1c37f851c82e70ff6c80c92926a4b)
REM
REM compiler GCC version 9.2.1 20190827 (Red Hat 9.2.1-1)
REM options -cpp -mtune=generic -march=x86-64 -g -O0 -fpre-include=/usr/include/finclude/math-vector-fortran.h
REM seed 865334446 -109320282 -714404398 332404841 939919191 1950305295 -1677212122 1808645517 -192615695 -1409060432 877889826 1823315996 789714170 -107219109 1479656271 -1088686969 -867169782 -1668792785 -1285616190 2100096609 -1140846654 -1375242500 304075671 -1443476963 -2144038537 -1985662363 235339028 -1005624436 -2109983257 1369503551 1890388340 -1941604482 -1536702606
REM
CELL 1.54180   50.00000   50.00000   50.00000   90.00000   90.00000   90.00000
LATT -1
SFAC C  
C      1  0.5374090000000  0.5490170000000  0.5265610000000 1.0
C      1  0.5271780000000  0.5128470000000  0.4851720000000 1.0
C      1  0.4944860000000  0.5350960000000  0.5463180000000 1.0
C      1  0.4855540000000  0.5159100000000  0.4527100000000 1.0
C      1  0.4749130000000  0.5447460000000  0.4952810000000 1.0
C      1  0.4530680000000  0.4791720000000  0.4675930000000 1.0
C      1  0.4787840000000  0.5286310000000  0.5217220000000 1.0
C      1  0.5425030000000  0.4956860000000  0.5091630000000 1.0
C      1  0.4738850000000  0.4914950000000  0.5587220000000 1.0
C      1  0.4918500000000  0.4796470000000  0.5377880000000 1.0
C      1  0.5130890000000  0.5020950000000  0.4454460000000 1.0
C      1  0.5312910000000  0.4843350000000  0.5364090000000 1.0
C      1  0.5413150000000  0.5288310000000  0.5102940000000 1.0
C      1  0.4747510000000  0.5294390000000  0.4274250000000 1.0
C      1  0.5074230000000  0.4531370000000  0.4795490000000 1.0
C      1  0.4864320000000  0.4731310000000  0.4725270000000 1.0
C      1  0.4457480000000  0.5060230000000  0.4878900000000 1.0
C      1  0.4977080000000  0.5038830000000  0.4821480000000 1.0
C      1  0.5336150000000  0.4620120000000  0.4734850000000 1.0
C      1  0.5356320000000  0.4792290000000  0.4507850000000 1.0
C      1  0.5050640000000  0.4406060000000  0.5038340000000 1.0
C      1  0.4658840000000  0.5271720000000  0.4755840000000 1.0
C      1  0.4643960000000  0.5386030000000  0.4059730000000 1.0
C      1  0.4672920000000  0.4830860000000  0.4976160000000 1.0
C      1  0.4509010000000  0.5107530000000  0.5213370000000 1.0
C      1  0.5125280000000  0.4565810000000  0.5311860000000 1.0
C      1  0.4486060000000  0.4991250000000  0.5463970000000 1.0
C      1  0.5416620000000  0.5106880000000  0.4572740000000 1.0
C      1  0.4880900000000  0.4983750000000  0.5138930000000 1.0
C      1  0.5430740000000  0.4503550000000  0.5189030000000 1.0
C      1  0.5159070000000  0.5530710000000  0.5433190000000 1.0
C      1  0.4979120000000  0.5111890000000  0.5615700000000 1.0
C      1  0.5484360000000  0.4675990000000  0.4974950000000 1.0
C      1  0.5236130000000  0.4984340000000  0.5586300000000 1.0
END
