TITL C-2847948-6138-599 0.000794480388167699 125000 -529.005274286694 0 0 95 (C1) n - 1
REM
REM in /home/bkarasulu/work/CARBON/AIRSS/Generating-Clusters/AIREBO/with-SteepDescent/Only-C1/SD-CG-opt/Try1-1.4A-POS3A/HFTN-CG
REM
REM
REM
REM
REM
REM ./C.cell (11c1c37f851c82e70ff6c80c92926a4b)
REM
REM compiler GCC version 9.2.1 20190827 (Red Hat 9.2.1-1)
REM options -cpp -mtune=generic -march=x86-64 -g -O0 -fpre-include=/usr/include/finclude/math-vector-fortran.h
REM seed -1625301314 802321526 -2092835750 1648380472 -1071437588 -1035964223 798848609 -1530143182 906554858 -665404025 -585340347 -244208895 204839550 1977434952 1975058598 -1103913654 818090238 482256882 -1260430233 -2096183106 -1055674020 -1035256652 -924894604 -1474868272 -1007995763 514742562 271429498 -1421802321 774437018 -1330178930 1555061715 730579935 1409978513
REM
CELL 1.54180   50.00000   50.00000   50.00000   90.00000   90.00000   90.00000
LATT -1
SFAC C  
C      1  0.4737710000000  0.4975560000000  0.4655070000000 1.0
C      1  0.4715590000000  0.4874420000000  0.5381700000000 1.0
C      1  0.5205170000000  0.4496320000000  0.4180710000000 1.0
C      1  0.4918370000000  0.5163220000000  0.5893070000000 1.0
C      1  0.4307920000000  0.4594800000000  0.5195670000000 1.0
C      1  0.4731190000000  0.4465040000000  0.5096940000000 1.0
C      1  0.5688790000000  0.5516140000000  0.4823740000000 1.0
C      1  0.4577510000000  0.5744500000000  0.5026020000000 1.0
C      1  0.5794740000000  0.4925420000000  0.4743500000000 1.0
C      1  0.5160130000000  0.4682600000000  0.5764560000000 1.0
C      1  0.5297910000000  0.4312070000000  0.4837650000000 1.0
C      1  0.4560000000000  0.4259520000000  0.4886970000000 1.0
C      1  0.4415920000000  0.4629100000000  0.4295290000000 1.0
C      1  0.4942660000000  0.4632920000000  0.4272510000000 1.0
C      1  0.5679520000000  0.5237650000000  0.5547150000000 1.0
C      1  0.5265120000000  0.5143120000000  0.4598000000000 1.0
C      1  0.5525150000000  0.5587730000000  0.5099010000000 1.0
C      1  0.4558700000000  0.4471690000000  0.5389960000000 1.0
C      1  0.5550390000000  0.5677050000000  0.4561220000000 1.0
C      1  0.4485900000000  0.5267220000000  0.5613130000000 1.0
C      1  0.4967830000000  0.4508640000000  0.5669380000000 1.0
C      1  0.5602290000000  0.5086970000000  0.5263710000000 1.0
C      1  0.5551140000000  0.5107710000000  0.5768550000000 1.0
C      1  0.5037950000000  0.4210400000000  0.5121340000000 1.0
C      1  0.5468100000000  0.4885840000000  0.4370140000000 1.0
C      1  0.4824400000000  0.5490980000000  0.4530570000000 1.0
C      1  0.5437330000000  0.4622020000000  0.4851650000000 1.0
C      1  0.4236770000000  0.5138360000000  0.5162130000000 1.0
C      1  0.4807030000000  0.4609050000000  0.4798230000000 1.0
C      1  0.4936520000000  0.5004580000000  0.5158300000000 1.0
C      1  0.5084380000000  0.5780240000000  0.5375900000000 1.0
C      1  0.4210500000000  0.5436690000000  0.5082310000000 1.0
C      1  0.4474060000000  0.4893380000000  0.4456600000000 1.0
C      1  0.4972860000000  0.4312600000000  0.4817240000000 1.0
C      1  0.4358550000000  0.4835370000000  0.4744450000000 1.0
C      1  0.5366320000000  0.5240390000000  0.4907720000000 1.0
C      1  0.5795010000000  0.4545290000000  0.4473730000000 1.0
C      1  0.5595680000000  0.4663850000000  0.5416600000000 1.0
C      1  0.4954690000000  0.5613090000000  0.5039830000000 1.0
C      1  0.5494560000000  0.5397120000000  0.5321280000000 1.0
C      1  0.5278270000000  0.5041990000000  0.5170710000000 1.0
C      1  0.5447150000000  0.4448720000000  0.5288330000000 1.0
C      1  0.5253650000000  0.5516840000000  0.5775150000000 1.0
C      1  0.4653480000000  0.4862400000000  0.5690470000000 1.0
C      1  0.5529720000000  0.5351620000000  0.4551580000000 1.0
C      1  0.4920620000000  0.5291600000000  0.4976400000000 1.0
C      1  0.4881180000000  0.5720010000000  0.4318100000000 1.0
C      1  0.4359470000000  0.4518210000000  0.4867250000000 1.0
C      1  0.5719970000000  0.4745270000000  0.4944230000000 1.0
C      1  0.4555210000000  0.4524990000000  0.4589320000000 1.0
C      1  0.5419000000000  0.4563540000000  0.4340810000000 1.0
C      1  0.5198340000000  0.5068380000000  0.4272410000000 1.0
C      1  0.4938800000000  0.4951360000000  0.4227020000000 1.0
C      1  0.5090170000000  0.5363290000000  0.5998550000000 1.0
C      1  0.4193790000000  0.5490540000000  0.4800370000000 1.0
C      1  0.4704250000000  0.4167150000000  0.4413640000000 1.0
C      1  0.5090110000000  0.4975300000000  0.5761780000000 1.0
C      1  0.4411150000000  0.5586970000000  0.5217960000000 1.0
C      1  0.5407160000000  0.5283030000000  0.5938970000000 1.0
C      1  0.4994120000000  0.4670170000000  0.5180960000000 1.0
C      1  0.4652100000000  0.5125120000000  0.5799180000000 1.0
C      1  0.5205120000000  0.5417410000000  0.5490130000000 1.0
C      1  0.5724050000000  0.4822990000000  0.5215850000000 1.0
C      1  0.5361580000000  0.4218410000000  0.5147730000000 1.0
C      1  0.4692480000000  0.5078290000000  0.4272490000000 1.0
C      1  0.4446620000000  0.5458210000000  0.4653260000000 1.0
C      1  0.4568400000000  0.5165510000000  0.5109170000000 1.0
C      1  0.4687500000000  0.4577190000000  0.5653230000000 1.0
C      1  0.4695080000000  0.4892150000000  0.4950040000000 1.0
C      1  0.5015610000000  0.4699580000000  0.4575510000000 1.0
C      1  0.4621030000000  0.5392630000000  0.5363760000000 1.0
C      1  0.4943480000000  0.5217900000000  0.4660220000000 1.0
C      1  0.5303490000000  0.4704440000000  0.5138190000000 1.0
C      1  0.4748330000000  0.4193370000000  0.5300790000000 1.0
C      1  0.4994190000000  0.4410080000000  0.5391350000000 1.0
C      1  0.4694770000000  0.4460520000000  0.4286030000000 1.0
C      1  0.4420100000000  0.4848700000000  0.5366890000000 1.0
C      1  0.5687060000000  0.5186610000000  0.4796610000000 1.0
C      1  0.5527980000000  0.4407610000000  0.4603520000000 1.0
C      1  0.4905200000000  0.5512140000000  0.5360730000000 1.0
C      1  0.5250110000000  0.5767620000000  0.5119040000000 1.0
C      1  0.5280930000000  0.4811700000000  0.4644120000000 1.0
C      1  0.5296430000000  0.5567740000000  0.4847900000000 1.0
C      1  0.5759430000000  0.4822880000000  0.4483630000000 1.0
C      1  0.5434350000000  0.4830770000000  0.5628520000000 1.0
C      1  0.4737730000000  0.5907590000000  0.4880600000000 1.0
C      1  0.5265640000000  0.5796630000000  0.4605360000000 1.0
C      1  0.5250260000000  0.5090490000000  0.5506090000000 1.0
C      1  0.4619710000000  0.5437130000000  0.4914020000000 1.0
C      1  0.4954670000000  0.5727950000000  0.4719720000000 1.0
C      1  0.4569540000000  0.5277620000000  0.4461170000000 1.0
C      1  0.4288920000000  0.5091890000000  0.5483210000000 1.0
C      1  0.5071410000000  0.5879000000000  0.4368440000000 1.0
C      1  0.4248550000000  0.4872570000000  0.5007560000000 1.0
C      1  0.4738150000000  0.4149510000000  0.4680380000000 1.0
END
