TITL C-2847958-8115-34 -0.000191208657650455 125000 -121.889648385236 0 0 22 (C1) n - 1
REM
REM in /home/bkarasulu/work/CARBON/AIRSS/Generating-Clusters/AIREBO/with-SteepDescent/Only-C1/SD-CG-opt/Try1-1.4A-POS3A/HFTN-CG
REM
REM
REM
REM
REM
REM ./C.cell (11c1c37f851c82e70ff6c80c92926a4b)
REM
REM compiler GCC version 9.2.1 20190827 (Red Hat 9.2.1-1)
REM options -cpp -mtune=generic -march=x86-64 -g -O0 -fpre-include=/usr/include/finclude/math-vector-fortran.h
REM seed -2034135036 -1341666555 617004287 -751411622 -2109708780 1172644175 1720776099 -796006943 1182570038 -448063774 -8379364 -1492242798 -1032594200 -613072347 -1558833070 -1827219458 1355984759 -600312402 -243067845 2059165784 1131595729 -643575349 -459473362 -1723613663 135809756 -1798010053 -1918157402 -1358138441 -652159612 175316643 -752547013 2054204795 592398169
REM
CELL 1.54180   50.00000   50.00000   50.00000   90.00000   90.00000   90.00000
LATT -1
SFAC C  
C      1  0.5057670000000  0.4743550000000  0.4969000000000 1.0
C      1  0.5375980000000  0.4778870000000  0.4586100000000 1.0
C      1  0.5190590000000  0.5924550000000  0.4631320000000 1.0
C      1  0.5763050000000  0.5340190000000  0.4025830000000 1.0
C      1  0.4791310000000  0.5409510000000  0.5055180000000 1.0
C      1  0.5424720000000  0.5465390000000  0.4413780000000 1.0
C      1  0.4722890000000  0.4868380000000  0.5317780000000 1.0
C      1  0.5523710000000  0.4671520000000  0.4398080000000 1.0
C      1  0.4580990000000  0.4815030000000  0.5536780000000 1.0
C      1  0.4927090000000  0.5187430000000  0.4991500000000 1.0
C      1  0.5246190000000  0.5368320000000  0.4659720000000 1.0
C      1  0.5107200000000  0.4220680000000  0.5077700000000 1.0
C      1  0.5240830000000  0.5675660000000  0.4568880000000 1.0
C      1  0.5585790000000  0.5399480000000  0.4209580000000 1.0
C      1  0.5199750000000  0.4887520000000  0.4766970000000 1.0
C      1  0.5122970000000  0.5163080000000  0.4783310000000 1.0
C      1  0.4304630000000  0.4413660000000  0.6061400000000 1.0
C      1  0.4293380000000  0.4669250000000  0.5973990000000 1.0
C      1  0.4148020000000  0.4855320000000  0.6105670000000 1.0
C      1  0.4429620000000  0.4740700000000  0.5742980000000 1.0
C      1  0.5073270000000  0.4473180000000  0.5016120000000 1.0
C      1  0.4890350000000  0.4928740000000  0.5108320000000 1.0
END
