TITL C-2847944-5688-123 0.00198090338641734 125000 -333.668226552355 0 0 60 (C1) n - 1
REM
REM in /home/bkarasulu/work/CARBON/AIRSS/Generating-Clusters/AIREBO/with-SteepDescent/Only-C1/SD-CG-opt/Try1-1.4A-POS3A/HFTN-CG
REM
REM
REM
REM
REM
REM ./C.cell (11c1c37f851c82e70ff6c80c92926a4b)
REM
REM compiler GCC version 9.2.1 20190827 (Red Hat 9.2.1-1)
REM options -cpp -mtune=generic -march=x86-64 -g -O0 -fpre-include=/usr/include/finclude/math-vector-fortran.h
REM seed 470802705 -1309905450 2118007606 -526193850 776293517 -2026070842 732592109 -1186132989 -384762899 1560139448 352124534 -1787328221 1287046965 502909855 1196472545 449787568 1637643643 -1473130109 -1307133307 -1163583574 1544279980 344204163 352283947 -807410240 -612272693 -1631108207 -577015376 1889104526 303383034 1596500487 -1106245307 -1189061790 -524010183
REM
CELL 1.54180   50.00000   50.00000   50.00000   90.00000   90.00000   90.00000
LATT -1
SFAC C  
C      1  0.4344300000000  0.5190360000000  0.5237080000000 1.0
C      1  0.5576420000000  0.5500420000000  0.5258390000000 1.0
C      1  0.4926240000000  0.5224120000000  0.5656910000000 1.0
C      1  0.4817800000000  0.5613850000000  0.4476100000000 1.0
C      1  0.5308170000000  0.5087260000000  0.4707520000000 1.0
C      1  0.5485440000000  0.5472190000000  0.4932000000000 1.0
C      1  0.4921930000000  0.4643810000000  0.4592460000000 1.0
C      1  0.5844230000000  0.5117180000000  0.4760690000000 1.0
C      1  0.5321810000000  0.5371630000000  0.4701300000000 1.0
C      1  0.5262930000000  0.5514960000000  0.5186160000000 1.0
C      1  0.4390510000000  0.4468850000000  0.4968700000000 1.0
C      1  0.4816730000000  0.5155110000000  0.4755050000000 1.0
C      1  0.4975670000000  0.5067460000000  0.5042790000000 1.0
C      1  0.4793340000000  0.4932330000000  0.5282550000000 1.0
C      1  0.5733570000000  0.4886180000000  0.4634010000000 1.0
C      1  0.5054330000000  0.5268860000000  0.4304900000000 1.0
C      1  0.5082310000000  0.5322670000000  0.5401050000000 1.0
C      1  0.5382050000000  0.4546160000000  0.4487310000000 1.0
C      1  0.4349420000000  0.4604380000000  0.5263740000000 1.0
C      1  0.4414290000000  0.5350970000000  0.4454360000000 1.0
C      1  0.5698260000000  0.5229800000000  0.4962110000000 1.0
C      1  0.4696150000000  0.4744510000000  0.5653840000000 1.0
C      1  0.4701520000000  0.5040700000000  0.5570970000000 1.0
C      1  0.4486120000000  0.5151010000000  0.4674920000000 1.0
C      1  0.5017400000000  0.5611050000000  0.4998940000000 1.0
C      1  0.4429030000000  0.5177300000000  0.5533010000000 1.0
C      1  0.4567360000000  0.5572060000000  0.4400780000000 1.0
C      1  0.5523900000000  0.4674590000000  0.5475150000000 1.0
C      1  0.4986170000000  0.5058320000000  0.4472470000000 1.0
C      1  0.5650510000000  0.5252030000000  0.5357040000000 1.0
C      1  0.5143890000000  0.5520840000000  0.4482880000000 1.0
C      1  0.5826020000000  0.4631750000000  0.5058220000000 1.0
C      1  0.5210830000000  0.4708170000000  0.5452240000000 1.0
C      1  0.4342980000000  0.4908180000000  0.5118710000000 1.0
C      1  0.4550800000000  0.5259280000000  0.4974270000000 1.0
C      1  0.4993930000000  0.5279750000000  0.5901900000000 1.0
C      1  0.4677660000000  0.4451430000000  0.5096550000000 1.0
C      1  0.4938510000000  0.5473370000000  0.4750460000000 1.0
C      1  0.4724490000000  0.4830700000000  0.4771060000000 1.0
C      1  0.5668430000000  0.4756290000000  0.5257900000000 1.0
C      1  0.4549190000000  0.4561580000000  0.5458670000000 1.0
C      1  0.4377090000000  0.4637070000000  0.4731600000000 1.0
C      1  0.5475200000000  0.4932380000000  0.4520830000000 1.0
C      1  0.5278830000000  0.4604190000000  0.4956180000000 1.0
C      1  0.4332930000000  0.4904610000000  0.4804520000000 1.0
C      1  0.4297640000000  0.5512990000000  0.5143500000000 1.0
C      1  0.5157940000000  0.4495140000000  0.5218790000000 1.0
C      1  0.4606100000000  0.5488980000000  0.5195570000000 1.0
C      1  0.5735740000000  0.4641690000000  0.4787370000000 1.0
C      1  0.5121090000000  0.4989490000000  0.5343270000000 1.0
C      1  0.5282730000000  0.4933980000000  0.4983010000000 1.0
C      1  0.4885080000000  0.4382300000000  0.5255380000000 1.0
C      1  0.4914250000000  0.4557530000000  0.5525860000000 1.0
C      1  0.5552230000000  0.5011030000000  0.5151950000000 1.0
C      1  0.4599410000000  0.4611930000000  0.4534170000000 1.0
C      1  0.5486160000000  0.4517980000000  0.4742960000000 1.0
C      1  0.4644590000000  0.4766430000000  0.5051220000000 1.0
C      1  0.5167070000000  0.4796890000000  0.4471570000000 1.0
C      1  0.5031280000000  0.4457710000000  0.4813640000000 1.0
C      1  0.4870000000000  0.5526220000000  0.5243420000000 1.0
END
