TITL C-2847953-8112-216 0.000269706421540258 125000 -297.853966745555 0 0 53 (C1) n - 1
REM
REM in /home/bkarasulu/work/CARBON/AIRSS/Generating-Clusters/AIREBO/with-SteepDescent/Only-C1/SD-CG-opt/Try1-1.4A-POS3A/HFTN-CG
REM
REM
REM
REM
REM
REM ./C.cell (11c1c37f851c82e70ff6c80c92926a4b)
REM
REM compiler GCC version 9.2.1 20190827 (Red Hat 9.2.1-1)
REM options -cpp -mtune=generic -march=x86-64 -g -O0 -fpre-include=/usr/include/finclude/math-vector-fortran.h
REM seed -800796770 -524226777 -1399425889 -2010528811 63099654 1563444795 469849370 -1165288333 -493489486 1932552536 1898924531 -1379661864 1071028274 2050297733 1441467202 -79723003 -100889887 -1128392865 2068970040 558375984 1785493117 -1569545721 -316520882 -1260314266 221561506 -1441847195 -669554940 1561825078 -2069920939 274613756 1443070819 -1705737095 -132916388
REM
CELL 1.54180   50.00000   50.00000   50.00000   90.00000   90.00000   90.00000
LATT -1
SFAC C  
C      1  0.4957720000000  0.5134460000000  0.4691540000000 1.0
C      1  0.5373100000000  0.4902480000000  0.4398490000000 1.0
C      1  0.5518600000000  0.5357790000000  0.4968460000000 1.0
C      1  0.5576090000000  0.4743800000000  0.4834260000000 1.0
C      1  0.4531730000000  0.5597630000000  0.5104360000000 1.0
C      1  0.4763770000000  0.4875810000000  0.5366260000000 1.0
C      1  0.4434020000000  0.5075920000000  0.4502930000000 1.0
C      1  0.5487360000000  0.5064640000000  0.4905440000000 1.0
C      1  0.4521140000000  0.5260620000000  0.5061520000000 1.0
C      1  0.5139230000000  0.4400200000000  0.5354010000000 1.0
C      1  0.4992580000000  0.5390650000000  0.5560220000000 1.0
C      1  0.5452900000000  0.4292980000000  0.4947350000000 1.0
C      1  0.5615070000000  0.4520750000000  0.5010880000000 1.0
C      1  0.5455940000000  0.4909980000000  0.5176600000000 1.0
C      1  0.4536660000000  0.4756540000000  0.4825890000000 1.0
C      1  0.4629850000000  0.5556010000000  0.4544480000000 1.0
C      1  0.4383700000000  0.4810870000000  0.5279240000000 1.0
C      1  0.5534430000000  0.5422100000000  0.5244010000000 1.0
C      1  0.4694290000000  0.4901970000000  0.5045020000000 1.0
C      1  0.4780890000000  0.4719330000000  0.4442080000000 1.0
C      1  0.4950850000000  0.5621510000000  0.4602510000000 1.0
C      1  0.4672940000000  0.4509590000000  0.4971390000000 1.0
C      1  0.4157430000000  0.4988990000000  0.4897670000000 1.0
C      1  0.4367160000000  0.5348960000000  0.4527840000000 1.0
C      1  0.5000810000000  0.5572210000000  0.5067400000000 1.0
C      1  0.5168050000000  0.4362480000000  0.5047390000000 1.0
C      1  0.5755830000000  0.5526250000000  0.5365820000000 1.0
C      1  0.4833020000000  0.5166950000000  0.4963650000000 1.0
C      1  0.5428820000000  0.4673560000000  0.4586070000000 1.0
C      1  0.4635460000000  0.4582000000000  0.5275130000000 1.0
C      1  0.5045140000000  0.4957600000000  0.5237400000000 1.0
C      1  0.5280400000000  0.4850360000000  0.5456610000000 1.0
C      1  0.4874830000000  0.4415960000000  0.5430190000000 1.0
C      1  0.4333660000000  0.4896600000000  0.4693120000000 1.0
C      1  0.4868970000000  0.5337710000000  0.4450880000000 1.0
C      1  0.4870540000000  0.4577120000000  0.4699740000000 1.0
C      1  0.4322180000000  0.5036000000000  0.5129060000000 1.0
C      1  0.4772090000000  0.5702270000000  0.5164900000000 1.0
C      1  0.5396540000000  0.5552260000000  0.4804710000000 1.0
C      1  0.4839800000000  0.5094250000000  0.5573540000000 1.0
C      1  0.5286620000000  0.5366270000000  0.5391200000000 1.0
C      1  0.5741660000000  0.4843060000000  0.5348650000000 1.0
C      1  0.4446260000000  0.5477850000000  0.4816350000000 1.0
C      1  0.4921400000000  0.4310820000000  0.4893050000000 1.0
C      1  0.5358730000000  0.4556030000000  0.5435130000000 1.0
C      1  0.5048830000000  0.5280800000000  0.5179780000000 1.0
C      1  0.5157190000000  0.4676950000000  0.4777960000000 1.0
C      1  0.5122160000000  0.5621290000000  0.4817680000000 1.0
C      1  0.5179310000000  0.5107760000000  0.5584820000000 1.0
C      1  0.5619940000000  0.4567320000000  0.5297910000000 1.0
C      1  0.4732970000000  0.5028090000000  0.4459180000000 1.0
C      1  0.5202900000000  0.4697700000000  0.5095230000000 1.0
C      1  0.5228410000000  0.4998890000000  0.4694990000000 1.0
END
