TITL C-2848507-1641-180 0.000411809537059915 125000 -1053.12910070758 0 0 198 (C1) n - 1
REM
REM in /home/bkarasulu/work/CARBON/AIRSS/Generating-Clusters/AIREBO/with-SteepDescent/Only-C1/SD-CG-opt/Try1-1.4A-POS3A/HFTN-CG
REM
REM
REM
REM
REM
REM ./C.cell (11c1c37f851c82e70ff6c80c92926a4b)
REM
REM compiler GCC version 9.2.1 20190827 (Red Hat 9.2.1-1)
REM options -cpp -mtune=generic -march=x86-64 -g -O0 -fpre-include=/usr/include/finclude/math-vector-fortran.h
REM seed 1415750270 -1540848888 -141212472 -1604724559 272666279 -1309510110 -591423880 2027480642 1576343087 -135326369 820138258 1670626300 1441606578 -83319117 -79986478 1184709429 -1689702747 -162537389 -652232219 1316122650 383177864 -469419172 -444183118 -639030103 -411757955 2010564930 -2146625116 -799731513 946891994 -168782027 -714175951 -1968678327 -851887166
REM
CELL 1.54180   50.00000   50.00000   50.00000   90.00000   90.00000   90.00000
LATT -1
SFAC C  
C      1  0.5409360000000  0.4238720000000  0.4578420000000 1.0
C      1  0.4991600000000  0.5474370000000  0.4394130000000 1.0
C      1  0.5364810000000  0.4625850000000  0.6000370000000 1.0
C      1  0.4457400000000  0.5160130000000  0.4529910000000 1.0
C      1  0.4852210000000  0.5887620000000  0.4275520000000 1.0
C      1  0.4025880000000  0.5115390000000  0.4481560000000 1.0
C      1  0.4714820000000  0.4968080000000  0.4259860000000 1.0
C      1  0.5503810000000  0.5550450000000  0.5785270000000 1.0
C      1  0.4325970000000  0.3754530000000  0.5263150000000 1.0
C      1  0.4095390000000  0.4311900000000  0.5702370000000 1.0
C      1  0.4901370000000  0.5731130000000  0.5096920000000 1.0
C      1  0.4636900000000  0.5725760000000  0.4231440000000 1.0
C      1  0.4791870000000  0.5292800000000  0.4218390000000 1.0
C      1  0.5622780000000  0.4826810000000  0.4217330000000 1.0
C      1  0.5470330000000  0.5054250000000  0.4079470000000 1.0
C      1  0.4268780000000  0.4693370000000  0.5438160000000 1.0
C      1  0.4518860000000  0.5800650000000  0.5855500000000 1.0
C      1  0.5641120000000  0.4599530000000  0.5562280000000 1.0
C      1  0.4200940000000  0.5402260000000  0.5134550000000 1.0
C      1  0.4861170000000  0.5356300000000  0.3893050000000 1.0
C      1  0.5662780000000  0.4997040000000  0.6121600000000 1.0
C      1  0.4492040000000  0.4607260000000  0.5678160000000 1.0
C      1  0.5976170000000  0.5298710000000  0.5483480000000 1.0
C      1  0.3894220000000  0.5213600000000  0.4779520000000 1.0
C      1  0.4939200000000  0.5463700000000  0.5868630000000 1.0
C      1  0.4761610000000  0.5112950000000  0.5502910000000 1.0
C      1  0.4324370000000  0.4503740000000  0.5181710000000 1.0
C      1  0.4952490000000  0.4646360000000  0.6115530000000 1.0
C      1  0.4505550000000  0.4839750000000  0.5866310000000 1.0
C      1  0.4295170000000  0.5712560000000  0.4731360000000 1.0
C      1  0.5338300000000  0.5551390000000  0.4944930000000 1.0
C      1  0.6027200000000  0.5271180000000  0.5039730000000 1.0
C      1  0.5124860000000  0.3959510000000  0.4327570000000 1.0
C      1  0.4057300000000  0.5305380000000  0.5428510000000 1.0
C      1  0.4180340000000  0.5690070000000  0.4995590000000 1.0
C      1  0.4410650000000  0.4678950000000  0.4912770000000 1.0
C      1  0.5159450000000  0.5356980000000  0.5327890000000 1.0
C      1  0.5050430000000  0.4381090000000  0.5211690000000 1.0
C      1  0.4345140000000  0.4359280000000  0.5811600000000 1.0
C      1  0.5559990000000  0.5069360000000  0.5419100000000 1.0
C      1  0.4966650000000  0.4043450000000  0.4683850000000 1.0
C      1  0.5375760000000  0.5097420000000  0.4465030000000 1.0
C      1  0.5423430000000  0.5816970000000  0.5935590000000 1.0
C      1  0.5141590000000  0.5016520000000  0.5702690000000 1.0
C      1  0.4552870000000  0.5343820000000  0.3824350000000 1.0
C      1  0.5943870000000  0.5599240000000  0.5080540000000 1.0
C      1  0.5756840000000  0.4324090000000  0.5722540000000 1.0
C      1  0.5675250000000  0.5361250000000  0.4779420000000 1.0
C      1  0.5177720000000  0.4255430000000  0.4761730000000 1.0
C      1  0.4917100000000  0.4708680000000  0.4209530000000 1.0
C      1  0.4775820000000  0.4520610000000  0.5540700000000 1.0
C      1  0.4605580000000  0.4472250000000  0.3978490000000 1.0
C      1  0.5496600000000  0.4751560000000  0.4758260000000 1.0
C      1  0.4739890000000  0.6046450000000  0.4905430000000 1.0
C      1  0.4183020000000  0.4944180000000  0.4723410000000 1.0
C      1  0.4738170000000  0.5021410000000  0.5822620000000 1.0
C      1  0.5252500000000  0.5462120000000  0.5997790000000 1.0
C      1  0.4818550000000  0.5176000000000  0.5087820000000 1.0
C      1  0.4774190000000  0.4664850000000  0.5252090000000 1.0
C      1  0.5576400000000  0.4341060000000  0.5174660000000 1.0
C      1  0.5010440000000  0.4262150000000  0.5784770000000 1.0
C      1  0.4823890000000  0.3991670000000  0.5784720000000 1.0
C      1  0.5515080000000  0.5633810000000  0.4714130000000 1.0
C      1  0.5617210000000  0.5330780000000  0.4106500000000 1.0
C      1  0.5285010000000  0.5094960000000  0.5220700000000 1.0
C      1  0.4492720000000  0.5422290000000  0.4315380000000 1.0
C      1  0.6029250000000  0.4655590000000  0.5065190000000 1.0
C      1  0.5012660000000  0.4417290000000  0.6035880000000 1.0
C      1  0.5234030000000  0.4987630000000  0.3867840000000 1.0
C      1  0.4927420000000  0.5151890000000  0.4754200000000 1.0
C      1  0.5524800000000  0.5975710000000  0.5235150000000 1.0
C      1  0.5410690000000  0.4593590000000  0.5018400000000 1.0
C      1  0.5676090000000  0.5032600000000  0.4691370000000 1.0
C      1  0.4606610000000  0.4363060000000  0.5291380000000 1.0
C      1  0.5658170000000  0.4157670000000  0.4649820000000 1.0
C      1  0.5317710000000  0.4476250000000  0.4054470000000 1.0
C      1  0.5480200000000  0.4757950000000  0.5307960000000 1.0
C      1  0.5054150000000  0.5678970000000  0.5554430000000 1.0
C      1  0.4762550000000  0.4332760000000  0.4865140000000 1.0
C      1  0.6021180000000  0.5494520000000  0.4485580000000 1.0
C      1  0.4047520000000  0.4457530000000  0.5466460000000 1.0
C      1  0.5302030000000  0.5254360000000  0.6177110000000 1.0
C      1  0.5194360000000  0.3812630000000  0.4594490000000 1.0
C      1  0.5755690000000  0.4242860000000  0.4908370000000 1.0
C      1  0.4985140000000  0.5025560000000  0.4443770000000 1.0
C      1  0.3846380000000  0.4683130000000  0.4529350000000 1.0
C      1  0.5011280000000  0.3973890000000  0.5555260000000 1.0
C      1  0.4602830000000  0.5596530000000  0.6037850000000 1.0
C      1  0.5052640000000  0.5876150000000  0.4550190000000 1.0
C      1  0.4285550000000  0.4936490000000  0.5988030000000 1.0
C      1  0.5998210000000  0.5130160000000  0.4731560000000 1.0
C      1  0.5049130000000  0.6024920000000  0.4851640000000 1.0
C      1  0.3976460000000  0.4697570000000  0.4788990000000 1.0
C      1  0.4314300000000  0.4151650000000  0.4483670000000 1.0
C      1  0.5334890000000  0.4948210000000  0.6045880000000 1.0
C      1  0.4487690000000  0.4833270000000  0.4619730000000 1.0
C      1  0.5220130000000  0.3864300000000  0.4930400000000 1.0
C      1  0.4787700000000  0.5431250000000  0.4786780000000 1.0
C      1  0.4800910000000  0.5661870000000  0.4596590000000 1.0
C      1  0.5551550000000  0.4165860000000  0.5667390000000 1.0
C      1  0.4810440000000  0.5449850000000  0.5492230000000 1.0
C      1  0.5893300000000  0.4466610000000  0.4554450000000 1.0
C      1  0.4586180000000  0.5774810000000  0.4806800000000 1.0
C      1  0.3928300000000  0.4397430000000  0.5222110000000 1.0
C      1  0.3972400000000  0.4850820000000  0.4347960000000 1.0
C      1  0.5021690000000  0.5443170000000  0.5033320000000 1.0
C      1  0.4534860000000  0.4599730000000  0.4249220000000 1.0
C      1  0.4102840000000  0.5300060000000  0.5726630000000 1.0
C      1  0.4465200000000  0.6090520000000  0.5019620000000 1.0
C      1  0.4370730000000  0.5823660000000  0.5403060000000 1.0
C      1  0.6098920000000  0.5180780000000  0.4422540000000 1.0
C      1  0.5445660000000  0.5760040000000  0.4227490000000 1.0
C      1  0.5112020000000  0.4468720000000  0.5534400000000 1.0
C      1  0.5347250000000  0.4573770000000  0.4352990000000 1.0
C      1  0.5370910000000  0.4556690000000  0.5736630000000 1.0
C      1  0.5008770000000  0.4408340000000  0.4078650000000 1.0
C      1  0.4391010000000  0.4411430000000  0.4702770000000 1.0
C      1  0.5296250000000  0.5778300000000  0.5391560000000 1.0
C      1  0.4095330000000  0.5103300000000  0.5011600000000 1.0
C      1  0.4289120000000  0.5901880000000  0.5154740000000 1.0
C      1  0.5148700000000  0.4297420000000  0.4368000000000 1.0
C      1  0.4471820000000  0.4979160000000  0.5060780000000 1.0
C      1  0.4998840000000  0.4926470000000  0.5983670000000 1.0
C      1  0.5243810000000  0.5180010000000  0.4832400000000 1.0
C      1  0.4402180000000  0.5349390000000  0.5624250000000 1.0
C      1  0.4680770000000  0.4237810000000  0.3929140000000 1.0
C      1  0.5204300000000  0.5811160000000  0.5065870000000 1.0
C      1  0.5527380000000  0.5206590000000  0.5018130000000 1.0
C      1  0.4718240000000  0.4611380000000  0.4962880000000 1.0
C      1  0.5382830000000  0.4061890000000  0.5154430000000 1.0
C      1  0.5117930000000  0.5746050000000  0.5864050000000 1.0
C      1  0.5957440000000  0.4438610000000  0.4837150000000 1.0
C      1  0.5741550000000  0.5873610000000  0.5074600000000 1.0
C      1  0.5847710000000  0.5340210000000  0.4253220000000 1.0
C      1  0.4702150000000  0.5767700000000  0.5438660000000 1.0
C      1  0.5683470000000  0.5877840000000  0.4799940000000 1.0
C      1  0.5088000000000  0.5304660000000  0.5624570000000 1.0
C      1  0.5226220000000  0.4806910000000  0.4559090000000 1.0
C      1  0.5079070000000  0.4771470000000  0.3929730000000 1.0
C      1  0.4877300000000  0.4102910000000  0.4150160000000 1.0
C      1  0.5681080000000  0.4908670000000  0.5074910000000 1.0
C      1  0.4765280000000  0.4118620000000  0.5115630000000 1.0
C      1  0.5803020000000  0.5087220000000  0.5906130000000 1.0
C      1  0.5019610000000  0.6187230000000  0.5373350000000 1.0
C      1  0.5463650000000  0.5449420000000  0.5244090000000 1.0
C      1  0.4516190000000  0.3912190000000  0.5199430000000 1.0
C      1  0.4280830000000  0.4462280000000  0.4387360000000 1.0
C      1  0.4563600000000  0.4118180000000  0.4708010000000 1.0
C      1  0.5842230000000  0.4526750000000  0.5297930000000 1.0
C      1  0.5131320000000  0.5441310000000  0.4074660000000 1.0
C      1  0.4157230000000  0.4996190000000  0.5328410000000 1.0
C      1  0.5585300000000  0.5616760000000  0.5472080000000 1.0
C      1  0.5880590000000  0.4828590000000  0.4836340000000 1.0
C      1  0.5426900000000  0.5539030000000  0.4069280000000 1.0
C      1  0.4227060000000  0.4746990000000  0.4232260000000 1.0
C      1  0.5654000000000  0.4638890000000  0.4482780000000 1.0
C      1  0.4434430000000  0.4969290000000  0.4120420000000 1.0
C      1  0.3846760000000  0.4889970000000  0.5409040000000 1.0
C      1  0.5382500000000  0.4281350000000  0.5447730000000 1.0
C      1  0.5136480000000  0.4479830000000  0.4941990000000 1.0
C      1  0.5062430000000  0.4067250000000  0.5272900000000 1.0
C      1  0.4968800000000  0.4713800000000  0.4760970000000 1.0
C      1  0.4063990000000  0.5413950000000  0.4603710000000 1.0
C      1  0.4539000000000  0.5366340000000  0.5125760000000 1.0
C      1  0.5937820000000  0.5525330000000  0.4748620000000 1.0
C      1  0.5854940000000  0.5101350000000  0.5263000000000 1.0
C      1  0.5944990000000  0.5037990000000  0.5646360000000 1.0
C      1  0.4082250000000  0.5114100000000  0.5933210000000 1.0
C      1  0.4651150000000  0.5327720000000  0.5855170000000 1.0
C      1  0.4633830000000  0.4136560000000  0.4368450000000 1.0
C      1  0.5182560000000  0.5169800000000  0.4218910000000 1.0
C      1  0.4348060000000  0.5778920000000  0.4208480000000 1.0
C      1  0.5230860000000  0.6133520000000  0.5156010000000 1.0
C      1  0.5923480000000  0.4784220000000  0.5519950000000 1.0
C      1  0.5173950000000  0.4794600000000  0.5459160000000 1.0
C      1  0.4399260000000  0.5251190000000  0.4036810000000 1.0
C      1  0.5634290000000  0.5285160000000  0.5690460000000 1.0
C      1  0.6308960000000  0.5043900000000  0.4315290000000 1.0
C      1  0.5307230000000  0.5710730000000  0.4496540000000 1.0
C      1  0.4855930000000  0.4330200000000  0.4538130000000 1.0
C      1  0.4897440000000  0.3856190000000  0.4944540000000 1.0
C      1  0.5885130000000  0.5558920000000  0.5401440000000 1.0
C      1  0.4465530000000  0.5135390000000  0.5364260000000 1.0
C      1  0.6173190000000  0.4965360000000  0.5067890000000 1.0
C      1  0.4829750000000  0.6059020000000  0.5522890000000 1.0
C      1  0.4754740000000  0.4653260000000  0.4503230000000 1.0
C      1  0.5121090000000  0.4907330000000  0.4995600000000 1.0
C      1  0.5248240000000  0.5381380000000  0.4558370000000 1.0
C      1  0.5107550000000  0.5200230000000  0.3756740000000 1.0
C      1  0.4374840000000  0.5674560000000  0.5648230000000 1.0
C      1  0.4610730000000  0.5665830000000  0.5127250000000 1.0
C      1  0.4654520000000  0.6037680000000  0.5768350000000 1.0
C      1  0.4930770000000  0.4923100000000  0.5277090000000 1.0
C      1  0.4047850000000  0.4526790000000  0.4984940000000 1.0
C      1  0.5451840000000  0.5001600000000  0.5734260000000 1.0
C      1  0.4232730000000  0.5600270000000  0.4443370000000 1.0
C      1  0.5874470000000  0.4186580000000  0.4431240000000 1.0
C      1  0.4528140000000  0.5214420000000  0.4821740000000 1.0
END
