TITL C-2848507-1641-202 -0.000329737987437856 125000 -430.837266407865 0 0 83 (C1) n - 1
REM
REM in /home/bkarasulu/work/CARBON/AIRSS/Generating-Clusters/AIREBO/with-SteepDescent/Only-C1/SD-CG-opt/Try1-1.4A-POS3A/HFTN-CG
REM
REM
REM
REM
REM
REM ./C.cell (11c1c37f851c82e70ff6c80c92926a4b)
REM
REM compiler GCC version 9.2.1 20190827 (Red Hat 9.2.1-1)
REM options -cpp -mtune=generic -march=x86-64 -g -O0 -fpre-include=/usr/include/finclude/math-vector-fortran.h
REM seed 381436211 1730593866 1422657518 -430151623 1423614892 1271686766 1906994232 24135366 -693045496 -205122800 1414972115 -636485598 -83720961 -1831409236 802697713 2132369180 -453194460 444833152 2111410308 125017997 -1886095867 1484206672 2088287719 49319706 -61208168 -810546464 -504928455 1491496251 340082849 -1264453741 1249689525 1989616753 715358876
REM
CELL 1.54180   50.00000   50.00000   50.00000   90.00000   90.00000   90.00000
LATT -1
SFAC C  
C      1  0.4169090000000  0.5360510000000  0.5129490000000 1.0
C      1  0.5469230000000  0.4774940000000  0.4546360000000 1.0
C      1  0.4348370000000  0.4694270000000  0.5265630000000 1.0
C      1  0.4338570000000  0.4879400000000  0.5530160000000 1.0
C      1  0.5716210000000  0.5318730000000  0.4511410000000 1.0
C      1  0.5219330000000  0.5657860000000  0.5211580000000 1.0
C      1  0.5774790000000  0.5089100000000  0.5309090000000 1.0
C      1  0.4370420000000  0.4895790000000  0.4621220000000 1.0
C      1  0.4686940000000  0.5009950000000  0.5080830000000 1.0
C      1  0.5756870000000  0.5301860000000  0.5106510000000 1.0
C      1  0.4947440000000  0.4467930000000  0.4604170000000 1.0
C      1  0.5575090000000  0.4903820000000  0.4336850000000 1.0
C      1  0.4870380000000  0.4504850000000  0.5062950000000 1.0
C      1  0.5319360000000  0.4291270000000  0.4935870000000 1.0
C      1  0.5568270000000  0.4417520000000  0.5053460000000 1.0
C      1  0.4665450000000  0.4692880000000  0.5185420000000 1.0
C      1  0.4866770000000  0.5558190000000  0.5023550000000 1.0
C      1  0.4583600000000  0.4892900000000  0.4403710000000 1.0
C      1  0.4626040000000  0.4297200000000  0.5299980000000 1.0
C      1  0.5368770000000  0.4247990000000  0.5604520000000 1.0
C      1  0.4516260000000  0.5598250000000  0.4836610000000 1.0
C      1  0.4659130000000  0.4603480000000  0.4389650000000 1.0
C      1  0.4977920000000  0.5282950000000  0.4874900000000 1.0
C      1  0.4900320000000  0.4708660000000  0.5729720000000 1.0
C      1  0.4904340000000  0.5620520000000  0.4480460000000 1.0
C      1  0.5036530000000  0.5844770000000  0.4993020000000 1.0
C      1  0.5117280000000  0.4205460000000  0.5149740000000 1.0
C      1  0.4986640000000  0.5571550000000  0.5404340000000 1.0
C      1  0.4763690000000  0.5147310000000  0.5870040000000 1.0
C      1  0.4654840000000  0.4989610000000  0.5589100000000 1.0
C      1  0.4246480000000  0.5079640000000  0.5273700000000 1.0
C      1  0.4273850000000  0.5221260000000  0.4657280000000 1.0
C      1  0.4701070000000  0.5507650000000  0.5273260000000 1.0
C      1  0.4866500000000  0.4340620000000  0.4849210000000 1.0
C      1  0.5076540000000  0.5034060000000  0.4182210000000 1.0
C      1  0.5644270000000  0.4856070000000  0.5449010000000 1.0
C      1  0.5714230000000  0.5183830000000  0.4823140000000 1.0
C      1  0.5712350000000  0.4853550000000  0.4846200000000 1.0
C      1  0.4981040000000  0.5325210000000  0.4329820000000 1.0
C      1  0.5396690000000  0.4988690000000  0.5608280000000 1.0
C      1  0.5524720000000  0.4628740000000  0.5271280000000 1.0
C      1  0.5562080000000  0.4558800000000  0.4766150000000 1.0
C      1  0.4809940000000  0.5070660000000  0.4476950000000 1.0
C      1  0.5046980000000  0.5007500000000  0.5801480000000 1.0
C      1  0.4541760000000  0.5232890000000  0.5292830000000 1.0
C      1  0.5306340000000  0.5275280000000  0.4218120000000 1.0
C      1  0.5204050000000  0.5251980000000  0.5624920000000 1.0
C      1  0.5393230000000  0.5083330000000  0.4788330000000 1.0
C      1  0.4895260000000  0.4999930000000  0.5345710000000 1.0
C      1  0.4922150000000  0.5274030000000  0.5507300000000 1.0
C      1  0.5195310000000  0.5607870000000  0.4512160000000 1.0
C      1  0.5219960000000  0.4731390000000  0.5680370000000 1.0
C      1  0.4850420000000  0.4125410000000  0.5223610000000 1.0
C      1  0.4707610000000  0.4681520000000  0.4717110000000 1.0
C      1  0.4407230000000  0.4402200000000  0.5111190000000 1.0
C      1  0.5389460000000  0.5483870000000  0.5459040000000 1.0
C      1  0.4284800000000  0.5437820000000  0.4897270000000 1.0
C      1  0.4410050000000  0.5047670000000  0.4910670000000 1.0
C      1  0.4561000000000  0.4689400000000  0.5718390000000 1.0
C      1  0.5273460000000  0.4437180000000  0.4632120000000 1.0
C      1  0.4869330000000  0.4970350000000  0.4796360000000 1.0
C      1  0.5309910000000  0.4519730000000  0.5485940000000 1.0
C      1  0.4655270000000  0.5349280000000  0.4235260000000 1.0
C      1  0.4509510000000  0.5332150000000  0.4466760000000 1.0
C      1  0.4606980000000  0.5325390000000  0.5613670000000 1.0
C      1  0.5434390000000  0.4860470000000  0.5041920000000 1.0
C      1  0.5142870000000  0.4541730000000  0.5193000000000 1.0
C      1  0.5432380000000  0.5629280000000  0.4959640000000 1.0
C      1  0.5446540000000  0.5176470000000  0.5325050000000 1.0
C      1  0.5181530000000  0.5158850000000  0.5118390000000 1.0
C      1  0.4693610000000  0.5371960000000  0.4710850000000 1.0
C      1  0.5170170000000  0.4880160000000  0.4666030000000 1.0
C      1  0.5594260000000  0.5520590000000  0.5190520000000 1.0
C      1  0.5176110000000  0.4852860000000  0.5259850000000 1.0
C      1  0.5559330000000  0.5186010000000  0.4314570000000 1.0
C      1  0.5133900000000  0.4813090000000  0.4335740000000 1.0
C      1  0.4406380000000  0.4650390000000  0.4873520000000 1.0
C      1  0.4809600000000  0.5749990000000  0.4755200000000 1.0
C      1  0.4734270000000  0.4541230000000  0.5481860000000 1.0
C      1  0.5275880000000  0.5401350000000  0.4761710000000 1.0
C      1  0.5577790000000  0.5525170000000  0.4665920000000 1.0
C      1  0.5223190000000  0.4548400000000  0.4327480000000 1.0
C      1  0.4179990000000  0.4847520000000  0.5033360000000 1.0
END
