TITL C-2848502-4955-185 0.000772409158639724 125000 -358.533548645916 0 0 67 (C1) n - 1
REM
REM in /home/bkarasulu/work/CARBON/AIRSS/Generating-Clusters/AIREBO/with-SteepDescent/Only-C1/SD-CG-opt/Try1-1.4A-POS3A/HFTN-CG
REM
REM
REM
REM
REM
REM ./C.cell (11c1c37f851c82e70ff6c80c92926a4b)
REM
REM compiler GCC version 9.2.1 20190827 (Red Hat 9.2.1-1)
REM options -cpp -mtune=generic -march=x86-64 -g -O0 -fpre-include=/usr/include/finclude/math-vector-fortran.h
REM seed 892002287 952663367 -384022173 -771582075 -1719438921 -1830558605 -1947326603 -1184114606 -1761480112 -523331987 1715658863 -1039392219 -450919437 -714253548 1241477952 1736907224 2123188188 1719327876 870324232 -755981160 869467502 1466543355 1330721896 2000110025 -235343567 154673745 -1984605125 1296465745 -70313780 -886499812 1550066307 -1400266477 1608479076
REM
CELL 1.54180   50.00000   50.00000   50.00000   90.00000   90.00000   90.00000
LATT -1
SFAC C  
C      1  0.5184900000000  0.4512370000000  0.4958050000000 1.0
C      1  0.4502690000000  0.5363600000000  0.5352880000000 1.0
C      1  0.5155960000000  0.4352360000000  0.4691570000000 1.0
C      1  0.5283680000000  0.4927970000000  0.4629720000000 1.0
C      1  0.4835760000000  0.5163310000000  0.5518820000000 1.0
C      1  0.4520690000000  0.4499100000000  0.4971600000000 1.0
C      1  0.4856910000000  0.4707220000000  0.5546740000000 1.0
C      1  0.5299680000000  0.5468800000000  0.5459440000000 1.0
C      1  0.4336700000000  0.4497870000000  0.5188250000000 1.0
C      1  0.5661000000000  0.5137550000000  0.4548190000000 1.0
C      1  0.4405620000000  0.4630900000000  0.4560020000000 1.0
C      1  0.4735150000000  0.5559830000000  0.4895040000000 1.0
C      1  0.5341850000000  0.4473620000000  0.4496430000000 1.0
C      1  0.4346930000000  0.4981420000000  0.4934860000000 1.0
C      1  0.4874880000000  0.5026200000000  0.4711830000000 1.0
C      1  0.5045100000000  0.5465840000000  0.4455950000000 1.0
C      1  0.5091730000000  0.5922640000000  0.5397300000000 1.0
C      1  0.5305780000000  0.5002230000000  0.5408210000000 1.0
C      1  0.4250670000000  0.4970650000000  0.5226220000000 1.0
C      1  0.4256820000000  0.4794780000000  0.4684340000000 1.0
C      1  0.5709330000000  0.5157690000000  0.5154960000000 1.0
C      1  0.4267880000000  0.5226820000000  0.5354450000000 1.0
C      1  0.5325780000000  0.5705730000000  0.4800210000000 1.0
C      1  0.4472650000000  0.5259700000000  0.4920720000000 1.0
C      1  0.4595850000000  0.4787990000000  0.4897130000000 1.0
C      1  0.5035940000000  0.5646710000000  0.5339350000000 1.0
C      1  0.5687740000000  0.5145430000000  0.4815660000000 1.0
C      1  0.4858170000000  0.4356020000000  0.4595000000000 1.0
C      1  0.4903270000000  0.5355750000000  0.4735430000000 1.0
C      1  0.5060590000000  0.4966240000000  0.5607640000000 1.0
C      1  0.5028050000000  0.5392680000000  0.5113320000000 1.0
C      1  0.5044260000000  0.4570860000000  0.4377660000000 1.0
C      1  0.5562330000000  0.4838810000000  0.5414410000000 1.0
C      1  0.5462770000000  0.5291280000000  0.5634880000000 1.0
C      1  0.4867940000000  0.4934250000000  0.5039200000000 1.0
C      1  0.5216900000000  0.5225030000000  0.4719920000000 1.0
C      1  0.5457000000000  0.4956900000000  0.4338250000000 1.0
C      1  0.5668460000000  0.5140890000000  0.5491840000000 1.0
C      1  0.5495700000000  0.4680760000000  0.4622560000000 1.0
C      1  0.4463080000000  0.5568430000000  0.4778550000000 1.0
C      1  0.4903210000000  0.4412570000000  0.5390120000000 1.0
C      1  0.5765980000000  0.4883550000000  0.4963750000000 1.0
C      1  0.4967270000000  0.5137130000000  0.4408200000000 1.0
C      1  0.5631790000000  0.4656690000000  0.4873270000000 1.0
C      1  0.4830870000000  0.4833040000000  0.4340630000000 1.0
C      1  0.5470200000000  0.4580810000000  0.5339460000000 1.0
C      1  0.4982040000000  0.4657600000000  0.5167940000000 1.0
C      1  0.4220720000000  0.5489870000000  0.4954020000000 1.0
C      1  0.4784980000000  0.5461580000000  0.5474910000000 1.0
C      1  0.4743270000000  0.5657420000000  0.5166340000000 1.0
C      1  0.5042180000000  0.4731750000000  0.4743740000000 1.0
C      1  0.5288020000000  0.5119540000000  0.5789600000000 1.0
C      1  0.5201400000000  0.4549950000000  0.5409090000000 1.0
C      1  0.4731080000000  0.5228920000000  0.5139830000000 1.0
C      1  0.4735450000000  0.4667340000000  0.4611490000000 1.0
C      1  0.5236890000000  0.5649440000000  0.4536260000000 1.0
C      1  0.5149870000000  0.4891360000000  0.4256990000000 1.0
C      1  0.5390430000000  0.5260710000000  0.5214770000000 1.0
C      1  0.5321430000000  0.5527510000000  0.5006470000000 1.0
C      1  0.4723150000000  0.4320160000000  0.4905160000000 1.0
C      1  0.4327870000000  0.4729990000000  0.5355910000000 1.0
C      1  0.4852580000000  0.4225080000000  0.5127810000000 1.0
C      1  0.5391930000000  0.5268880000000  0.4452360000000 1.0
C      1  0.4557240000000  0.4764990000000  0.5549200000000 1.0
C      1  0.4640590000000  0.4988870000000  0.5363230000000 1.0
C      1  0.5470100000000  0.4530860000000  0.5059960000000 1.0
C      1  0.5163290000000  0.5108150000000  0.5012910000000 1.0
END
