TITL C-2847952-8118-505 -0.00170920093507125 125000 -991.616587252978 0 0 179 (C1) n - 1
REM
REM in /home/bkarasulu/work/CARBON/AIRSS/Generating-Clusters/AIREBO/with-SteepDescent/Only-C1/SD-CG-opt/Try1-1.4A-POS3A/HFTN-CG
REM
REM
REM
REM
REM
REM ./C.cell (11c1c37f851c82e70ff6c80c92926a4b)
REM
REM compiler GCC version 9.2.1 20190827 (Red Hat 9.2.1-1)
REM options -cpp -mtune=generic -march=x86-64 -g -O0 -fpre-include=/usr/include/finclude/math-vector-fortran.h
REM seed -1436971287 145911600 -2011999155 431487975 2075877527 350197596 -657017089 -996517045 2104300045 -1511547897 71754939 255699732 524527562 1176222174 1969399766 -1869015625 2114478951 19454005 1675842550 1542687942 -363070461 906960647 -2054071287 -400086015 1506887452 209982915 1101361451 -1387048214 454357939 -258161181 244883075 1707802000 -286817239
REM
CELL 1.54180   50.00000   50.00000   50.00000   90.00000   90.00000   90.00000
LATT -1
SFAC C  
C      1  0.4548720000000  0.5295720000000  0.5300240000000 1.0
C      1  0.4972160000000  0.5197890000000  0.3961980000000 1.0
C      1  0.4868630000000  0.4131210000000  0.5587910000000 1.0
C      1  0.5194170000000  0.5844490000000  0.4626700000000 1.0
C      1  0.5354310000000  0.4269040000000  0.4943920000000 1.0
C      1  0.5720270000000  0.4667740000000  0.5815410000000 1.0
C      1  0.5651800000000  0.5119360000000  0.6090610000000 1.0
C      1  0.4666200000000  0.4147700000000  0.5245680000000 1.0
C      1  0.5318290000000  0.4720500000000  0.4295230000000 1.0
C      1  0.4953140000000  0.5080110000000  0.4792420000000 1.0
C      1  0.4394220000000  0.5011950000000  0.4951030000000 1.0
C      1  0.4726440000000  0.5440230000000  0.4479860000000 1.0
C      1  0.5035790000000  0.4309000000000  0.5408890000000 1.0
C      1  0.4575940000000  0.5788170000000  0.5429080000000 1.0
C      1  0.5322370000000  0.4353790000000  0.5792160000000 1.0
C      1  0.5688690000000  0.5525830000000  0.5655130000000 1.0
C      1  0.4819650000000  0.5053330000000  0.4480820000000 1.0
C      1  0.4186390000000  0.5577500000000  0.5180240000000 1.0
C      1  0.5628110000000  0.5055700000000  0.4147970000000 1.0
C      1  0.5818010000000  0.4563550000000  0.4812800000000 1.0
C      1  0.4671700000000  0.4384880000000  0.4385960000000 1.0
C      1  0.4407950000000  0.4772040000000  0.5161660000000 1.0
C      1  0.5935820000000  0.4805400000000  0.4614520000000 1.0
C      1  0.4592490000000  0.5376490000000  0.4173790000000 1.0
C      1  0.4332970000000  0.4411160000000  0.5367740000000 1.0
C      1  0.4570730000000  0.4666990000000  0.4122810000000 1.0
C      1  0.6090400000000  0.4380350000000  0.5039860000000 1.0
C      1  0.4928340000000  0.4947540000000  0.5997440000000 1.0
C      1  0.5411000000000  0.6011200000000  0.5044930000000 1.0
C      1  0.5789090000000  0.5189800000000  0.5016520000000 1.0
C      1  0.5477300000000  0.4719160000000  0.5299870000000 1.0
C      1  0.5714290000000  0.5319840000000  0.5895170000000 1.0
C      1  0.4589720000000  0.5598680000000  0.5864810000000 1.0
C      1  0.4770360000000  0.4716080000000  0.5005870000000 1.0
C      1  0.4858840000000  0.5454750000000  0.4024240000000 1.0
C      1  0.5624150000000  0.5305700000000  0.4480550000000 1.0
C      1  0.4886260000000  0.3967360000000  0.4973370000000 1.0
C      1  0.5250890000000  0.4009080000000  0.5279800000000 1.0
C      1  0.5160440000000  0.4060010000000  0.4817870000000 1.0
C      1  0.4573680000000  0.4435370000000  0.4804560000000 1.0
C      1  0.4948930000000  0.5415420000000  0.4735940000000 1.0
C      1  0.5279600000000  0.5316000000000  0.5736920000000 1.0
C      1  0.5438500000000  0.4974150000000  0.4374120000000 1.0
C      1  0.5369660000000  0.5562050000000  0.4117860000000 1.0
C      1  0.5420490000000  0.6071270000000  0.4710090000000 1.0
C      1  0.4857010000000  0.5000240000000  0.4154440000000 1.0
C      1  0.4989870000000  0.5315540000000  0.5859200000000 1.0
C      1  0.5443060000000  0.5131330000000  0.5367300000000 1.0
C      1  0.5063410000000  0.4811960000000  0.3870960000000 1.0
C      1  0.4164310000000  0.5480950000000  0.4860510000000 1.0
C      1  0.5114680000000  0.5765630000000  0.5714170000000 1.0
C      1  0.5439820000000  0.4488690000000  0.4489600000000 1.0
C      1  0.4742850000000  0.5386480000000  0.5074840000000 1.0
C      1  0.4975650000000  0.4359500000000  0.4235580000000 1.0
C      1  0.5375670000000  0.5806250000000  0.5314330000000 1.0
C      1  0.4179510000000  0.4570430000000  0.5582310000000 1.0
C      1  0.5014320000000  0.5304520000000  0.4359650000000 1.0
C      1  0.4457410000000  0.5494200000000  0.4688650000000 1.0
C      1  0.5205730000000  0.3998270000000  0.4521710000000 1.0
C      1  0.4720910000000  0.5048210000000  0.5038890000000 1.0
C      1  0.4064490000000  0.4927860000000  0.4948790000000 1.0
C      1  0.4820870000000  0.4300920000000  0.5818780000000 1.0
C      1  0.4169820000000  0.4593760000000  0.4523380000000 1.0
C      1  0.4942840000000  0.5179720000000  0.5573490000000 1.0
C      1  0.3904030000000  0.5361190000000  0.4683630000000 1.0
C      1  0.5877310000000  0.5596190000000  0.5177000000000 1.0
C      1  0.5804490000000  0.4821900000000  0.4321430000000 1.0
C      1  0.5326110000000  0.4279160000000  0.5502100000000 1.0
C      1  0.4420130000000  0.4829480000000  0.5905590000000 1.0
C      1  0.4752780000000  0.4793140000000  0.5544860000000 1.0
C      1  0.5518540000000  0.4831330000000  0.5617600000000 1.0
C      1  0.5535620000000  0.5973720000000  0.5542740000000 1.0
C      1  0.4169410000000  0.5296320000000  0.4498220000000 1.0
C      1  0.4356570000000  0.4459870000000  0.4287070000000 1.0
C      1  0.5369370000000  0.4759400000000  0.4979890000000 1.0
C      1  0.5973890000000  0.5572770000000  0.4862470000000 1.0
C      1  0.4524180000000  0.5062350000000  0.4090020000000 1.0
C      1  0.4914810000000  0.5968600000000  0.5159990000000 1.0
C      1  0.5886330000000  0.5090370000000  0.4727220000000 1.0
C      1  0.5814540000000  0.4498700000000  0.5148890000000 1.0
C      1  0.5671470000000  0.4979970000000  0.5214570000000 1.0
C      1  0.5477220000000  0.5680920000000  0.4720360000000 1.0
C      1  0.4273190000000  0.5259870000000  0.4190500000000 1.0
C      1  0.6060770000000  0.5009740000000  0.5085660000000 1.0
C      1  0.4406850000000  0.4275420000000  0.4569040000000 1.0
C      1  0.4730000000000  0.5415610000000  0.6009240000000 1.0
C      1  0.5384290000000  0.5378900000000  0.4789420000000 1.0
C      1  0.4947510000000  0.4046240000000  0.4364850000000 1.0
C      1  0.5458180000000  0.5258310000000  0.3992370000000 1.0
C      1  0.5185050000000  0.4332230000000  0.4503660000000 1.0
C      1  0.4020610000000  0.5069470000000  0.4319330000000 1.0
C      1  0.4458540000000  0.5769870000000  0.4497140000000 1.0
C      1  0.4842370000000  0.4430030000000  0.5175120000000 1.0
C      1  0.4294420000000  0.4164130000000  0.4875350000000 1.0
C      1  0.4736360000000  0.6045190000000  0.4580730000000 1.0
C      1  0.4256720000000  0.5045690000000  0.5811100000000 1.0
C      1  0.5023900000000  0.4706260000000  0.4191800000000 1.0
C      1  0.4326680000000  0.4461900000000  0.5036700000000 1.0
C      1  0.5219960000000  0.4991430000000  0.5829930000000 1.0
C      1  0.5282390000000  0.5066500000000  0.4876840000000 1.0
C      1  0.5556670000000  0.5037160000000  0.4677890000000 1.0
C      1  0.4949430000000  0.5479530000000  0.5496610000000 1.0
C      1  0.4523670000000  0.4337150000000  0.5871480000000 1.0
C      1  0.4547940000000  0.4004460000000  0.4975830000000 1.0
C      1  0.4358360000000  0.4828900000000  0.4599670000000 1.0
C      1  0.4316400000000  0.5825900000000  0.4984010000000 1.0
C      1  0.5547560000000  0.5721890000000  0.4281020000000 1.0
C      1  0.5568760000000  0.4403570000000  0.5900430000000 1.0
C      1  0.5143390000000  0.4688840000000  0.5356530000000 1.0
C      1  0.5095440000000  0.5647450000000  0.4839080000000 1.0
C      1  0.5061210000000  0.5608930000000  0.4215530000000 1.0
C      1  0.4334010000000  0.4568420000000  0.5828620000000 1.0
C      1  0.5027250000000  0.4764940000000  0.4707270000000 1.0
C      1  0.4038140000000  0.5350540000000  0.5388410000000 1.0
C      1  0.5578750000000  0.4397630000000  0.5320940000000 1.0
C      1  0.4415030000000  0.5179250000000  0.5561330000000 1.0
C      1  0.5648160000000  0.4105300000000  0.4961150000000 1.0
C      1  0.4742520000000  0.4706470000000  0.3909850000000 1.0
C      1  0.4540500000000  0.4900950000000  0.4367690000000 1.0
C      1  0.4703280000000  0.5743250000000  0.4327360000000 1.0
C      1  0.4664700000000  0.5862050000000  0.5175240000000 1.0
C      1  0.4008640000000  0.4814260000000  0.5468830000000 1.0
C      1  0.4411920000000  0.5157890000000  0.4667020000000 1.0
C      1  0.5486150000000  0.4542580000000  0.4054530000000 1.0
C      1  0.4591540000000  0.5627470000000  0.4959710000000 1.0
C      1  0.5208280000000  0.5221990000000  0.5162230000000 1.0
C      1  0.3980080000000  0.5063920000000  0.5239430000000 1.0
C      1  0.4616190000000  0.4598980000000  0.5357340000000 1.0
C      1  0.4353370000000  0.5471750000000  0.5724110000000 1.0
C      1  0.5685410000000  0.4566180000000  0.4280420000000 1.0
C      1  0.5036320000000  0.4442210000000  0.4750050000000 1.0
C      1  0.4891100000000  0.5200320000000  0.6164220000000 1.0
C      1  0.5543500000000  0.5155220000000  0.5662870000000 1.0
C      1  0.6081850000000  0.5335120000000  0.4786160000000 1.0
C      1  0.4633840000000  0.4716120000000  0.4708710000000 1.0
C      1  0.5140260000000  0.5005140000000  0.5395980000000 1.0
C      1  0.5017400000000  0.5459890000000  0.5195800000000 1.0
C      1  0.5503610000000  0.4531050000000  0.4786680000000 1.0
C      1  0.5051530000000  0.4738930000000  0.5680270000000 1.0
C      1  0.4927850000000  0.3940670000000  0.5311720000000 1.0
C      1  0.5917390000000  0.4863640000000  0.5619230000000 1.0
C      1  0.4706130000000  0.4855020000000  0.5857410000000 1.0
C      1  0.5365240000000  0.5617320000000  0.5600690000000 1.0
C      1  0.3934530000000  0.5027250000000  0.4671920000000 1.0
C      1  0.5539390000000  0.4076700000000  0.5240610000000 1.0
C      1  0.4807970000000  0.4247990000000  0.4798040000000 1.0
C      1  0.5682650000000  0.5840550000000  0.5698720000000 1.0
C      1  0.5813940000000  0.5693590000000  0.4672400000000 1.0
C      1  0.4435640000000  0.4136500000000  0.5458410000000 1.0
C      1  0.3979680000000  0.4643550000000  0.4959610000000 1.0
C      1  0.4749500000000  0.4033120000000  0.4557950000000 1.0
C      1  0.5632300000000  0.5769740000000  0.5017450000000 1.0
C      1  0.4390440000000  0.5547600000000  0.5412100000000 1.0
C      1  0.5870350000000  0.4230990000000  0.4860500000000 1.0
C      1  0.5150760000000  0.4517720000000  0.5061260000000 1.0
C      1  0.5922920000000  0.5105050000000  0.5383580000000 1.0
C      1  0.4985020000000  0.5875570000000  0.4415710000000 1.0
C      1  0.4835750000000  0.4652710000000  0.4466330000000 1.0
C      1  0.5129280000000  0.5740690000000  0.5129100000000 1.0
C      1  0.5147130000000  0.6137050000000  0.5177010000000 1.0
C      1  0.5284400000000  0.5254680000000  0.4488620000000 1.0
C      1  0.6265660000000  0.4583240000000  0.4955310000000 1.0
C      1  0.4786540000000  0.5715810000000  0.5643330000000 1.0
C      1  0.3944530000000  0.4786890000000  0.4447590000000 1.0
C      1  0.5875450000000  0.5419200000000  0.5428340000000 1.0
C      1  0.4065330000000  0.5303450000000  0.5694030000000 1.0
C      1  0.5060860000000  0.4473510000000  0.5843480000000 1.0
C      1  0.6136090000000  0.4824210000000  0.4888770000000 1.0
C      1  0.4301310000000  0.4913730000000  0.5419710000000 1.0
C      1  0.5721340000000  0.5555430000000  0.4430430000000 1.0
C      1  0.4483620000000  0.5946550000000  0.4746070000000 1.0
C      1  0.3922690000000  0.5295000000000  0.5015450000000 1.0
C      1  0.5230940000000  0.5108360000000  0.3858090000000 1.0
C      1  0.4108020000000  0.4440570000000  0.4777100000000 1.0
C      1  0.5500200000000  0.4884970000000  0.5953680000000 1.0
C      1  0.5622820000000  0.5433410000000  0.4993350000000 1.0
C      1  0.4423520000000  0.4103960000000  0.5726430000000 1.0
C      1  0.5513760000000  0.5976870000000  0.4428630000000 1.0
C      1  0.4743180000000  0.5045360000000  0.5378180000000 1.0
END
