TITL C-2847949-8115-574 -0.000773420527051205 125000 -544.828074560245 0 0 102 (C1) n - 1
REM
REM in /home/bkarasulu/work/CARBON/AIRSS/Generating-Clusters/AIREBO/with-SteepDescent/Only-C1/SD-CG-opt/Try1-1.4A-POS3A/HFTN-CG
REM
REM
REM
REM
REM
REM ./C.cell (11c1c37f851c82e70ff6c80c92926a4b)
REM
REM compiler GCC version 9.2.1 20190827 (Red Hat 9.2.1-1)
REM options -cpp -mtune=generic -march=x86-64 -g -O0 -fpre-include=/usr/include/finclude/math-vector-fortran.h
REM seed 720158479 -1582722858 -437689203 1423834521 -1523619892 -1034929647 556691115 -1660742928 -622256705 -550609251 166107202 -1318971530 107600439 -605743488 1974660856 1852003505 -1493816481 -1127145767 1101884689 1630404593 324161626 -69646099 -882930886 -1170473585 1782898377 -339106666 -835906007 612140980 -148636293 2059124017 -1796296787 1821044745 635185803
REM
CELL 1.54180   50.00000   50.00000   50.00000   90.00000   90.00000   90.00000
LATT -1
SFAC C  
C      1  0.5446750000000  0.5250010000000  0.4555430000000 1.0
C      1  0.5436100000000  0.5483410000000  0.5463900000000 1.0
C      1  0.4814790000000  0.5512260000000  0.4912400000000 1.0
C      1  0.4609070000000  0.5552190000000  0.4072230000000 1.0
C      1  0.5366070000000  0.4424300000000  0.5533200000000 1.0
C      1  0.5162220000000  0.5823150000000  0.4710010000000 1.0
C      1  0.5124020000000  0.5425640000000  0.4397430000000 1.0
C      1  0.4685370000000  0.4210730000000  0.5273730000000 1.0
C      1  0.5353530000000  0.5542050000000  0.4702690000000 1.0
C      1  0.4418840000000  0.5408580000000  0.5634060000000 1.0
C      1  0.3718990000000  0.5454460000000  0.5245160000000 1.0
C      1  0.5479000000000  0.4373580000000  0.5262660000000 1.0
C      1  0.5734770000000  0.4693800000000  0.4472480000000 1.0
C      1  0.5576250000000  0.4873640000000  0.5565200000000 1.0
C      1  0.4996590000000  0.4982170000000  0.4472660000000 1.0
C      1  0.4775620000000  0.4299960000000  0.5941510000000 1.0
C      1  0.4873210000000  0.4492010000000  0.5238830000000 1.0
C      1  0.4861610000000  0.4469060000000  0.4185860000000 1.0
C      1  0.4519190000000  0.5111590000000  0.5731650000000 1.0
C      1  0.4798700000000  0.4982180000000  0.5425230000000 1.0
C      1  0.4795830000000  0.5349650000000  0.5274440000000 1.0
C      1  0.4364550000000  0.4961140000000  0.4311260000000 1.0
C      1  0.4713690000000  0.3956770000000  0.5257020000000 1.0
C      1  0.5719150000000  0.5240030000000  0.4354940000000 1.0
C      1  0.4444520000000  0.4421940000000  0.5337360000000 1.0
C      1  0.4799480000000  0.4437520000000  0.5708070000000 1.0
C      1  0.5783210000000  0.5432750000000  0.5085870000000 1.0
C      1  0.4998210000000  0.4519570000000  0.4696520000000 1.0
C      1  0.5352610000000  0.5607070000000  0.4366640000000 1.0
C      1  0.5139510000000  0.5105200000000  0.5749400000000 1.0
C      1  0.5473210000000  0.5085690000000  0.5789660000000 1.0
C      1  0.5696120000000  0.4612430000000  0.5145540000000 1.0
C      1  0.5452590000000  0.4699730000000  0.4641170000000 1.0
C      1  0.4738740000000  0.5458840000000  0.4300560000000 1.0
C      1  0.5257860000000  0.4914790000000  0.5503860000000 1.0
C      1  0.5055720000000  0.4449220000000  0.5589550000000 1.0
C      1  0.5613480000000  0.4275670000000  0.4953330000000 1.0
C      1  0.4454990000000  0.4730820000000  0.4754330000000 1.0
C      1  0.5267280000000  0.4976470000000  0.4595860000000 1.0
C      1  0.5700400000000  0.4897250000000  0.5289670000000 1.0
C      1  0.5042280000000  0.5406580000000  0.4682610000000 1.0
C      1  0.4670350000000  0.5628850000000  0.5196980000000 1.0
C      1  0.4481700000000  0.4416640000000  0.4999060000000 1.0
C      1  0.4255470000000  0.5220750000000  0.5201900000000 1.0
C      1  0.5454090000000  0.4805040000000  0.4088960000000 1.0
C      1  0.5460370000000  0.4577520000000  0.4919560000000 1.0
C      1  0.4799430000000  0.4806830000000  0.5133740000000 1.0
C      1  0.5285080000000  0.6067350000000  0.4690010000000 1.0
C      1  0.4922470000000  0.5345050000000  0.6248590000000 1.0
C      1  0.4537440000000  0.4787300000000  0.4230730000000 1.0
C      1  0.5499060000000  0.5525920000000  0.5189090000000 1.0
C      1  0.5827760000000  0.4751310000000  0.4794430000000 1.0
C      1  0.5319440000000  0.4173300000000  0.5046780000000 1.0
C      1  0.4666130000000  0.4432500000000  0.4429750000000 1.0
C      1  0.4756380000000  0.5109710000000  0.4616990000000 1.0
C      1  0.4790410000000  0.4379840000000  0.4928640000000 1.0
C      1  0.3954810000000  0.5357060000000  0.5239570000000 1.0
C      1  0.5644620000000  0.5615860000000  0.4862240000000 1.0
C      1  0.5075760000000  0.4981620000000  0.5040020000000 1.0
C      1  0.5151570000000  0.4956640000000  0.4109920000000 1.0
C      1  0.4883400000000  0.5224410000000  0.6027090000000 1.0
C      1  0.4149080000000  0.4857980000000  0.4830990000000 1.0
C      1  0.4550760000000  0.4554350000000  0.5598440000000 1.0
C      1  0.5402740000000  0.6301450000000  0.4696750000000 1.0
C      1  0.5833790000000  0.5171200000000  0.5136620000000 1.0
C      1  0.5372460000000  0.5057940000000  0.4897730000000 1.0
C      1  0.5077030000000  0.5265590000000  0.5228110000000 1.0
C      1  0.4582900000000  0.5127550000000  0.5232850000000 1.0
C      1  0.4486840000000  0.4730770000000  0.5092860000000 1.0
C      1  0.5086150000000  0.4646930000000  0.4232360000000 1.0
C      1  0.4426310000000  0.5538130000000  0.4709490000000 1.0
C      1  0.5247800000000  0.5254070000000  0.5474970000000 1.0
C      1  0.4826470000000  0.5098260000000  0.5729040000000 1.0
C      1  0.4432280000000  0.4797630000000  0.5651740000000 1.0
C      1  0.4689270000000  0.5899670000000  0.5244520000000 1.0
C      1  0.4793090000000  0.4756660000000  0.4797430000000 1.0
C      1  0.4443500000000  0.5031560000000  0.4595950000000 1.0
C      1  0.4206600000000  0.4654730000000  0.5261010000000 1.0
C      1  0.5653460000000  0.4963690000000  0.4959450000000 1.0
C      1  0.4486440000000  0.4403700000000  0.4659230000000 1.0
C      1  0.4424330000000  0.5469920000000  0.5360410000000 1.0
C      1  0.5190420000000  0.4662430000000  0.5065420000000 1.0
C      1  0.5119280000000  0.4363650000000  0.4952920000000 1.0
C      1  0.5632080000000  0.4627150000000  0.4191370000000 1.0
C      1  0.4135960000000  0.4918790000000  0.5100570000000 1.0
C      1  0.4966250000000  0.5216290000000  0.4227960000000 1.0
C      1  0.5569960000000  0.5531260000000  0.5694800000000 1.0
C      1  0.5740090000000  0.5009320000000  0.4590630000000 1.0
C      1  0.4281500000000  0.5057900000000  0.5499390000000 1.0
C      1  0.4508490000000  0.5088120000000  0.4922690000000 1.0
C      1  0.5958940000000  0.4557200000000  0.4997330000000 1.0
C      1  0.4771350000000  0.4744760000000  0.4458250000000 1.0
C      1  0.5114240000000  0.4690900000000  0.5373890000000 1.0
C      1  0.5603700000000  0.5312360000000  0.5861290000000 1.0
C      1  0.5295970000000  0.5366780000000  0.4988450000000 1.0
C      1  0.4826590000000  0.5176730000000  0.4915530000000 1.0
C      1  0.5192510000000  0.4599420000000  0.4488940000000 1.0
C      1  0.4886450000000  0.5770020000000  0.4706970000000 1.0
C      1  0.4667300000000  0.5607620000000  0.4553670000000 1.0
C      1  0.5535430000000  0.4581800000000  0.5680060000000 1.0
C      1  0.5431270000000  0.5094050000000  0.4248060000000 1.0
C      1  0.4351050000000  0.5374290000000  0.4913820000000 1.0
END
