TITL C-2847951-7423-433 0.000616860849286591 125000 -911.060215734658 0 0 170 (C1) n - 1
REM
REM in /home/bkarasulu/work/CARBON/AIRSS/Generating-Clusters/AIREBO/with-SteepDescent/Only-C1/SD-CG-opt/Try1-1.4A-POS3A/HFTN-CG
REM
REM
REM
REM
REM
REM ./C.cell (11c1c37f851c82e70ff6c80c92926a4b)
REM
REM compiler GCC version 9.2.1 20190827 (Red Hat 9.2.1-1)
REM options -cpp -mtune=generic -march=x86-64 -g -O0 -fpre-include=/usr/include/finclude/math-vector-fortran.h
REM seed -695023649 -452778886 -1872447345 -1246472086 -1661162762 1062611476 -623614024 243494571 -1457301610 1514917428 -1045965823 259124233 1308825062 -1638682830 711660240 864871815 602013417 -1528608310 1284386698 -2103274046 385220205 18840274 789093064 -2115667616 313655234 -1930645871 1819945819 -1035211159 1006855898 -1291545755 461777257 -1048680780 535864864
REM
CELL 1.54180   50.00000   50.00000   50.00000   90.00000   90.00000   90.00000
LATT -1
SFAC C  
C      1  0.5297260000000  0.5478640000000  0.4668320000000 1.0
C      1  0.4628670000000  0.4074250000000  0.5183880000000 1.0
C      1  0.5038370000000  0.5289160000000  0.4602060000000 1.0
C      1  0.4625770000000  0.5560680000000  0.5308750000000 1.0
C      1  0.4658950000000  0.5702280000000  0.5593970000000 1.0
C      1  0.5137320000000  0.5736740000000  0.5668190000000 1.0
C      1  0.4971240000000  0.4322220000000  0.3812640000000 1.0
C      1  0.4879540000000  0.5069150000000  0.5993240000000 1.0
C      1  0.4757440000000  0.5714610000000  0.4183650000000 1.0
C      1  0.5258130000000  0.5952850000000  0.4525650000000 1.0
C      1  0.5417920000000  0.4050090000000  0.5036850000000 1.0
C      1  0.5638010000000  0.4506330000000  0.5574890000000 1.0
C      1  0.4728420000000  0.5816990000000  0.4952780000000 1.0
C      1  0.4479950000000  0.5879990000000  0.4813780000000 1.0
C      1  0.5388920000000  0.4190750000000  0.4460610000000 1.0
C      1  0.5254770000000  0.5022650000000  0.5253070000000 1.0
C      1  0.5469370000000  0.4369610000000  0.4995930000000 1.0
C      1  0.5501500000000  0.5043100000000  0.5019730000000 1.0
C      1  0.4364710000000  0.5769460000000  0.4580050000000 1.0
C      1  0.5349500000000  0.4976970000000  0.6042570000000 1.0
C      1  0.5132870000000  0.4572020000000  0.4249160000000 1.0
C      1  0.4645650000000  0.5458010000000  0.4755730000000 1.0
C      1  0.4326090000000  0.4285470000000  0.5535670000000 1.0
C      1  0.4112600000000  0.4613860000000  0.4960940000000 1.0
C      1  0.5634370000000  0.5128850000000  0.5320880000000 1.0
C      1  0.4394460000000  0.5495760000000  0.4557520000000 1.0
C      1  0.4605270000000  0.4865600000000  0.5995570000000 1.0
C      1  0.4406120000000  0.5353540000000  0.5465360000000 1.0
C      1  0.4241710000000  0.4742060000000  0.4069510000000 1.0
C      1  0.5241300000000  0.4406620000000  0.5830540000000 1.0
C      1  0.4450440000000  0.5541520000000  0.5021590000000 1.0
C      1  0.4428830000000  0.4246850000000  0.4474910000000 1.0
C      1  0.4489730000000  0.5252810000000  0.5739340000000 1.0
C      1  0.5720020000000  0.4404430000000  0.4767840000000 1.0
C      1  0.4226370000000  0.4531700000000  0.5863790000000 1.0
C      1  0.5165930000000  0.5253480000000  0.5050730000000 1.0
C      1  0.5812740000000  0.4585330000000  0.4495230000000 1.0
C      1  0.4915220000000  0.5714600000000  0.5217840000000 1.0
C      1  0.4824330000000  0.3944160000000  0.4561870000000 1.0
C      1  0.5094760000000  0.4913520000000  0.4973540000000 1.0
C      1  0.4584110000000  0.4038690000000  0.5714710000000 1.0
C      1  0.4791390000000  0.4917630000000  0.5596520000000 1.0
C      1  0.5267370000000  0.5681120000000  0.4425550000000 1.0
C      1  0.4159140000000  0.4659400000000  0.5288460000000 1.0
C      1  0.5592380000000  0.5493610000000  0.4290580000000 1.0
C      1  0.5558670000000  0.6196530000000  0.4828100000000 1.0
C      1  0.6017120000000  0.5493700000000  0.5341350000000 1.0
C      1  0.4446430000000  0.4832450000000  0.4975260000000 1.0
C      1  0.5507510000000  0.4941270000000  0.5574830000000 1.0
C      1  0.4911480000000  0.5411180000000  0.4961220000000 1.0
C      1  0.4743650000000  0.4006350000000  0.5498720000000 1.0
C      1  0.5089410000000  0.4846450000000  0.5738190000000 1.0
C      1  0.4451010000000  0.5132130000000  0.5238750000000 1.0
C      1  0.4011720000000  0.5094890000000  0.5377760000000 1.0
C      1  0.4292340000000  0.5232300000000  0.4453910000000 1.0
C      1  0.4475370000000  0.4342070000000  0.5293270000000 1.0
C      1  0.5470380000000  0.4744450000000  0.4874380000000 1.0
C      1  0.4644400000000  0.4590730000000  0.5370390000000 1.0
C      1  0.4294090000000  0.5839820000000  0.5071700000000 1.0
C      1  0.5787240000000  0.5473890000000  0.4894730000000 1.0
C      1  0.4285620000000  0.5292670000000  0.4119340000000 1.0
C      1  0.5342270000000  0.4333400000000  0.5303080000000 1.0
C      1  0.5202380000000  0.5001130000000  0.4677930000000 1.0
C      1  0.4607640000000  0.5170450000000  0.4151390000000 1.0
C      1  0.5517950000000  0.4693560000000  0.4579920000000 1.0
C      1  0.4839050000000  0.4921190000000  0.4048420000000 1.0
C      1  0.5514460000000  0.5357710000000  0.4884940000000 1.0
C      1  0.4790600000000  0.4699850000000  0.5117010000000 1.0
C      1  0.4373120000000  0.5231900000000  0.4936660000000 1.0
C      1  0.5181650000000  0.3998160000000  0.4874820000000 1.0
C      1  0.4709640000000  0.5336530000000  0.5894450000000 1.0
C      1  0.3984000000000  0.5607460000000  0.5399030000000 1.0
C      1  0.5059330000000  0.4807500000000  0.6074640000000 1.0
C      1  0.4760660000000  0.4933510000000  0.4891900000000 1.0
C      1  0.5732890000000  0.5769590000000  0.5689720000000 1.0
C      1  0.5078990000000  0.5235540000000  0.4283320000000 1.0
C      1  0.4399710000000  0.3982270000000  0.4948450000000 1.0
C      1  0.5215630000000  0.5557980000000  0.5174900000000 1.0
C      1  0.4482460000000  0.4785200000000  0.5543600000000 1.0
C      1  0.5354540000000  0.4660550000000  0.5634470000000 1.0
C      1  0.4878300000000  0.5582660000000  0.4540130000000 1.0
C      1  0.4367800000000  0.4998640000000  0.4689210000000 1.0
C      1  0.5705270000000  0.5433950000000  0.5736640000000 1.0
C      1  0.4171660000000  0.4480530000000  0.4667330000000 1.0
C      1  0.5902220000000  0.5282140000000  0.5574050000000 1.0
C      1  0.5103800000000  0.5402430000000  0.4008050000000 1.0
C      1  0.5521680000000  0.5926600000000  0.4726720000000 1.0
C      1  0.4450120000000  0.6139270000000  0.5112700000000 1.0
C      1  0.5532080000000  0.5084500000000  0.4683300000000 1.0
C      1  0.4177930000000  0.4686330000000  0.5611600000000 1.0
C      1  0.4986970000000  0.6021400000000  0.4694560000000 1.0
C      1  0.4256050000000  0.4179420000000  0.4710410000000 1.0
C      1  0.4433630000000  0.4512880000000  0.5009850000000 1.0
C      1  0.5664180000000  0.4109420000000  0.5226380000000 1.0
C      1  0.5341890000000  0.5300200000000  0.5625710000000 1.0
C      1  0.5861180000000  0.4662950000000  0.5448130000000 1.0
C      1  0.5977690000000  0.5234010000000  0.4882550000000 1.0
C      1  0.4638280000000  0.3778390000000  0.4794800000000 1.0
C      1  0.5623090000000  0.4143460000000  0.4602500000000 1.0
C      1  0.5052990000000  0.6089780000000  0.5206220000000 1.0
C      1  0.4189360000000  0.4700830000000  0.4407610000000 1.0
C      1  0.4823440000000  0.5025510000000  0.4371820000000 1.0
C      1  0.5389170000000  0.4472310000000  0.4365380000000 1.0
C      1  0.4917570000000  0.6180590000000  0.4969560000000 1.0
C      1  0.4099420000000  0.5357260000000  0.5425620000000 1.0
C      1  0.5335230000000  0.5712470000000  0.4911880000000 1.0
C      1  0.4883950000000  0.5873720000000  0.4406010000000 1.0
C      1  0.4031420000000  0.5805300000000  0.5218810000000 1.0
C      1  0.5006710000000  0.4518110000000  0.4624480000000 1.0
C      1  0.5122840000000  0.4131940000000  0.5289610000000 1.0
C      1  0.5385470000000  0.5224530000000  0.4270670000000 1.0
C      1  0.5243330000000  0.5441370000000  0.5914390000000 1.0
C      1  0.4920620000000  0.4561920000000  0.5467500000000 1.0
C      1  0.5069410000000  0.4828900000000  0.3952170000000 1.0
C      1  0.5945720000000  0.4424280000000  0.4987370000000 1.0
C      1  0.4871070000000  0.5247030000000  0.5540620000000 1.0
C      1  0.5134520000000  0.4082960000000  0.4573000000000 1.0
C      1  0.5926460000000  0.5231110000000  0.5179970000000 1.0
C      1  0.5844050000000  0.4385490000000  0.5254220000000 1.0
C      1  0.4640290000000  0.4115050000000  0.4786700000000 1.0
C      1  0.4903860000000  0.5531410000000  0.5724200000000 1.0
C      1  0.4070440000000  0.4856060000000  0.4755390000000 1.0
C      1  0.5108830000000  0.4496150000000  0.6050420000000 1.0
C      1  0.5079810000000  0.5889560000000  0.5434500000000 1.0
C      1  0.5668920000000  0.5712480000000  0.4489970000000 1.0
C      1  0.4623770000000  0.4518340000000  0.4513000000000 1.0
C      1  0.5865790000000  0.5695900000000  0.5112160000000 1.0
C      1  0.5490990000000  0.4945700000000  0.4389280000000 1.0
C      1  0.5714400000000  0.5639070000000  0.5394620000000 1.0
C      1  0.5888430000000  0.4957880000000  0.5468990000000 1.0
C      1  0.5008580000000  0.5706810000000  0.4824100000000 1.0
C      1  0.5261610000000  0.4153880000000  0.5693220000000 1.0
C      1  0.5717650000000  0.5197660000000  0.4179270000000 1.0
C      1  0.4595960000000  0.4812520000000  0.4508040000000 1.0
C      1  0.4935170000000  0.4144650000000  0.5052770000000 1.0
C      1  0.5820740000000  0.5776510000000  0.4787460000000 1.0
C      1  0.4470380000000  0.4307790000000  0.5842770000000 1.0
C      1  0.5310890000000  0.5593520000000  0.4138840000000 1.0
C      1  0.5471800000000  0.5430790000000  0.5362400000000 1.0
C      1  0.3892740000000  0.4816420000000  0.4522210000000 1.0
C      1  0.5552700000000  0.4204800000000  0.5525070000000 1.0
C      1  0.5025530000000  0.4043040000000  0.5535250000000 1.0
C      1  0.5481030000000  0.5093820000000  0.5836630000000 1.0
C      1  0.5043350000000  0.4438860000000  0.4036060000000 1.0
C      1  0.4795760000000  0.5451040000000  0.4101420000000 1.0
C      1  0.5942100000000  0.5098590000000  0.4351210000000 1.0
C      1  0.5546000000000  0.4921760000000  0.4065430000000 1.0
C      1  0.4858950000000  0.4272380000000  0.4493060000000 1.0
C      1  0.5141930000000  0.5091050000000  0.5528410000000 1.0
C      1  0.5871200000000  0.5060700000000  0.4676100000000 1.0
C      1  0.5303460000000  0.4972870000000  0.3882350000000 1.0
C      1  0.3955030000000  0.4913210000000  0.5573800000000 1.0
C      1  0.4814280000000  0.5296330000000  0.5233540000000 1.0
C      1  0.5637220000000  0.4624930000000  0.4205700000000 1.0
C      1  0.4939580000000  0.4464900000000  0.4938540000000 1.0
C      1  0.4391630000000  0.4949410000000  0.4293450000000 1.0
C      1  0.5066300000000  0.5319730000000  0.6073560000000 1.0
C      1  0.4644840000000  0.4401910000000  0.4813100000000 1.0
C      1  0.5188900000000  0.4593820000000  0.5373320000000 1.0
C      1  0.4657270000000  0.6300160000000  0.5017340000000 1.0
C      1  0.5044360000000  0.4791240000000  0.4481370000000 1.0
C      1  0.6003830000000  0.4812430000000  0.4509960000000 1.0
C      1  0.4513360000000  0.4599470000000  0.6014710000000 1.0
C      1  0.4742920000000  0.5140800000000  0.4681450000000 1.0
C      1  0.5244740000000  0.5226390000000  0.3796600000000 1.0
C      1  0.5224560000000  0.4605100000000  0.5035350000000 1.0
C      1  0.4447540000000  0.4986930000000  0.5785900000000 1.0
C      1  0.5445800000000  0.5652900000000  0.5774230000000 1.0
C      1  0.4186830000000  0.4958010000000  0.5154490000000 1.0
C      1  0.4719000000000  0.4979180000000  0.5286240000000 1.0
END
