TITL C-2848509-3138-30 -0.00120117642303977 125000 -234.706793983124 0 0 42 (C1) n - 1
REM
REM in /home/bkarasulu/work/CARBON/AIRSS/Generating-Clusters/AIREBO/with-SteepDescent/Only-C1/SD-CG-opt/Try1-1.4A-POS3A/HFTN-CG
REM
REM
REM
REM
REM
REM ./C.cell (11c1c37f851c82e70ff6c80c92926a4b)
REM
REM compiler GCC version 9.2.1 20190827 (Red Hat 9.2.1-1)
REM options -cpp -mtune=generic -march=x86-64 -g -O0 -fpre-include=/usr/include/finclude/math-vector-fortran.h
REM seed 1481276399 -1435935413 -669732660 -1930802260 -433898934 1791521020 -1683337214 700568014 -645482104 -981675877 1890660521 516515350 1933699346 -1577509410 -1493331015 -323394928 1374516932 44616307 110474327 -1469209471 1017747984 -1446926579 1820600995 1078161540 -1786889418 -1533920546 -1603102946 -1849396847 -481065187 -2111172165 -757928292 858511307 -1776909690
REM
CELL 1.54180   50.00000   50.00000   50.00000   90.00000   90.00000   90.00000
LATT -1
SFAC C  
C      1  0.4676930000000  0.4348950000000  0.4393920000000 1.0
C      1  0.5239060000000  0.4797070000000  0.5373950000000 1.0
C      1  0.4681310000000  0.5314060000000  0.5144950000000 1.0
C      1  0.5714530000000  0.4849680000000  0.5235580000000 1.0
C      1  0.5794440000000  0.4657160000000  0.5418570000000 1.0
C      1  0.5262720000000  0.4752330000000  0.5648050000000 1.0
C      1  0.5459490000000  0.4956870000000  0.5250060000000 1.0
C      1  0.4321100000000  0.5403370000000  0.4821240000000 1.0
C      1  0.5396490000000  0.5216700000000  0.5181290000000 1.0
C      1  0.4520180000000  0.4176810000000  0.5176640000000 1.0
C      1  0.6065700000000  0.5013630000000  0.4838560000000 1.0
C      1  0.4377540000000  0.4790010000000  0.4344520000000 1.0
C      1  0.4269990000000  0.5654230000000  0.4920430000000 1.0
C      1  0.4613410000000  0.4817380000000  0.4488760000000 1.0
C      1  0.4957120000000  0.5448600000000  0.5100570000000 1.0
C      1  0.4379020000000  0.5727380000000  0.5169910000000 1.0
C      1  0.5213330000000  0.5378010000000  0.5067430000000 1.0
C      1  0.4725650000000  0.5060950000000  0.5315050000000 1.0
C      1  0.4635130000000  0.4413950000000  0.5119160000000 1.0
C      1  0.5114650000000  0.4559250000000  0.5165220000000 1.0
C      1  0.4541510000000  0.4985220000000  0.5519170000000 1.0
C      1  0.4426570000000  0.5193680000000  0.5664910000000 1.0
C      1  0.5746730000000  0.5224860000000  0.4477140000000 1.0
C      1  0.4820960000000  0.5069760000000  0.4433270000000 1.0
C      1  0.4922070000000  0.4826400000000  0.5254540000000 1.0
C      1  0.4454410000000  0.5450790000000  0.5571980000000 1.0
C      1  0.5861420000000  0.4457530000000  0.5574660000000 1.0
C      1  0.5030440000000  0.5169610000000  0.4300930000000 1.0
C      1  0.4757930000000  0.4560880000000  0.4567280000000 1.0
C      1  0.5954700000000  0.5166980000000  0.4634270000000 1.0
C      1  0.4502770000000  0.5515630000000  0.5304700000000 1.0
C      1  0.4699050000000  0.4596080000000  0.5317230000000 1.0
C      1  0.4682270000000  0.4492860000000  0.4858200000000 1.0
C      1  0.4545500000000  0.5245390000000  0.4878530000000 1.0
C      1  0.4363050000000  0.5976910000000  0.5269300000000 1.0
C      1  0.5545440000000  0.5262840000000  0.4305010000000 1.0
C      1  0.5894280000000  0.4941970000000  0.5045380000000 1.0
C      1  0.5291530000000  0.5196290000000  0.4248630000000 1.0
C      1  0.5040040000000  0.4605310000000  0.4550490000000 1.0
C      1  0.6325350000000  0.4940970000000  0.4837020000000 1.0
C      1  0.4530240000000  0.4701280000000  0.5522520000000 1.0
C      1  0.4645940000000  0.5082360000000  0.4690980000000 1.0
END
