TITL C-2848509-3138-707 -625.34796938499 125000 -483.072957026719 0 0 90 (C1) n - 1
REM
REM in /home/bkarasulu/work/CARBON/AIRSS/Generating-Clusters/AIREBO/with-SteepDescent/Only-C1/SD-CG-opt/Try1-1.4A-POS3A/HFTN-CG
REM
REM
REM
REM
REM
REM ./C.cell (11c1c37f851c82e70ff6c80c92926a4b)
REM
REM compiler GCC version 9.2.1 20190827 (Red Hat 9.2.1-1)
REM options -cpp -mtune=generic -march=x86-64 -g -O0 -fpre-include=/usr/include/finclude/math-vector-fortran.h
REM seed 1385441321 747351184 88444059 -1144216412 2054821501 -987585668 -496477012 -542484428 1323543311 720510491 -1096614619 -51788187 -1238290916 -477760577 631378589 -2044325386 1498400927 122397513 -967965955 1443227988 1677207391 -111735504 63322466 -1752592880 -1900774159 644350458 1296684138 -722037339 -425338349 406886315 1901519702 -1624157016 -1434239871
REM
CELL 1.54180   50.00000   50.00000   50.00000   90.00000   90.00000   90.00000
LATT -1
SFAC C  
C      1  0.4785790000000  0.4602610000000  0.4428590000000 1.0
C      1  0.4906000000000  0.4981390000000  0.4961940000000 1.0
C      1  0.5012440000000  0.5742930000000  0.5084760000000 1.0
C      1  0.5261720000000  0.5273100000000  0.4111310000000 1.0
C      1  0.5559400000000  0.4955200000000  0.4458830000000 1.0
C      1  0.5182630000000  0.5440430000000  0.4491340000000 1.0
C      1  0.5292360000000  0.4323850000000  0.4527800000000 1.0
C      1  0.4706010000000  0.5231120000000  0.5281020000000 1.0
C      1  0.5228650000000  0.4716540000000  0.5729550000000 1.0
C      1  0.4605070000000  0.5744350000000  0.4843040000000 1.0
C      1  0.5210490000000  0.4778720000000  0.4695170000000 1.0
C      1  0.4380940000000  0.5164650000000  0.5355560000000 1.0
C      1  0.4439460000000  0.4348580000000  0.4636620000000 1.0
C      1  0.5671450000000  0.5061160000000  0.5069510000000 1.0
C      1  0.5183480000000  0.4302780000000  0.4849210000000 1.0
C      1  0.5777670000000  0.4587340000000  0.5049560000000 1.0
C      1  0.4729930000000  0.5830570000000  0.5095350000000 1.0
C      1  0.5337140000000  0.4259220000000  0.5150330000000 1.0
C      1  0.4162900000000  0.4801310000000  0.4832420000000 1.0
C      1  0.5508120000000  0.4704960000000  0.5664620000000 1.0
C      1  0.5115780000000  0.5204740000000  0.5109370000000 1.0
C      1  0.5010460000000  0.5440320000000  0.5660750000000 1.0
C      1  0.4820390000000  0.4344020000000  0.5078750000000 1.0
C      1  0.5781420000000  0.5374250000000  0.5147080000000 1.0
C      1  0.5530710000000  0.4610680000000  0.4865930000000 1.0
C      1  0.5528760000000  0.4723000000000  0.5343160000000 1.0
C      1  0.5042470000000  0.4458580000000  0.5608350000000 1.0
C      1  0.5513170000000  0.5489210000000  0.4879840000000 1.0
C      1  0.5149750000000  0.4226810000000  0.5383160000000 1.0
C      1  0.4897700000000  0.4675760000000  0.5111450000000 1.0
C      1  0.4243180000000  0.5466570000000  0.5388550000000 1.0
C      1  0.4853710000000  0.4844830000000  0.4308790000000 1.0
C      1  0.5760990000000  0.5336810000000  0.4749780000000 1.0
C      1  0.4317010000000  0.4873230000000  0.5761670000000 1.0
C      1  0.5379890000000  0.4977210000000  0.4913890000000 1.0
C      1  0.5220580000000  0.5663860000000  0.5284200000000 1.0
C      1  0.4400610000000  0.4852800000000  0.4607810000000 1.0
C      1  0.4434270000000  0.5531510000000  0.4888750000000 1.0
C      1  0.4679780000000  0.5222220000000  0.5614510000000 1.0
C      1  0.5284410000000  0.5142620000000  0.4533590000000 1.0
C      1  0.5159680000000  0.4999620000000  0.5708890000000 1.0
C      1  0.4982830000000  0.4526700000000  0.4675510000000 1.0
C      1  0.5295460000000  0.5267570000000  0.4832950000000 1.0
C      1  0.5843400000000  0.4856300000000  0.4908400000000 1.0
C      1  0.4237860000000  0.5333540000000  0.4764830000000 1.0
C      1  0.5486480000000  0.5532910000000  0.5205930000000 1.0
C      1  0.5415470000000  0.4779780000000  0.4205480000000 1.0
C      1  0.4599640000000  0.4614390000000  0.5268120000000 1.0
C      1  0.4684630000000  0.5041590000000  0.4400870000000 1.0
C      1  0.4713850000000  0.4435460000000  0.5523430000000 1.0
C      1  0.4536630000000  0.5308100000000  0.4369890000000 1.0
C      1  0.4953350000000  0.4740710000000  0.5440660000000 1.0
C      1  0.5477490000000  0.5116970000000  0.4171050000000 1.0
C      1  0.5621570000000  0.4655460000000  0.4606880000000 1.0
C      1  0.4855660000000  0.5282590000000  0.4799840000000 1.0
C      1  0.5234690000000  0.4606650000000  0.5313450000000 1.0
C      1  0.5734340000000  0.4908940000000  0.5628230000000 1.0
C      1  0.5213830000000  0.4609180000000  0.4989880000000 1.0
C      1  0.4527780000000  0.5507900000000  0.5503540000000 1.0
C      1  0.4967080000000  0.5186770000000  0.5792880000000 1.0
C      1  0.4724560000000  0.4629770000000  0.4822470000000 1.0
C      1  0.4979370000000  0.5428050000000  0.5327610000000 1.0
C      1  0.5034390000000  0.5563350000000  0.4870030000000 1.0
C      1  0.4845270000000  0.5398770000000  0.4480240000000 1.0
C      1  0.5709310000000  0.5086900000000  0.5406850000000 1.0
C      1  0.4507070000000  0.4583430000000  0.4490520000000 1.0
C      1  0.5041470000000  0.5745010000000  0.4515960000000 1.0
C      1  0.5566580000000  0.4412750000000  0.5209050000000 1.0
C      1  0.5536720000000  0.5330120000000  0.5458060000000 1.0
C      1  0.4581060000000  0.4329600000000  0.4892610000000 1.0
C      1  0.4577800000000  0.4788760000000  0.5809270000000 1.0
C      1  0.5324350000000  0.5125800000000  0.5506120000000 1.0
C      1  0.4671580000000  0.5008920000000  0.4717050000000 1.0
C      1  0.4581350000000  0.5274490000000  0.5000690000000 1.0
C      1  0.5278950000000  0.4589180000000  0.4421180000000 1.0
C      1  0.5305930000000  0.5645860000000  0.4706230000000 1.0
C      1  0.4759550000000  0.4893140000000  0.5626480000000 1.0
C      1  0.4983970000000  0.5232910000000  0.4217580000000 1.0
C      1  0.5777700000000  0.5070400000000  0.4684610000000 1.0
C      1  0.4713860000000  0.5640500000000  0.5330010000000 1.0
C      1  0.4269390000000  0.4921550000000  0.5487890000000 1.0
C      1  0.4903630000000  0.4149840000000  0.5258270000000 1.0
C      1  0.5322190000000  0.4970010000000  0.5232810000000 1.0
C      1  0.4195510000000  0.5291150000000  0.5100110000000 1.0
C      1  0.4455650000000  0.4706230000000  0.4975120000000 1.0
C      1  0.4292010000000  0.4698120000000  0.5336110000000 1.0
C      1  0.4338290000000  0.5177900000000  0.4556320000000 1.0
C      1  0.4758360000000  0.5713370000000  0.4604010000000 1.0
C      1  0.5143490000000  0.4946930000000  0.4309180000000 1.0
C      1  0.4372260000000  0.5026200000000  0.4980930000000 1.0
END
