TITL C-2848495-5024-482 -0.000614792365488111 125000 -202.564859952942 0 0 37 (C1) n - 1
REM
REM in /home/bkarasulu/work/CARBON/AIRSS/Generating-Clusters/AIREBO/with-SteepDescent/Only-C1/SD-CG-opt/Try1-1.4A-POS3A/HFTN-CG
REM
REM
REM
REM
REM
REM ./C.cell (11c1c37f851c82e70ff6c80c92926a4b)
REM
REM compiler GCC version 9.2.1 20190827 (Red Hat 9.2.1-1)
REM options -cpp -mtune=generic -march=x86-64 -g -O0 -fpre-include=/usr/include/finclude/math-vector-fortran.h
REM seed -152017855 726708658 -699262091 -1401126021 -2091938273 -932962364 -191526106 -1280539946 -800514082 113676019 -276903007 383312718 21165398 -839662602 1117591538 866373068 305199602 -482176360 119946844 326008217 364716665 -414391601 1621466108 1497450572 646725283 1288182365 495450221 2143731566 -1161745149 -1038137045 -1109704513 1372170324 1096005597
REM
CELL 1.54180   50.00000   50.00000   50.00000   90.00000   90.00000   90.00000
LATT -1
SFAC C  
C      1  0.4612360000000  0.5015780000000  0.4461770000000 1.0
C      1  0.5487470000000  0.5213270000000  0.5175130000000 1.0
C      1  0.5417050000000  0.4692670000000  0.5194040000000 1.0
C      1  0.4859180000000  0.5165840000000  0.4357990000000 1.0
C      1  0.5010040000000  0.4818880000000  0.5250650000000 1.0
C      1  0.5262950000000  0.4534000000000  0.4971290000000 1.0
C      1  0.5577190000000  0.4894650000000  0.5234680000000 1.0
C      1  0.4681850000000  0.5331370000000  0.4883500000000 1.0
C      1  0.5049980000000  0.5635890000000  0.5073240000000 1.0
C      1  0.5419650000000  0.5085130000000  0.4655860000000 1.0
C      1  0.5471460000000  0.5292540000000  0.4887900000000 1.0
C      1  0.5181200000000  0.5304580000000  0.4709390000000 1.0
C      1  0.4605150000000  0.5048480000000  0.4800150000000 1.0
C      1  0.5777660000000  0.5119040000000  0.5325670000000 1.0
C      1  0.5068220000000  0.5216200000000  0.5577200000000 1.0
C      1  0.4983600000000  0.5356090000000  0.4937120000000 1.0
C      1  0.4473780000000  0.4677860000000  0.5147260000000 1.0
C      1  0.4380850000000  0.5047340000000  0.4310170000000 1.0
C      1  0.5150150000000  0.4986280000000  0.5713880000000 1.0
C      1  0.4669380000000  0.4713380000000  0.4596460000000 1.0
C      1  0.5028800000000  0.5325360000000  0.4444620000000 1.0
C      1  0.5142970000000  0.4506710000000  0.5273910000000 1.0
C      1  0.5266650000000  0.5331870000000  0.5362780000000 1.0
C      1  0.4650110000000  0.5135940000000  0.5279510000000 1.0
C      1  0.4798930000000  0.5208210000000  0.5502730000000 1.0
C      1  0.5055200000000  0.4296820000000  0.5419080000000 1.0
C      1  0.4856640000000  0.4703670000000  0.4807100000000 1.0
C      1  0.4729470000000  0.4880280000000  0.5068540000000 1.0
C      1  0.5081020000000  0.4760090000000  0.5573880000000 1.0
C      1  0.5110270000000  0.4603580000000  0.4756820000000 1.0
C      1  0.5423970000000  0.4866190000000  0.4495300000000 1.0
C      1  0.5248450000000  0.4655650000000  0.4517100000000 1.0
C      1  0.4290680000000  0.4661690000000  0.4937550000000 1.0
C      1  0.4386650000000  0.4798350000000  0.4708400000000 1.0
C      1  0.5197500000000  0.5623160000000  0.5281210000000 1.0
C      1  0.4541590000000  0.5353190000000  0.5126130000000 1.0
C      1  0.5051930000000  0.5139970000000  0.5182010000000 1.0
END
