TITL C-2848509-3138-645 0.00335657491484715 125000 -506.884158676845 0 0 91 (C1) n - 1
REM
REM in /home/bkarasulu/work/CARBON/AIRSS/Generating-Clusters/AIREBO/with-SteepDescent/Only-C1/SD-CG-opt/Try1-1.4A-POS3A/HFTN-CG
REM
REM
REM
REM
REM
REM ./C.cell (11c1c37f851c82e70ff6c80c92926a4b)
REM
REM compiler GCC version 9.2.1 20190827 (Red Hat 9.2.1-1)
REM options -cpp -mtune=generic -march=x86-64 -g -O0 -fpre-include=/usr/include/finclude/math-vector-fortran.h
REM seed -1401071309 606178721 -2129045930 1000666043 1967056783 -35458932 -303607434 -1773238471 816431773 -1390867157 -1327207457 1068339248 -298233966 -1616253211 -129669598 -1934477633 1434123602 -685994043 740740141 912403840 1053558617 2047714598 -1245595769 27839491 -1110602470 173500704 577981283 1535966257 1042605566 1172386297 1879818952 -1744635091 601073877
REM
CELL 1.54180   50.00000   50.00000   50.00000   90.00000   90.00000   90.00000
LATT -1
SFAC C  
C      1  0.5529990000000  0.4356660000000  0.4980630000000 1.0
C      1  0.4681720000000  0.4436530000000  0.4942860000000 1.0
C      1  0.4865330000000  0.5008530000000  0.4826390000000 1.0
C      1  0.4621290000000  0.4315930000000  0.5471190000000 1.0
C      1  0.5234400000000  0.4276170000000  0.4895180000000 1.0
C      1  0.4411830000000  0.5551000000000  0.4892320000000 1.0
C      1  0.5557440000000  0.5060900000000  0.5108840000000 1.0
C      1  0.4819900000000  0.5664850000000  0.5102600000000 1.0
C      1  0.5769480000000  0.4954310000000  0.5454480000000 1.0
C      1  0.4587690000000  0.4924840000000  0.4408770000000 1.0
C      1  0.5047840000000  0.4448800000000  0.5725440000000 1.0
C      1  0.4293080000000  0.4647780000000  0.5171310000000 1.0
C      1  0.5194570000000  0.5205680000000  0.5719620000000 1.0
C      1  0.4899400000000  0.5790020000000  0.5332500000000 1.0
C      1  0.5720030000000  0.5315590000000  0.4683270000000 1.0
C      1  0.4665700000000  0.5222690000000  0.5641780000000 1.0
C      1  0.4619880000000  0.5522850000000  0.5627210000000 1.0
C      1  0.5429010000000  0.4955910000000  0.5406390000000 1.0
C      1  0.5000760000000  0.5489220000000  0.4395580000000 1.0
C      1  0.5310040000000  0.5268780000000  0.5188560000000 1.0
C      1  0.4898060000000  0.4537190000000  0.4471760000000 1.0
C      1  0.4892770000000  0.5106000000000  0.5451500000000 1.0
C      1  0.4179230000000  0.4317270000000  0.4806590000000 1.0
C      1  0.4838530000000  0.4792790000000  0.4032080000000 1.0
C      1  0.4523050000000  0.5234020000000  0.4358680000000 1.0
C      1  0.4926150000000  0.5762240000000  0.4818350000000 1.0
C      1  0.4941500000000  0.5212300000000  0.5831900000000 1.0
C      1  0.4706490000000  0.4710790000000  0.4268530000000 1.0
C      1  0.4410140000000  0.5610910000000  0.5459510000000 1.0
C      1  0.4609260000000  0.4874580000000  0.4687380000000 1.0
C      1  0.5654170000000  0.5116290000000  0.5691290000000 1.0
C      1  0.5134850000000  0.5719380000000  0.4572250000000 1.0
C      1  0.5258190000000  0.4331520000000  0.4341680000000 1.0
C      1  0.4345300000000  0.4461920000000  0.4967520000000 1.0
C      1  0.5225890000000  0.4242210000000  0.4570140000000 1.0
C      1  0.5964670000000  0.5551070000000  0.4676210000000 1.0
C      1  0.5079660000000  0.4756060000000  0.4902780000000 1.0
C      1  0.5664270000000  0.5646650000000  0.4667130000000 1.0
C      1  0.5803460000000  0.4930150000000  0.4623660000000 1.0
C      1  0.5583760000000  0.4542720000000  0.5172090000000 1.0
C      1  0.4783280000000  0.4620470000000  0.5685470000000 1.0
C      1  0.4020310000000  0.4159850000000  0.4670050000000 1.0
C      1  0.5040270000000  0.4333180000000  0.5160410000000 1.0
C      1  0.5585060000000  0.5378070000000  0.5640680000000 1.0
C      1  0.4219600000000  0.4920930000000  0.5149320000000 1.0
C      1  0.5302840000000  0.5405680000000  0.5484400000000 1.0
C      1  0.5279670000000  0.4678480000000  0.5827540000000 1.0
C      1  0.5540880000000  0.5053500000000  0.4805150000000 1.0
C      1  0.5237300000000  0.5733000000000  0.4955170000000 1.0
C      1  0.4440280000000  0.5571950000000  0.5186780000000 1.0
C      1  0.4636490000000  0.4589500000000  0.4660170000000 1.0
C      1  0.5379970000000  0.4562010000000  0.5357820000000 1.0
C      1  0.5376850000000  0.4944040000000  0.5742180000000 1.0
C      1  0.5221430000000  0.5331120000000  0.4600360000000 1.0
C      1  0.4502580000000  0.4770390000000  0.5663660000000 1.0
C      1  0.5141200000000  0.4995350000000  0.5261420000000 1.0
C      1  0.4677050000000  0.5550400000000  0.4749100000000 1.0
C      1  0.4673650000000  0.5502960000000  0.4449570000000 1.0
C      1  0.4220890000000  0.5058370000000  0.4904430000000 1.0
C      1  0.4232350000000  0.5056550000000  0.5406730000000 1.0
C      1  0.5651690000000  0.5134310000000  0.4430030000000 1.0
C      1  0.5356150000000  0.4466720000000  0.5612090000000 1.0
C      1  0.4749840000000  0.4162450000000  0.5125290000000 1.0
C      1  0.5420000000000  0.5751500000000  0.4679350000000 1.0
C      1  0.4682170000000  0.5363670000000  0.5118080000000 1.0
C      1  0.4497090000000  0.4592120000000  0.5407900000000 1.0
C      1  0.4853900000000  0.4773380000000  0.5428620000000 1.0
C      1  0.5995560000000  0.4771570000000  0.5035220000000 1.0
C      1  0.4687950000000  0.4705780000000  0.5150700000000 1.0
C      1  0.5204960000000  0.5416150000000  0.4929200000000 1.0
C      1  0.5331720000000  0.4622460000000  0.4207960000000 1.0
C      1  0.5268650000000  0.4949780000000  0.4708100000000 1.0
C      1  0.4852920000000  0.5201030000000  0.4282590000000 1.0
C      1  0.5255780000000  0.4952240000000  0.4201730000000 1.0
C      1  0.4759580000000  0.5039060000000  0.5148090000000 1.0
C      1  0.5100610000000  0.4659870000000  0.5223880000000 1.0
C      1  0.5014010000000  0.5092550000000  0.4533650000000 1.0
C      1  0.4995680000000  0.4481270000000  0.4792630000000 1.0
C      1  0.5185800000000  0.4687430000000  0.4508130000000 1.0
C      1  0.5750950000000  0.4792050000000  0.5169860000000 1.0
C      1  0.4906580000000  0.5343210000000  0.4881300000000 1.0
C      1  0.4303010000000  0.5141690000000  0.4584810000000 1.0
C      1  0.5512610000000  0.4765370000000  0.4451610000000 1.0
C      1  0.4226760000000  0.5364190000000  0.4801190000000 1.0
C      1  0.5381380000000  0.5135760000000  0.4372650000000 1.0
C      1  0.5005870000000  0.5013390000000  0.4094100000000 1.0
C      1  0.5171060000000  0.5671950000000  0.5483550000000 1.0
C      1  0.5282040000000  0.5849760000000  0.5235590000000 1.0
C      1  0.4431570000000  0.5033900000000  0.5613420000000 1.0
C      1  0.4898790000000  0.4305800000000  0.5467660000000 1.0
C      1  0.4854590000000  0.5670680000000  0.5614650000000 1.0
END
