TITL C-2847949-8115-104 -0.001985053665035 125000 -972.503598979668 0 0 183 (C1) n - 1
REM
REM in /home/bkarasulu/work/CARBON/AIRSS/Generating-Clusters/AIREBO/with-SteepDescent/Only-C1/SD-CG-opt/Try1-1.4A-POS3A/HFTN-CG
REM
REM
REM
REM
REM
REM ./C.cell (11c1c37f851c82e70ff6c80c92926a4b)
REM
REM compiler GCC version 9.2.1 20190827 (Red Hat 9.2.1-1)
REM options -cpp -mtune=generic -march=x86-64 -g -O0 -fpre-include=/usr/include/finclude/math-vector-fortran.h
REM seed 403344369 1480204 -320506274 -409839777 -437438544 302120861 -1988320542 -1818559383 -1737935736 -2025932771 -959404563 1685859042 -421155080 981075381 1473368997 -720030829 -690344431 -2005477543 -1407943565 122811672 1761492836 36848529 -1687402714 333868346 1936702954 538442849 -1305679872 -1722008213 623864889 146315515 1114383970 176019178 -1337006515
REM
CELL 1.54180   50.00000   50.00000   50.00000   90.00000   90.00000   90.00000
LATT -1
SFAC C  
C      1  0.4246320000000  0.5549570000000  0.4831210000000 1.0
C      1  0.5312060000000  0.5651340000000  0.4189000000000 1.0
C      1  0.6018320000000  0.4805500000000  0.5032300000000 1.0
C      1  0.4461520000000  0.5704160000000  0.4215170000000 1.0
C      1  0.5073910000000  0.4847670000000  0.4917800000000 1.0
C      1  0.4439890000000  0.5611210000000  0.5844550000000 1.0
C      1  0.5497670000000  0.4431530000000  0.4156210000000 1.0
C      1  0.3992580000000  0.4841410000000  0.4908050000000 1.0
C      1  0.4082570000000  0.4996170000000  0.5418820000000 1.0
C      1  0.5160990000000  0.6015330000000  0.5394770000000 1.0
C      1  0.5919200000000  0.5281760000000  0.5215240000000 1.0
C      1  0.4647790000000  0.5256060000000  0.4582810000000 1.0
C      1  0.4957220000000  0.5411810000000  0.4009510000000 1.0
C      1  0.4716780000000  0.5713270000000  0.4420170000000 1.0
C      1  0.4970140000000  0.4168480000000  0.3965120000000 1.0
C      1  0.4955250000000  0.4081300000000  0.4240610000000 1.0
C      1  0.4184760000000  0.4481960000000  0.5564940000000 1.0
C      1  0.5212840000000  0.4881250000000  0.5698580000000 1.0
C      1  0.4639380000000  0.5503110000000  0.6027310000000 1.0
C      1  0.4735150000000  0.4266830000000  0.5755810000000 1.0
C      1  0.4707700000000  0.4266930000000  0.4790480000000 1.0
C      1  0.5470010000000  0.4542680000000  0.5116590000000 1.0
C      1  0.5437290000000  0.4237250000000  0.5036500000000 1.0
C      1  0.6019450000000  0.4931030000000  0.4436100000000 1.0
C      1  0.4705480000000  0.4716750000000  0.4659570000000 1.0
C      1  0.4751910000000  0.5796000000000  0.5218570000000 1.0
C      1  0.5756960000000  0.4182790000000  0.5116200000000 1.0
C      1  0.5365300000000  0.5284280000000  0.6145450000000 1.0
C      1  0.4374460000000  0.4886880000000  0.5016780000000 1.0
C      1  0.5709230000000  0.5502150000000  0.4761740000000 1.0
C      1  0.5646880000000  0.4152420000000  0.4782280000000 1.0
C      1  0.4812570000000  0.4870610000000  0.3860110000000 1.0
C      1  0.5740610000000  0.4791010000000  0.5805710000000 1.0
C      1  0.5162820000000  0.4116310000000  0.4451590000000 1.0
C      1  0.5228050000000  0.5473990000000  0.3992920000000 1.0
C      1  0.4062730000000  0.4665140000000  0.5343490000000 1.0
C      1  0.5337220000000  0.4649460000000  0.4695890000000 1.0
C      1  0.4080990000000  0.5352400000000  0.5035150000000 1.0
C      1  0.4644990000000  0.5151870000000  0.4895430000000 1.0
C      1  0.5096660000000  0.5119500000000  0.5485140000000 1.0
C      1  0.4715780000000  0.4524680000000  0.5136960000000 1.0
C      1  0.5337640000000  0.5684060000000  0.5702500000000 1.0
C      1  0.4358120000000  0.4097570000000  0.5148320000000 1.0
C      1  0.4925800000000  0.4465290000000  0.4876150000000 1.0
C      1  0.4335510000000  0.4917110000000  0.4095860000000 1.0
C      1  0.5320690000000  0.4992370000000  0.5283050000000 1.0
C      1  0.5127210000000  0.4400750000000  0.4634880000000 1.0
C      1  0.4178310000000  0.4471550000000  0.4466130000000 1.0
C      1  0.5767360000000  0.4374670000000  0.4603380000000 1.0
C      1  0.5387470000000  0.5486840000000  0.4651390000000 1.0
C      1  0.5031910000000  0.4513060000000  0.5652630000000 1.0
C      1  0.5168370000000  0.4483780000000  0.6027280000000 1.0
C      1  0.4626160000000  0.4750140000000  0.4038540000000 1.0
C      1  0.5591460000000  0.5621440000000  0.4273400000000 1.0
C      1  0.5680720000000  0.5176980000000  0.4996410000000 1.0
C      1  0.4639600000000  0.5011420000000  0.4398520000000 1.0
C      1  0.4023590000000  0.4587370000000  0.4678750000000 1.0
C      1  0.5782050000000  0.5400920000000  0.5428280000000 1.0
C      1  0.5673350000000  0.4566970000000  0.4357770000000 1.0
C      1  0.4179430000000  0.4634660000000  0.4210130000000 1.0
C      1  0.4595220000000  0.5208030000000  0.5342000000000 1.0
C      1  0.4273730000000  0.4277840000000  0.5345270000000 1.0
C      1  0.4196330000000  0.4601570000000  0.5037050000000 1.0
C      1  0.4981930000000  0.4740360000000  0.5904710000000 1.0
C      1  0.4137550000000  0.4919370000000  0.5745480000000 1.0
C      1  0.4734530000000  0.5287740000000  0.5705440000000 1.0
C      1  0.5597020000000  0.4899840000000  0.4137940000000 1.0
C      1  0.4137770000000  0.5320800000000  0.4640930000000 1.0
C      1  0.5240990000000  0.6011180000000  0.4758880000000 1.0
C      1  0.6002040000000  0.5328690000000  0.4754270000000 1.0
C      1  0.4082420000000  0.5321130000000  0.5519190000000 1.0
C      1  0.3957560000000  0.4389790000000  0.4919550000000 1.0
C      1  0.5644280000000  0.5184550000000  0.4658320000000 1.0
C      1  0.5334240000000  0.4065370000000  0.4691640000000 1.0
C      1  0.5140660000000  0.5326670000000  0.4473230000000 1.0
C      1  0.4940050000000  0.4066560000000  0.5587080000000 1.0
C      1  0.4873950000000  0.5449680000000  0.4301180000000 1.0
C      1  0.4441220000000  0.4550300000000  0.5267350000000 1.0
C      1  0.4721250000000  0.4539530000000  0.5552520000000 1.0
C      1  0.5435370000000  0.4648580000000  0.5587350000000 1.0
C      1  0.5144020000000  0.4017950000000  0.5318450000000 1.0
C      1  0.6075230000000  0.5138390000000  0.4983810000000 1.0
C      1  0.5646360000000  0.5855760000000  0.4437620000000 1.0
C      1  0.5124790000000  0.4999970000000  0.4375130000000 1.0
C      1  0.4955310000000  0.5500370000000  0.5999220000000 1.0
C      1  0.4918110000000  0.5023640000000  0.6081620000000 1.0
C      1  0.5703420000000  0.5329310000000  0.4356180000000 1.0
C      1  0.5595470000000  0.4918440000000  0.5456140000000 1.0
C      1  0.5152070000000  0.4146160000000  0.4942200000000 1.0
C      1  0.4707500000000  0.4544630000000  0.5949940000000 1.0
C      1  0.4875850000000  0.5148450000000  0.3957960000000 1.0
C      1  0.5669450000000  0.5944410000000  0.5287190000000 1.0
C      1  0.5124540000000  0.6086900000000  0.5074180000000 1.0
C      1  0.5630070000000  0.5621680000000  0.5330220000000 1.0
C      1  0.4940690000000  0.3943380000000  0.5054410000000 1.0
C      1  0.4857900000000  0.5014990000000  0.4228150000000 1.0
C      1  0.5405640000000  0.4426890000000  0.5809000000000 1.0
C      1  0.5286440000000  0.4830000000000  0.4134240000000 1.0
C      1  0.5489760000000  0.4043630000000  0.5305720000000 1.0
C      1  0.4911220000000  0.5376000000000  0.4690500000000 1.0
C      1  0.5063170000000  0.5496970000000  0.4969670000000 1.0
C      1  0.4213990000000  0.5371140000000  0.5832540000000 1.0
C      1  0.5344030000000  0.5561050000000  0.5154670000000 1.0
C      1  0.4414520000000  0.5290200000000  0.5585370000000 1.0
C      1  0.4963550000000  0.5310320000000  0.5235910000000 1.0
C      1  0.5290150000000  0.5027840000000  0.3785750000000 1.0
C      1  0.4506150000000  0.5673940000000  0.4928760000000 1.0
C      1  0.4741500000000  0.4239970000000  0.4452400000000 1.0
C      1  0.5227890000000  0.4729200000000  0.5141460000000 1.0
C      1  0.4554300000000  0.6058070000000  0.5438840000000 1.0
C      1  0.5642430000000  0.4852310000000  0.4540110000000 1.0
C      1  0.4618330000000  0.5866450000000  0.4700730000000 1.0
C      1  0.4791040000000  0.4278980000000  0.5360030000000 1.0
C      1  0.4409700000000  0.4230170000000  0.4526910000000 1.0
C      1  0.4655280000000  0.5164530000000  0.5994570000000 1.0
C      1  0.5600450000000  0.5179720000000  0.4105430000000 1.0
C      1  0.4903350000000  0.6050270000000  0.4747290000000 1.0
C      1  0.4921300000000  0.5768660000000  0.4937040000000 1.0
C      1  0.4537960000000  0.5381690000000  0.4291170000000 1.0
C      1  0.4305500000000  0.5157450000000  0.4876510000000 1.0
C      1  0.4982060000000  0.5755220000000  0.4602030000000 1.0
C      1  0.5823730000000  0.4344850000000  0.5475480000000 1.0
C      1  0.5830160000000  0.5785530000000  0.4624780000000 1.0
C      1  0.5899380000000  0.4796220000000  0.5547380000000 1.0
C      1  0.4177540000000  0.5510090000000  0.5288260000000 1.0
C      1  0.5188910000000  0.5677680000000  0.5402180000000 1.0
C      1  0.4855640000000  0.6113610000000  0.5282030000000 1.0
C      1  0.5766080000000  0.4923790000000  0.5161960000000 1.0
C      1  0.5502980000000  0.4935230000000  0.5853390000000 1.0
C      1  0.4438960000000  0.4530760000000  0.5741830000000 1.0
C      1  0.5368480000000  0.4988020000000  0.4688900000000 1.0
C      1  0.5036490000000  0.4784840000000  0.4612120000000 1.0
C      1  0.5526520000000  0.5213730000000  0.5931820000000 1.0
C      1  0.5398260000000  0.5254840000000  0.3925400000000 1.0
C      1  0.3971760000000  0.5056760000000  0.5102990000000 1.0
C      1  0.5196600000000  0.4516290000000  0.4156480000000 1.0
C      1  0.4983670000000  0.4459800000000  0.4358370000000 1.0
C      1  0.5181830000000  0.4337650000000  0.5428190000000 1.0
C      1  0.5095770000000  0.4415640000000  0.5142040000000 1.0
C      1  0.4434920000000  0.4556960000000  0.4798540000000 1.0
C      1  0.4674420000000  0.4125400000000  0.5098450000000 1.0
C      1  0.4543150000000  0.4854340000000  0.5731710000000 1.0
C      1  0.4729900000000  0.4627280000000  0.4339300000000 1.0
C      1  0.5509840000000  0.4370370000000  0.5406520000000 1.0
C      1  0.4176930000000  0.5809320000000  0.5244840000000 1.0
C      1  0.4376640000000  0.4227100000000  0.4857020000000 1.0
C      1  0.4728040000000  0.3867690000000  0.4799590000000 1.0
C      1  0.5294900000000  0.5354430000000  0.5630580000000 1.0
C      1  0.4352670000000  0.5070650000000  0.5912240000000 1.0
C      1  0.4670140000000  0.5425930000000  0.5095220000000 1.0
C      1  0.5381460000000  0.5870930000000  0.5019860000000 1.0
C      1  0.4779820000000  0.5009100000000  0.5540640000000 1.0
C      1  0.4089350000000  0.5257420000000  0.4376590000000 1.0
C      1  0.5252820000000  0.5243000000000  0.4846460000000 1.0
C      1  0.5867020000000  0.4790760000000  0.4219200000000 1.0
C      1  0.4546210000000  0.3938000000000  0.4635890000000 1.0
C      1  0.5644100000000  0.4587320000000  0.4838500000000 1.0
C      1  0.5066190000000  0.4420400000000  0.3886840000000 1.0
C      1  0.5872270000000  0.4500990000000  0.5075680000000 1.0
C      1  0.4430550000000  0.4785810000000  0.5441890000000 1.0
C      1  0.5605700000000  0.5226740000000  0.5601300000000 1.0
C      1  0.4892510000000  0.5750870000000  0.5524910000000 1.0
C      1  0.5125750000000  0.5755710000000  0.5912090000000 1.0
C      1  0.4428880000000  0.4771590000000  0.4381730000000 1.0
C      1  0.5086450000000  0.5259400000000  0.6126940000000 1.0
C      1  0.5967980000000  0.4576810000000  0.5393090000000 1.0
C      1  0.5129050000000  0.4226730000000  0.5808190000000 1.0
C      1  0.4954420000000  0.5957570000000  0.5786340000000 1.0
C      1  0.5997990000000  0.5210470000000  0.4477660000000 1.0
C      1  0.4978270000000  0.5473660000000  0.5670430000000 1.0
C      1  0.4475390000000  0.5778270000000  0.5612970000000 1.0
C      1  0.4502720000000  0.5596860000000  0.5336990000000 1.0
C      1  0.5681610000000  0.5724560000000  0.5017870000000 1.0
C      1  0.5413530000000  0.5231740000000  0.5120570000000 1.0
C      1  0.4300550000000  0.5204520000000  0.4210890000000 1.0
C      1  0.4370780000000  0.5027510000000  0.5282520000000 1.0
C      1  0.5909020000000  0.4692880000000  0.4652850000000 1.0
C      1  0.5101680000000  0.4757460000000  0.3856930000000 1.0
C      1  0.4679200000000  0.4816600000000  0.4965130000000 1.0
C      1  0.4965890000000  0.5110930000000  0.4978860000000 1.0
C      1  0.5453590000000  0.5948480000000  0.5519560000000 1.0
C      1  0.4453700000000  0.5937860000000  0.5137010000000 1.0
C      1  0.5306480000000  0.5780810000000  0.4503500000000 1.0
END
