TITL C-2848494-1720-652 -0.000368871168696625 125000 -420.500291866674 0 0 77 (C1) n - 1
REM
REM in /home/bkarasulu/work/CARBON/AIRSS/Generating-Clusters/AIREBO/with-SteepDescent/Only-C1/SD-CG-opt/Try1-1.4A-POS3A/HFTN-CG
REM
REM
REM
REM
REM
REM ./C.cell (11c1c37f851c82e70ff6c80c92926a4b)
REM
REM compiler GCC version 9.2.1 20190827 (Red Hat 9.2.1-1)
REM options -cpp -mtune=generic -march=x86-64 -g -O0 -fpre-include=/usr/include/finclude/math-vector-fortran.h
REM seed -718383115 1404529774 -1369975896 2121103353 -394479225 967575947 -1233698044 -733527283 2111699992 122580458 823860288 864534648 -617195362 -1589464004 2075647001 -425278011 -305410748 180855916 942611335 1566225762 278865594 -394938506 -2055097400 1811144592 -2057615386 -833171340 1837651158 1193395404 -913199670 1527120668 961945026 1276863709 -1285898579
REM
CELL 1.54180   50.00000   50.00000   50.00000   90.00000   90.00000   90.00000
LATT -1
SFAC C  
C      1  0.5484190000000  0.4271170000000  0.4822400000000 1.0
C      1  0.4666750000000  0.4887630000000  0.5220370000000 1.0
C      1  0.5533240000000  0.4795220000000  0.4430310000000 1.0
C      1  0.4938650000000  0.4372400000000  0.5484240000000 1.0
C      1  0.5436940000000  0.4612830000000  0.4626330000000 1.0
C      1  0.5207940000000  0.4255630000000  0.4686110000000 1.0
C      1  0.5044960000000  0.5141030000000  0.5409420000000 1.0
C      1  0.5760610000000  0.5079260000000  0.5621290000000 1.0
C      1  0.5375980000000  0.5290300000000  0.5159430000000 1.0
C      1  0.4691410000000  0.4385500000000  0.4571950000000 1.0
C      1  0.4750160000000  0.5833800000000  0.5014920000000 1.0
C      1  0.5472610000000  0.5010010000000  0.4607800000000 1.0
C      1  0.4955070000000  0.4996080000000  0.4768980000000 1.0
C      1  0.4412590000000  0.5371860000000  0.5333950000000 1.0
C      1  0.4315810000000  0.5211740000000  0.4859460000000 1.0
C      1  0.5552480000000  0.5522220000000  0.5312240000000 1.0
C      1  0.5643610000000  0.5258790000000  0.4865040000000 1.0
C      1  0.5110010000000  0.5195190000000  0.4272670000000 1.0
C      1  0.4933190000000  0.5061560000000  0.5102020000000 1.0
C      1  0.4667730000000  0.5508290000000  0.5242960000000 1.0
C      1  0.4289880000000  0.5194680000000  0.5157210000000 1.0
C      1  0.5879820000000  0.5126790000000  0.5036100000000 1.0
C      1  0.4253660000000  0.4927940000000  0.4734000000000 1.0
C      1  0.5031870000000  0.4469680000000  0.4976920000000 1.0
C      1  0.4819030000000  0.5615490000000  0.5523140000000 1.0
C      1  0.5387730000000  0.4951520000000  0.5191660000000 1.0
C      1  0.5340740000000  0.5416490000000  0.4860050000000 1.0
C      1  0.5073110000000  0.4744330000000  0.5435050000000 1.0
C      1  0.4814100000000  0.4721030000000  0.4749240000000 1.0
C      1  0.4401760000000  0.4901400000000  0.4488770000000 1.0
C      1  0.5424420000000  0.4437480000000  0.5298370000000 1.0
C      1  0.5619130000000  0.4704180000000  0.5223770000000 1.0
C      1  0.5559830000000  0.4930990000000  0.4899130000000 1.0
C      1  0.5060570000000  0.4693020000000  0.4346430000000 1.0
C      1  0.4527770000000  0.5653670000000  0.4853710000000 1.0
C      1  0.5112530000000  0.4955660000000  0.5686460000000 1.0
C      1  0.4765370000000  0.4868220000000  0.5510380000000 1.0
C      1  0.5592410000000  0.4588820000000  0.4904910000000 1.0
C      1  0.4438590000000  0.5174740000000  0.4349810000000 1.0
C      1  0.5227780000000  0.4472920000000  0.5488370000000 1.0
C      1  0.4459620000000  0.5253120000000  0.5593320000000 1.0
C      1  0.4887400000000  0.4263980000000  0.4747710000000 1.0
C      1  0.4790980000000  0.4558590000000  0.5648480000000 1.0
C      1  0.5223070000000  0.5577380000000  0.5265190000000 1.0
C      1  0.4702860000000  0.5027960000000  0.4258180000000 1.0
C      1  0.5885310000000  0.4893020000000  0.5128370000000 1.0
C      1  0.4846100000000  0.4318360000000  0.5219660000000 1.0
C      1  0.4706810000000  0.5137580000000  0.5642370000000 1.0
C      1  0.5111200000000  0.4580700000000  0.4661500000000 1.0
C      1  0.5257370000000  0.5370590000000  0.5532890000000 1.0
C      1  0.4408700000000  0.4463540000000  0.5073260000000 1.0
C      1  0.4575070000000  0.4250960000000  0.5158020000000 1.0
C      1  0.4595840000000  0.4683910000000  0.4508350000000 1.0
C      1  0.4825910000000  0.5701130000000  0.4717920000000 1.0
C      1  0.4948430000000  0.5702040000000  0.5232400000000 1.0
C      1  0.5109460000000  0.4771120000000  0.5116160000000 1.0
C      1  0.5369160000000  0.5351790000000  0.4428130000000 1.0
C      1  0.5699160000000  0.4803470000000  0.5538990000000 1.0
C      1  0.4941880000000  0.4729280000000  0.5839410000000 1.0
C      1  0.4793350000000  0.5176000000000  0.4534450000000 1.0
C      1  0.4354850000000  0.4938740000000  0.5229960000000 1.0
C      1  0.4974020000000  0.5434400000000  0.4464120000000 1.0
C      1  0.4936040000000  0.5358550000000  0.5645170000000 1.0
C      1  0.5059770000000  0.5475950000000  0.4790550000000 1.0
C      1  0.4453950000000  0.5443790000000  0.4451750000000 1.0
C      1  0.5387480000000  0.4973090000000  0.5528520000000 1.0
C      1  0.4633310000000  0.5229630000000  0.4796080000000 1.0
C      1  0.5564780000000  0.5456780000000  0.4607490000000 1.0
C      1  0.4693330000000  0.5599920000000  0.4420560000000 1.0
C      1  0.4624290000000  0.4697220000000  0.4987700000000 1.0
C      1  0.5317780000000  0.4335200000000  0.5062240000000 1.0
C      1  0.5183440000000  0.5118590000000  0.4591600000000 1.0
C      1  0.5085310000000  0.4892630000000  0.4200210000000 1.0
C      1  0.4346980000000  0.5493670000000  0.4715990000000 1.0
C      1  0.5528120000000  0.5254990000000  0.5638780000000 1.0
C      1  0.4824880000000  0.5359980000000  0.5007420000000 1.0
C      1  0.4319940000000  0.4712740000000  0.4891740000000 1.0
END
