TITL C-2847947-6848-257 8.05485955550422e-05 125000 -428.300966099299 0 0 81 (C1) n - 1
REM
REM in /home/bkarasulu/work/CARBON/AIRSS/Generating-Clusters/AIREBO/with-SteepDescent/Only-C1/SD-CG-opt/Try1-1.4A-POS3A/HFTN-CG
REM
REM
REM
REM
REM
REM ./C.cell (11c1c37f851c82e70ff6c80c92926a4b)
REM
REM compiler GCC version 9.2.1 20190827 (Red Hat 9.2.1-1)
REM options -cpp -mtune=generic -march=x86-64 -g -O0 -fpre-include=/usr/include/finclude/math-vector-fortran.h
REM seed -905812492 1647523860 262425582 -1059545982 -419504589 2027138025 1036913993 1374734948 1890090898 14394433 253054160 777396968 -1344157255 -1778350512 987406541 1510580994 1935879564 203784406 -2124086268 -1577051910 -260685572 -1763510610 -427577449 361733374 748181592 244123092 128430638 -452939723 -1934280737 1292220791 1320753097 -504948586 -1514467677
REM
CELL 1.54180   50.00000   50.00000   50.00000   90.00000   90.00000   90.00000
LATT -1
SFAC C  
C      1  0.5353600000000  0.5451570000000  0.4944340000000 1.0
C      1  0.4703860000000  0.5270600000000  0.4757030000000 1.0
C      1  0.5007440000000  0.4534960000000  0.4869760000000 1.0
C      1  0.4488100000000  0.5180360000000  0.5556840000000 1.0
C      1  0.4245050000000  0.5287680000000  0.5140080000000 1.0
C      1  0.5249290000000  0.4519260000000  0.4630530000000 1.0
C      1  0.4729460000000  0.4348850000000  0.4853160000000 1.0
C      1  0.4909050000000  0.4786890000000  0.4396620000000 1.0
C      1  0.4228220000000  0.5022760000000  0.4994970000000 1.0
C      1  0.4364050000000  0.4586520000000  0.5194380000000 1.0
C      1  0.4902200000000  0.4692940000000  0.5332880000000 1.0
C      1  0.4394320000000  0.5384730000000  0.5390500000000 1.0
C      1  0.4478420000000  0.4896300000000  0.5275430000000 1.0
C      1  0.4595280000000  0.4879660000000  0.4454570000000 1.0
C      1  0.5725610000000  0.5141720000000  0.4616040000000 1.0
C      1  0.5416740000000  0.4591410000000  0.5095860000000 1.0
C      1  0.5292990000000  0.4645730000000  0.4317440000000 1.0
C      1  0.4720380000000  0.4629040000000  0.5606450000000 1.0
C      1  0.5905680000000  0.5520420000000  0.5037060000000 1.0
C      1  0.5520790000000  0.4563370000000  0.4794070000000 1.0
C      1  0.5742910000000  0.4811730000000  0.4697200000000 1.0
C      1  0.4722160000000  0.5093800000000  0.4222910000000 1.0
C      1  0.4877970000000  0.4828660000000  0.4867300000000 1.0
C      1  0.4463520000000  0.5110750000000  0.4609210000000 1.0
C      1  0.5750670000000  0.4795010000000  0.5020130000000 1.0
C      1  0.5550020000000  0.4466690000000  0.5449570000000 1.0
C      1  0.5201070000000  0.5575460000000  0.4693400000000 1.0
C      1  0.4976810000000  0.4121690000000  0.4911320000000 1.0
C      1  0.5205360000000  0.5165240000000  0.4253220000000 1.0
C      1  0.4940480000000  0.4978800000000  0.5354000000000 1.0
C      1  0.5491160000000  0.5505570000000  0.4545290000000 1.0
C      1  0.4671000000000  0.4635410000000  0.4678700000000 1.0
C      1  0.5430090000000  0.4924450000000  0.5028690000000 1.0
C      1  0.5527000000000  0.5227120000000  0.4352620000000 1.0
C      1  0.5218990000000  0.5189920000000  0.5004600000000 1.0
C      1  0.4703890000000  0.5705710000000  0.4981190000000 1.0
C      1  0.4175410000000  0.4744930000000  0.4995650000000 1.0
C      1  0.4467980000000  0.5473250000000  0.5007470000000 1.0
C      1  0.4153330000000  0.4592690000000  0.4758080000000 1.0
C      1  0.4796870000000  0.5146260000000  0.5583630000000 1.0
C      1  0.5388660000000  0.4234200000000  0.5348590000000 1.0
C      1  0.5141790000000  0.4888220000000  0.4207890000000 1.0
C      1  0.4435280000000  0.4659180000000  0.5516070000000 1.0
C      1  0.4309950000000  0.5326570000000  0.4748120000000 1.0
C      1  0.5491660000000  0.4937900000000  0.5364960000000 1.0
C      1  0.5131450000000  0.4490990000000  0.5183390000000 1.0
C      1  0.5038270000000  0.5825550000000  0.4659200000000 1.0
C      1  0.4797600000000  0.5446080000000  0.5438300000000 1.0
C      1  0.4776430000000  0.5755450000000  0.4690770000000 1.0
C      1  0.5007100000000  0.4570380000000  0.5705140000000 1.0
C      1  0.5021040000000  0.5288710000000  0.4635260000000 1.0
C      1  0.4312320000000  0.4949780000000  0.5573400000000 1.0
C      1  0.5664000000000  0.5349340000000  0.4869950000000 1.0
C      1  0.4384970000000  0.4476400000000  0.4662340000000 1.0
C      1  0.5676780000000  0.5383970000000  0.5210870000000 1.0
C      1  0.4960470000000  0.4477800000000  0.4455990000000 1.0
C      1  0.5166570000000  0.4169850000000  0.5109200000000 1.0
C      1  0.4931880000000  0.5756620000000  0.5226390000000 1.0
C      1  0.4717820000000  0.5522760000000  0.4529280000000 1.0
C      1  0.5440290000000  0.4719390000000  0.5559170000000 1.0
C      1  0.5197940000000  0.4788840000000  0.5701180000000 1.0
C      1  0.4896520000000  0.5106130000000  0.5063020000000 1.0
C      1  0.5507800000000  0.4777520000000  0.4471360000000 1.0
C      1  0.5186040000000  0.5914700000000  0.5145560000000 1.0
C      1  0.5109090000000  0.5080030000000  0.5700870000000 1.0
C      1  0.4564640000000  0.5072910000000  0.4996710000000 1.0
C      1  0.5262930000000  0.5334800000000  0.5629220000000 1.0
C      1  0.5034760000000  0.4353700000000  0.5484050000000 1.0
C      1  0.5732520000000  0.4554950000000  0.5216640000000 1.0
C      1  0.5304740000000  0.5638400000000  0.5178910000000 1.0
C      1  0.4769450000000  0.4381270000000  0.5302840000000 1.0
C      1  0.5213760000000  0.5111800000000  0.5306190000000 1.0
C      1  0.4562570000000  0.4370770000000  0.5112590000000 1.0
C      1  0.5340640000000  0.5211270000000  0.4624940000000 1.0
C      1  0.5041920000000  0.4948580000000  0.4637780000000 1.0
C      1  0.5504080000000  0.5257770000000  0.5411890000000 1.0
C      1  0.5107130000000  0.5529980000000  0.5421290000000 1.0
C      1  0.4525370000000  0.5644760000000  0.5470170000000 1.0
C      1  0.5358470000000  0.4916900000000  0.4708680000000 1.0
C      1  0.4766960000000  0.5406940000000  0.5131010000000 1.0
C      1  0.4921120000000  0.5340910000000  0.4318620000000 1.0
END
