TITL C-2848494-1720-105 -0.00199534311782769 125000 -533.064920978567 0 0 102 (C1) n - 1
REM
REM in /home/bkarasulu/work/CARBON/AIRSS/Generating-Clusters/AIREBO/with-SteepDescent/Only-C1/SD-CG-opt/Try1-1.4A-POS3A/HFTN-CG
REM
REM
REM
REM
REM
REM ./C.cell (11c1c37f851c82e70ff6c80c92926a4b)
REM
REM compiler GCC version 9.2.1 20190827 (Red Hat 9.2.1-1)
REM options -cpp -mtune=generic -march=x86-64 -g -O0 -fpre-include=/usr/include/finclude/math-vector-fortran.h
REM seed -1377573734 -1350822554 -1222767046 -1550932098 -1563181699 -1092151221 -1368466012 -1993324022 -712795408 -1878170242 -1404844418 621200068 582973050 1541143073 -855520802 -89466825 -833116557 -695216330 392889188 -441743142 -1225977435 -1480862105 217029104 902686749 -1677712943 691208350 -903952674 1135015604 -308652610 1584307860 -1847446093 -2073233393 2076971999
REM
CELL 1.54180   50.00000   50.00000   50.00000   90.00000   90.00000   90.00000
LATT -1
SFAC C  
C      1  0.5267510000000  0.4686090000000  0.4919010000000 1.0
C      1  0.4464490000000  0.5822130000000  0.4830560000000 1.0
C      1  0.5129830000000  0.4102450000000  0.4782650000000 1.0
C      1  0.5784430000000  0.4981660000000  0.5441070000000 1.0
C      1  0.4804490000000  0.5150430000000  0.4939780000000 1.0
C      1  0.4554630000000  0.5540260000000  0.4662890000000 1.0
C      1  0.4107120000000  0.4785360000000  0.5040100000000 1.0
C      1  0.4443050000000  0.5174900000000  0.5106830000000 1.0
C      1  0.5052000000000  0.4249490000000  0.4496540000000 1.0
C      1  0.4360640000000  0.5261340000000  0.4682390000000 1.0
C      1  0.5298430000000  0.5318760000000  0.5098400000000 1.0
C      1  0.4746130000000  0.5198090000000  0.4606000000000 1.0
C      1  0.4331990000000  0.5509560000000  0.4918360000000 1.0
C      1  0.5733790000000  0.4413820000000  0.4829500000000 1.0
C      1  0.4574500000000  0.5091740000000  0.4232420000000 1.0
C      1  0.5614100000000  0.5804170000000  0.5252920000000 1.0
C      1  0.4800130000000  0.4198300000000  0.5100100000000 1.0
C      1  0.5516450000000  0.4621200000000  0.4702940000000 1.0
C      1  0.4893730000000  0.5581480000000  0.4618300000000 1.0
C      1  0.4973850000000  0.4014110000000  0.5324930000000 1.0
C      1  0.4932260000000  0.5279250000000  0.5830370000000 1.0
C      1  0.6010430000000  0.5078740000000  0.5304410000000 1.0
C      1  0.4631700000000  0.4875440000000  0.4838720000000 1.0
C      1  0.5092670000000  0.4530490000000  0.4672330000000 1.0
C      1  0.4827190000000  0.4391610000000  0.4833260000000 1.0
C      1  0.5023120000000  0.4289730000000  0.5935060000000 1.0
C      1  0.4988460000000  0.4538850000000  0.5183760000000 1.0
C      1  0.4122650000000  0.5181900000000  0.4993820000000 1.0
C      1  0.5412960000000  0.4145470000000  0.4632690000000 1.0
C      1  0.5321000000000  0.5957380000000  0.4553210000000 1.0
C      1  0.4536960000000  0.4994550000000  0.5622860000000 1.0
C      1  0.4825330000000  0.4052810000000  0.4627900000000 1.0
C      1  0.4988330000000  0.5814920000000  0.4846710000000 1.0
C      1  0.5399010000000  0.4658850000000  0.5490170000000 1.0
C      1  0.4045000000000  0.4872670000000  0.5293620000000 1.0
C      1  0.5683590000000  0.5238700000000  0.5027730000000 1.0
C      1  0.4755610000000  0.5656470000000  0.4338060000000 1.0
C      1  0.4204820000000  0.5313340000000  0.5296670000000 1.0
C      1  0.4298820000000  0.4952710000000  0.4814400000000 1.0
C      1  0.4770340000000  0.4591990000000  0.4340060000000 1.0
C      1  0.5949540000000  0.5185690000000  0.5054220000000 1.0
C      1  0.5147200000000  0.5454220000000  0.5655370000000 1.0
C      1  0.5126260000000  0.6042400000000  0.4693800000000 1.0
C      1  0.5013500000000  0.4635100000000  0.4227530000000 1.0
C      1  0.5367060000000  0.4199540000000  0.5245640000000 1.0
C      1  0.5032810000000  0.4311670000000  0.5433090000000 1.0
C      1  0.4803050000000  0.4999060000000  0.4133970000000 1.0
C      1  0.4597230000000  0.5265300000000  0.5774010000000 1.0
C      1  0.5445150000000  0.5441020000000  0.5663670000000 1.0
C      1  0.5087630000000  0.5034960000000  0.5882890000000 1.0
C      1  0.4731590000000  0.5093470000000  0.5267240000000 1.0
C      1  0.5223310000000  0.5571810000000  0.4883720000000 1.0
C      1  0.4406050000000  0.4546000000000  0.4727270000000 1.0
C      1  0.4442600000000  0.5549080000000  0.5237470000000 1.0
C      1  0.4785540000000  0.4859380000000  0.5650230000000 1.0
C      1  0.5062120000000  0.4716050000000  0.5696090000000 1.0
C      1  0.4509020000000  0.4157700000000  0.5174520000000 1.0
C      1  0.4935880000000  0.5791260000000  0.5183070000000 1.0
C      1  0.5167070000000  0.5572170000000  0.5278730000000 1.0
C      1  0.5203250000000  0.4444430000000  0.4294940000000 1.0
C      1  0.4292450000000  0.5017900000000  0.5440370000000 1.0
C      1  0.4363730000000  0.4600810000000  0.5026310000000 1.0
C      1  0.5399290000000  0.5657270000000  0.4604640000000 1.0
C      1  0.5647660000000  0.4766020000000  0.5318730000000 1.0
C      1  0.5058010000000  0.5283040000000  0.4618960000000 1.0
C      1  0.4975810000000  0.5261940000000  0.5433520000000 1.0
C      1  0.4924520000000  0.5446860000000  0.4987850000000 1.0
C      1  0.5422320000000  0.4398170000000  0.4489830000000 1.0
C      1  0.5545490000000  0.5129440000000  0.5600770000000 1.0
C      1  0.5442180000000  0.5111150000000  0.4870670000000 1.0
C      1  0.5650620000000  0.4147140000000  0.4794500000000 1.0
C      1  0.5571600000000  0.5112470000000  0.4390520000000 1.0
C      1  0.4337780000000  0.4338160000000  0.5178700000000 1.0
C      1  0.4980600000000  0.5714780000000  0.5513910000000 1.0
C      1  0.5710630000000  0.5612360000000  0.4497190000000 1.0
C      1  0.5236790000000  0.5182350000000  0.4384200000000 1.0
C      1  0.4488060000000  0.4857760000000  0.5211170000000 1.0
C      1  0.5564230000000  0.5307900000000  0.5311220000000 1.0
C      1  0.5418080000000  0.5789250000000  0.5058230000000 1.0
C      1  0.4922650000000  0.4820690000000  0.5340700000000 1.0
C      1  0.5341180000000  0.4910150000000  0.5704500000000 1.0
C      1  0.4361960000000  0.5043190000000  0.4431450000000 1.0
C      1  0.5466110000000  0.5421160000000  0.4387840000000 1.0
C      1  0.5951530000000  0.5689270000000  0.4493200000000 1.0
C      1  0.4707390000000  0.4626930000000  0.4635850000000 1.0
C      1  0.4940350000000  0.4775460000000  0.4944100000000 1.0
C      1  0.4675810000000  0.5664350000000  0.5045160000000 1.0
C      1  0.4578630000000  0.5373460000000  0.4367530000000 1.0
C      1  0.5131170000000  0.4258580000000  0.5051260000000 1.0
C      1  0.5605590000000  0.5598730000000  0.5442710000000 1.0
C      1  0.4570150000000  0.4253940000000  0.4658390000000 1.0
C      1  0.4582100000000  0.5346160000000  0.5439190000000 1.0
C      1  0.5152400000000  0.5057270000000  0.5257790000000 1.0
C      1  0.5355430000000  0.4368670000000  0.5488520000000 1.0
C      1  0.5201950000000  0.4801310000000  0.4536660000000 1.0
C      1  0.5120070000000  0.5051850000000  0.4860430000000 1.0
C      1  0.5474860000000  0.4932840000000  0.4626180000000 1.0
C      1  0.5096370000000  0.4939190000000  0.4244320000000 1.0
C      1  0.4250840000000  0.4771520000000  0.4530710000000 1.0
C      1  0.5034700000000  0.4433760000000  0.5716250000000 1.0
C      1  0.4759430000000  0.5532880000000  0.5652110000000 1.0
C      1  0.5332140000000  0.4802350000000  0.5194880000000 1.0
END
