TITL C-2848505-4874-53 0.000299706003594146 125000 -927.827646284364 0 0 176 (C1) n - 1
REM
REM in /home/bkarasulu/work/CARBON/AIRSS/Generating-Clusters/AIREBO/with-SteepDescent/Only-C1/SD-CG-opt/Try1-1.4A-POS3A/HFTN-CG
REM
REM
REM
REM
REM
REM ./C.cell (11c1c37f851c82e70ff6c80c92926a4b)
REM
REM compiler GCC version 9.2.1 20190827 (Red Hat 9.2.1-1)
REM options -cpp -mtune=generic -march=x86-64 -g -O0 -fpre-include=/usr/include/finclude/math-vector-fortran.h
REM seed 234860713 1835446308 2071731875 465586710 242035569 -1156960067 -377366389 1521119303 -1590651258 -924248625 -1759896656 -1516061576 -1122949693 284435197 -1749383883 23071134 2078502083 -1926263262 -1609520329 696064012 -1380635306 -1940946415 963049315 -1722570095 -327942939 773110911 1530929927 1558490760 -1097906439 -141033023 -1313789685 -1256287775 999977706
REM
CELL 1.54180   50.00000   50.00000   50.00000   90.00000   90.00000   90.00000
LATT -1
SFAC C  
C      1  0.4895100000000  0.4383510000000  0.4825970000000 1.0
C      1  0.5257130000000  0.5600170000000  0.4291150000000 1.0
C      1  0.4620020000000  0.5746180000000  0.5377250000000 1.0
C      1  0.5094910000000  0.5999410000000  0.5045310000000 1.0
C      1  0.4075240000000  0.5395650000000  0.4341560000000 1.0
C      1  0.5084010000000  0.4726850000000  0.4442320000000 1.0
C      1  0.4967760000000  0.5182190000000  0.4651320000000 1.0
C      1  0.4271710000000  0.4813470000000  0.4783800000000 1.0
C      1  0.4853120000000  0.5041810000000  0.4373770000000 1.0
C      1  0.5981940000000  0.4364980000000  0.5204280000000 1.0
C      1  0.4274180000000  0.5499410000000  0.5415380000000 1.0
C      1  0.4253510000000  0.5375210000000  0.4125710000000 1.0
C      1  0.4298290000000  0.4761860000000  0.5423280000000 1.0
C      1  0.4852290000000  0.4104160000000  0.5015250000000 1.0
C      1  0.5068100000000  0.5675130000000  0.5771170000000 1.0
C      1  0.5671350000000  0.5885620000000  0.5354730000000 1.0
C      1  0.4328080000000  0.4836300000000  0.5707540000000 1.0
C      1  0.4635100000000  0.5502020000000  0.5582810000000 1.0
C      1  0.5675420000000  0.5107750000000  0.4294730000000 1.0
C      1  0.4636170000000  0.5636830000000  0.6076570000000 1.0
C      1  0.4853390000000  0.3709450000000  0.5076380000000 1.0
C      1  0.4224510000000  0.5007000000000  0.5256920000000 1.0
C      1  0.5967950000000  0.5465750000000  0.4977240000000 1.0
C      1  0.4884030000000  0.5760610000000  0.5163300000000 1.0
C      1  0.5541290000000  0.5847930000000  0.4517550000000 1.0
C      1  0.5214620000000  0.4867560000000  0.6175680000000 1.0
C      1  0.5272170000000  0.4632750000000  0.3952670000000 1.0
C      1  0.4296730000000  0.5843420000000  0.4390660000000 1.0
C      1  0.5663440000000  0.5323740000000  0.4994560000000 1.0
C      1  0.5257520000000  0.3905550000000  0.4753910000000 1.0
C      1  0.5727770000000  0.4920030000000  0.4767250000000 1.0
C      1  0.4642950000000  0.4281620000000  0.4260540000000 1.0
C      1  0.5294960000000  0.5593190000000  0.5905560000000 1.0
C      1  0.5484230000000  0.5677130000000  0.4806120000000 1.0
C      1  0.3939330000000  0.4650170000000  0.5124110000000 1.0
C      1  0.4681660000000  0.4748070000000  0.4374740000000 1.0
C      1  0.4108060000000  0.5231390000000  0.5459740000000 1.0
C      1  0.4520910000000  0.5291210000000  0.4146950000000 1.0
C      1  0.4353880000000  0.5492880000000  0.6151500000000 1.0
C      1  0.5212110000000  0.4393350000000  0.4812540000000 1.0
C      1  0.4781560000000  0.4502070000000  0.3859880000000 1.0
C      1  0.4610340000000  0.3880910000000  0.5100630000000 1.0
C      1  0.5750980000000  0.5096510000000  0.5417860000000 1.0
C      1  0.4818010000000  0.5590690000000  0.5843040000000 1.0
C      1  0.5633620000000  0.4423480000000  0.5154520000000 1.0
C      1  0.4120110000000  0.5232800000000  0.4865130000000 1.0
C      1  0.4066480000000  0.4923860000000  0.4997050000000 1.0
C      1  0.5471750000000  0.4556350000000  0.4129090000000 1.0
C      1  0.5051620000000  0.4804540000000  0.4112470000000 1.0
C      1  0.5399040000000  0.5226010000000  0.4012240000000 1.0
C      1  0.6107130000000  0.4826470000000  0.5838040000000 1.0
C      1  0.5572240000000  0.6065940000000  0.4777030000000 1.0
C      1  0.4440470000000  0.5439730000000  0.5187860000000 1.0
C      1  0.4051620000000  0.5669850000000  0.5131020000000 1.0
C      1  0.5259820000000  0.5932140000000  0.4787750000000 1.0
C      1  0.4065280000000  0.5572960000000  0.4830620000000 1.0
C      1  0.5093160000000  0.6125170000000  0.5443570000000 1.0
C      1  0.4167410000000  0.4435630000000  0.5611920000000 1.0
C      1  0.5227850000000  0.5453910000000  0.4815840000000 1.0
C      1  0.5097460000000  0.5053530000000  0.5354650000000 1.0
C      1  0.4791310000000  0.5250290000000  0.4911290000000 1.0
C      1  0.5074070000000  0.5726640000000  0.5447780000000 1.0
C      1  0.5182570000000  0.5113580000000  0.4328520000000 1.0
C      1  0.5832200000000  0.4979280000000  0.5920180000000 1.0
C      1  0.5360310000000  0.4258110000000  0.5389940000000 1.0
C      1  0.4831390000000  0.4772040000000  0.4666380000000 1.0
C      1  0.5279690000000  0.4443770000000  0.5983680000000 1.0
C      1  0.5606060000000  0.5102970000000  0.5980850000000 1.0
C      1  0.4712590000000  0.5960260000000  0.4637450000000 1.0
C      1  0.5663680000000  0.5397640000000  0.5326550000000 1.0
C      1  0.4821830000000  0.5363560000000  0.4031700000000 1.0
C      1  0.4422020000000  0.5052150000000  0.4593800000000 1.0
C      1  0.4538140000000  0.4623210000000  0.5311010000000 1.0
C      1  0.5040910000000  0.4517690000000  0.5238960000000 1.0
C      1  0.4425220000000  0.5536660000000  0.5837610000000 1.0
C      1  0.5493400000000  0.3783690000000  0.4689460000000 1.0
C      1  0.4383420000000  0.4644450000000  0.4370380000000 1.0
C      1  0.5162050000000  0.4163400000000  0.4596200000000 1.0
C      1  0.5648270000000  0.5672570000000  0.4312950000000 1.0
C      1  0.4843430000000  0.5970960000000  0.5500410000000 1.0
C      1  0.4926090000000  0.4689330000000  0.4971720000000 1.0
C      1  0.6005580000000  0.4994470000000  0.4489590000000 1.0
C      1  0.5195580000000  0.4931850000000  0.4684260000000 1.0
C      1  0.4897210000000  0.4234020000000  0.5326430000000 1.0
C      1  0.5357190000000  0.5414240000000  0.5232160000000 1.0
C      1  0.4729470000000  0.5614540000000  0.4254910000000 1.0
C      1  0.4996690000000  0.4522410000000  0.6061720000000 1.0
C      1  0.5921160000000  0.4982340000000  0.5622650000000 1.0
C      1  0.4207330000000  0.5675840000000  0.4597230000000 1.0
C      1  0.5092080000000  0.6068970000000  0.4525460000000 1.0
C      1  0.5506870000000  0.5177270000000  0.4739920000000 1.0
C      1  0.4292320000000  0.5793550000000  0.5299710000000 1.0
C      1  0.4991320000000  0.5013570000000  0.5051400000000 1.0
C      1  0.4818080000000  0.4357070000000  0.4532730000000 1.0
C      1  0.4581470000000  0.5857440000000  0.4372730000000 1.0
C      1  0.4747990000000  0.4419900000000  0.5769410000000 1.0
C      1  0.3959600000000  0.4944320000000  0.4452370000000 1.0
C      1  0.5237960000000  0.4763290000000  0.5854790000000 1.0
C      1  0.5291110000000  0.4729660000000  0.5230410000000 1.0
C      1  0.5305180000000  0.4353120000000  0.5101610000000 1.0
C      1  0.5620780000000  0.5001260000000  0.4005340000000 1.0
C      1  0.4458940000000  0.5249140000000  0.4837820000000 1.0
C      1  0.5270060000000  0.4610630000000  0.5552500000000 1.0
C      1  0.5426370000000  0.5357480000000  0.5927330000000 1.0
C      1  0.5287230000000  0.5174930000000  0.5000960000000 1.0
C      1  0.4382830000000  0.4011790000000  0.5152670000000 1.0
C      1  0.5558450000000  0.4482140000000  0.5551720000000 1.0
C      1  0.5328260000000  0.5077450000000  0.5761070000000 1.0
C      1  0.4883070000000  0.3977790000000  0.4637070000000 1.0
C      1  0.5041490000000  0.4364020000000  0.5605770000000 1.0
C      1  0.5299690000000  0.4242310000000  0.5781640000000 1.0
C      1  0.5071790000000  0.5132600000000  0.4024500000000 1.0
C      1  0.5345780000000  0.5922520000000  0.5384170000000 1.0
C      1  0.4749540000000  0.4000860000000  0.5590540000000 1.0
C      1  0.4006120000000  0.5207210000000  0.4544930000000 1.0
C      1  0.5319960000000  0.4693380000000  0.4892790000000 1.0
C      1  0.4944970000000  0.5553540000000  0.4899660000000 1.0
C      1  0.5119630000000  0.5730820000000  0.4548500000000 1.0
C      1  0.5735090000000  0.3681920000000  0.4643120000000 1.0
C      1  0.3938700000000  0.4424190000000  0.4957580000000 1.0
C      1  0.5507740000000  0.5442250000000  0.4157270000000 1.0
C      1  0.5395970000000  0.5704670000000  0.5133330000000 1.0
C      1  0.4580050000000  0.4237340000000  0.5425740000000 1.0
C      1  0.5679730000000  0.4734850000000  0.4159450000000 1.0
C      1  0.5091640000000  0.5389650000000  0.5405920000000 1.0
C      1  0.4433430000000  0.4298140000000  0.4712290000000 1.0
C      1  0.5081130000000  0.4341780000000  0.4335550000000 1.0
C      1  0.4662000000000  0.5902140000000  0.4947970000000 1.0
C      1  0.5026280000000  0.5619540000000  0.4098310000000 1.0
C      1  0.4457460000000  0.4581640000000  0.4898460000000 1.0
C      1  0.4847960000000  0.4540540000000  0.4179510000000 1.0
C      1  0.5811980000000  0.5600230000000  0.4751820000000 1.0
C      1  0.5610220000000  0.5965290000000  0.5051700000000 1.0
C      1  0.5499740000000  0.4959630000000  0.5140520000000 1.0
C      1  0.5027270000000  0.5225090000000  0.5704380000000 1.0
C      1  0.4500300000000  0.5107670000000  0.5144400000000 1.0
C      1  0.4560890000000  0.5126940000000  0.4363110000000 1.0
C      1  0.4904470000000  0.4722770000000  0.5802960000000 1.0
C      1  0.4424730000000  0.4349180000000  0.5144540000000 1.0
C      1  0.6009960000000  0.4926170000000  0.4960150000000 1.0
C      1  0.5777000000000  0.4762850000000  0.4469780000000 1.0
C      1  0.5755730000000  0.4248550000000  0.5419390000000 1.0
C      1  0.4457150000000  0.5543250000000  0.4715160000000 1.0
C      1  0.5317890000000  0.5358150000000  0.4522160000000 1.0
C      1  0.4576380000000  0.5012260000000  0.5767390000000 1.0
C      1  0.5968500000000  0.3585770000000  0.4572660000000 1.0
C      1  0.5684570000000  0.4723560000000  0.5041700000000 1.0
C      1  0.4747630000000  0.5638580000000  0.4661680000000 1.0
C      1  0.5085390000000  0.3857340000000  0.4959610000000 1.0
C      1  0.4828710000000  0.5363960000000  0.5229110000000 1.0
C      1  0.4036180000000  0.4596790000000  0.5382610000000 1.0
C      1  0.5901550000000  0.5263310000000  0.4412540000000 1.0
C      1  0.4933530000000  0.5455690000000  0.4475770000000 1.0
C      1  0.5998220000000  0.4633870000000  0.5088310000000 1.0
C      1  0.5782210000000  0.5647530000000  0.5441810000000 1.0
C      1  0.4633200000000  0.4082540000000  0.4756010000000 1.0
C      1  0.5924180000000  0.5165340000000  0.5133490000000 1.0
C      1  0.4851060000000  0.4965900000000  0.5572200000000 1.0
C      1  0.4006140000000  0.5357740000000  0.5160160000000 1.0
C      1  0.4657670000000  0.5206280000000  0.5429290000000 1.0
C      1  0.4173310000000  0.4302940000000  0.4916020000000 1.0
C      1  0.5857490000000  0.5534600000000  0.4477440000000 1.0
C      1  0.5420440000000  0.5025620000000  0.5458940000000 1.0
C      1  0.4411800000000  0.4367590000000  0.4417630000000 1.0
C      1  0.4265240000000  0.5144150000000  0.5726010000000 1.0
C      1  0.5447690000000  0.4987130000000  0.4464340000000 1.0
C      1  0.5336410000000  0.4512820000000  0.4394760000000 1.0
C      1  0.5517550000000  0.4610890000000  0.4628520000000 1.0
C      1  0.4774710000000  0.4327470000000  0.6095580000000 1.0
C      1  0.4786100000000  0.4707300000000  0.5360720000000 1.0
C      1  0.5990540000000  0.5633100000000  0.5619160000000 1.0
C      1  0.4632410000000  0.4859040000000  0.4947510000000 1.0
C      1  0.4166870000000  0.4762690000000  0.4496810000000 1.0
C      1  0.4545680000000  0.5619900000000  0.5005460000000 1.0
C      1  0.4433930000000  0.4400770000000  0.5651670000000 1.0
C      1  0.5521490000000  0.4099250000000  0.5623200000000 1.0
END
