TITL C-2848506-1665-188 0.000438373860628685 125000 -916.70721853265 0 0 164 (C1) n - 1
REM
REM in /home/bkarasulu/work/CARBON/AIRSS/Generating-Clusters/AIREBO/with-SteepDescent/Only-C1/SD-CG-opt/Try1-1.4A-POS3A/HFTN-CG
REM
REM
REM
REM
REM
REM ./C.cell (11c1c37f851c82e70ff6c80c92926a4b)
REM
REM compiler GCC version 9.2.1 20190827 (Red Hat 9.2.1-1)
REM options -cpp -mtune=generic -march=x86-64 -g -O0 -fpre-include=/usr/include/finclude/math-vector-fortran.h
REM seed -897777077 -370122557 116377862 -1360848864 1647016574 -1823549829 -2030486971 -1459945003 -707873852 1729445298 -2138813285 -1899971573 119175946 1383792323 -1319331141 501041278 456283210 -2051339605 1229030183 1199147961 -170322475 1626605892 -1396948056 786054283 641613111 -1014219263 1982993595 -1171106942 2027994944 -913213188 621297147 1588474555 -1855887470
REM
CELL 1.54180   50.00000   50.00000   50.00000   90.00000   90.00000   90.00000
LATT -1
SFAC C  
C      1  0.5530590000000  0.5258480000000  0.4286120000000 1.0
C      1  0.4506450000000  0.5860690000000  0.5093280000000 1.0
C      1  0.4612020000000  0.5042880000000  0.5878920000000 1.0
C      1  0.4552060000000  0.5338470000000  0.5354640000000 1.0
C      1  0.4851210000000  0.4816940000000  0.5965830000000 1.0
C      1  0.4336120000000  0.4905570000000  0.4478940000000 1.0
C      1  0.4298470000000  0.5593230000000  0.5083260000000 1.0
C      1  0.4428360000000  0.4879580000000  0.3987670000000 1.0
C      1  0.4178210000000  0.5077830000000  0.4661270000000 1.0
C      1  0.4473670000000  0.4591930000000  0.4117650000000 1.0
C      1  0.5096640000000  0.5290040000000  0.5059400000000 1.0
C      1  0.5598160000000  0.4959280000000  0.4138660000000 1.0
C      1  0.4533090000000  0.5317270000000  0.5693520000000 1.0
C      1  0.5011440000000  0.5793660000000  0.5663710000000 1.0
C      1  0.4916670000000  0.4330830000000  0.6095390000000 1.0
C      1  0.4387240000000  0.5116420000000  0.4872830000000 1.0
C      1  0.4504030000000  0.4072960000000  0.4487500000000 1.0
C      1  0.5501980000000  0.4550530000000  0.5293270000000 1.0
C      1  0.5247980000000  0.5736810000000  0.5803290000000 1.0
C      1  0.4693890000000  0.5680760000000  0.5657330000000 1.0
C      1  0.5220510000000  0.5603890000000  0.4703750000000 1.0
C      1  0.5749920000000  0.4851710000000  0.4999250000000 1.0
C      1  0.4486700000000  0.4947300000000  0.5391860000000 1.0
C      1  0.4968310000000  0.4148240000000  0.5159500000000 1.0
C      1  0.5467140000000  0.5597480000000  0.5656450000000 1.0
C      1  0.4750890000000  0.5586370000000  0.5274290000000 1.0
C      1  0.5683920000000  0.4890840000000  0.6006080000000 1.0
C      1  0.6006260000000  0.5436660000000  0.4837030000000 1.0
C      1  0.4006040000000  0.4635950000000  0.4855100000000 1.0
C      1  0.4487670000000  0.5521120000000  0.4194910000000 1.0
C      1  0.5179410000000  0.6027810000000  0.4717220000000 1.0
C      1  0.4486860000000  0.5729620000000  0.5406440000000 1.0
C      1  0.5182990000000  0.4502290000000  0.5722730000000 1.0
C      1  0.3886930000000  0.5186470000000  0.4912420000000 1.0
C      1  0.5474990000000  0.4031110000000  0.5164870000000 1.0
C      1  0.4391830000000  0.4206160000000  0.4775890000000 1.0
C      1  0.5407370000000  0.5175160000000  0.5135950000000 1.0
C      1  0.5803490000000  0.4532730000000  0.4622230000000 1.0
C      1  0.4515190000000  0.5413220000000  0.4895120000000 1.0
C      1  0.5910500000000  0.5512040000000  0.4552710000000 1.0
C      1  0.4224290000000  0.5366020000000  0.4262230000000 1.0
C      1  0.4780640000000  0.5222580000000  0.4188760000000 1.0
C      1  0.4992470000000  0.5360460000000  0.5943260000000 1.0
C      1  0.5456710000000  0.5312210000000  0.5936180000000 1.0
C      1  0.4675870000000  0.4911070000000  0.4489130000000 1.0
C      1  0.5594960000000  0.5575960000000  0.4566120000000 1.0
C      1  0.3955550000000  0.4848690000000  0.4157460000000 1.0
C      1  0.4733400000000  0.4602240000000  0.5175340000000 1.0
C      1  0.4819200000000  0.4898800000000  0.5032380000000 1.0
C      1  0.4385300000000  0.4525110000000  0.5589950000000 1.0
C      1  0.4193460000000  0.4980500000000  0.5532800000000 1.0
C      1  0.5693680000000  0.5518260000000  0.4887420000000 1.0
C      1  0.4257220000000  0.5226590000000  0.5227090000000 1.0
C      1  0.4270570000000  0.4921300000000  0.5130680000000 1.0
C      1  0.5119820000000  0.5588520000000  0.4192370000000 1.0
C      1  0.5387040000000  0.4659310000000  0.4703950000000 1.0
C      1  0.4653110000000  0.4897160000000  0.3771290000000 1.0
C      1  0.5458370000000  0.4929600000000  0.4905920000000 1.0
C      1  0.4924990000000  0.4844490000000  0.4710910000000 1.0
C      1  0.4486470000000  0.4267460000000  0.4218560000000 1.0
C      1  0.4875710000000  0.4816120000000  0.3917230000000 1.0
C      1  0.5001390000000  0.5389220000000  0.4051420000000 1.0
C      1  0.4647220000000  0.4581250000000  0.4404940000000 1.0
C      1  0.4620220000000  0.5101980000000  0.5120050000000 1.0
C      1  0.5307890000000  0.5630260000000  0.5241410000000 1.0
C      1  0.5844730000000  0.5252950000000  0.5668220000000 1.0
C      1  0.4484970000000  0.4627510000000  0.4947500000000 1.0
C      1  0.5428010000000  0.5130380000000  0.5657400000000 1.0
C      1  0.5821230000000  0.5391380000000  0.4293360000000 1.0
C      1  0.5297420000000  0.4794060000000  0.5173030000000 1.0
C      1  0.5693450000000  0.5452700000000  0.5514000000000 1.0
C      1  0.5006900000000  0.5740160000000  0.5355170000000 1.0
C      1  0.5038870000000  0.4775420000000  0.4396210000000 1.0
C      1  0.4730710000000  0.4394030000000  0.4015760000000 1.0
C      1  0.5982690000000  0.4574690000000  0.5169200000000 1.0
C      1  0.5377740000000  0.6317310000000  0.5195840000000 1.0
C      1  0.4986490000000  0.4052970000000  0.4873210000000 1.0
C      1  0.5629880000000  0.4682150000000  0.5777120000000 1.0
C      1  0.4358560000000  0.5668640000000  0.6098100000000 1.0
C      1  0.5254790000000  0.5308330000000  0.4791710000000 1.0
C      1  0.4280510000000  0.4271600000000  0.5077150000000 1.0
C      1  0.5244880000000  0.4544170000000  0.3940230000000 1.0
C      1  0.5850610000000  0.4845450000000  0.4195750000000 1.0
C      1  0.5352370000000  0.4758350000000  0.4380390000000 1.0
C      1  0.4422000000000  0.4074570000000  0.5533040000000 1.0
C      1  0.4981760000000  0.4558120000000  0.4845430000000 1.0
C      1  0.3946330000000  0.4904750000000  0.4797840000000 1.0
C      1  0.4469290000000  0.5190800000000  0.4108260000000 1.0
C      1  0.5600520000000  0.5072570000000  0.5370080000000 1.0
C      1  0.4453880000000  0.4278710000000  0.5731130000000 1.0
C      1  0.5399350000000  0.4741470000000  0.4072290000000 1.0
C      1  0.5145520000000  0.4464360000000  0.6039760000000 1.0
C      1  0.5329400000000  0.5512920000000  0.4394360000000 1.0
C      1  0.5928710000000  0.4626280000000  0.4338850000000 1.0
C      1  0.5457160000000  0.5027270000000  0.4519020000000 1.0
C      1  0.5678440000000  0.4215330000000  0.5044420000000 1.0
C      1  0.4829870000000  0.4358980000000  0.4479330000000 1.0
C      1  0.4681830000000  0.4319520000000  0.5897490000000 1.0
C      1  0.5892580000000  0.5066810000000  0.5195830000000 1.0
C      1  0.5497110000000  0.4187090000000  0.4500090000000 1.0
C      1  0.4711110000000  0.4907750000000  0.5603710000000 1.0
C      1  0.5245180000000  0.5811960000000  0.4971700000000 1.0
C      1  0.5244220000000  0.4265660000000  0.5553080000000 1.0
C      1  0.4710200000000  0.5476210000000  0.4634680000000 1.0
C      1  0.5594340000000  0.5451300000000  0.5199080000000 1.0
C      1  0.5414400000000  0.4673740000000  0.6027870000000 1.0
C      1  0.4193650000000  0.4597740000000  0.5120030000000 1.0
C      1  0.4725020000000  0.4267140000000  0.5214250000000 1.0
C      1  0.6010940000000  0.5086040000000  0.5514740000000 1.0
C      1  0.5282390000000  0.4263260000000  0.4385990000000 1.0
C      1  0.5292250000000  0.4196110000000  0.4930370000000 1.0
C      1  0.4826200000000  0.5215230000000  0.4512060000000 1.0
C      1  0.4434060000000  0.4638490000000  0.4652670000000 1.0
C      1  0.4081110000000  0.5306190000000  0.4477480000000 1.0
C      1  0.5758910000000  0.4411350000000  0.5230430000000 1.0
C      1  0.4490320000000  0.5586860000000  0.5896260000000 1.0
C      1  0.5045760000000  0.5222260000000  0.5449970000000 1.0
C      1  0.4770030000000  0.5929240000000  0.4955610000000 1.0
C      1  0.4914930000000  0.5668270000000  0.4797790000000 1.0
C      1  0.5134430000000  0.5103530000000  0.4602400000000 1.0
C      1  0.5054510000000  0.5000500000000  0.5192020000000 1.0
C      1  0.5527200000000  0.4777360000000  0.5499290000000 1.0
C      1  0.4957710000000  0.4543140000000  0.3927020000000 1.0
C      1  0.4865670000000  0.5387480000000  0.5667450000000 1.0
C      1  0.4190190000000  0.4673640000000  0.5451860000000 1.0
C      1  0.4668300000000  0.4613170000000  0.5509010000000 1.0
C      1  0.4902580000000  0.6053030000000  0.4690660000000 1.0
C      1  0.4217880000000  0.5548750000000  0.5411350000000 1.0
C      1  0.4804720000000  0.4066530000000  0.4351040000000 1.0
C      1  0.4859060000000  0.4573640000000  0.5782900000000 1.0
C      1  0.5498260000000  0.5992010000000  0.4833260000000 1.0
C      1  0.5217210000000  0.6116270000000  0.5121230000000 1.0
C      1  0.4205480000000  0.5273970000000  0.5613360000000 1.0
C      1  0.4995660000000  0.4952060000000  0.5579970000000 1.0
C      1  0.5729090000000  0.5855230000000  0.4858480000000 1.0
C      1  0.5559830000000  0.5226670000000  0.4774570000000 1.0
C      1  0.4953410000000  0.5121200000000  0.6071370000000 1.0
C      1  0.5927950000000  0.4653040000000  0.4884560000000 1.0
C      1  0.4784040000000  0.5970090000000  0.4456770000000 1.0
C      1  0.4871260000000  0.4925240000000  0.4192750000000 1.0
C      1  0.4117980000000  0.4402950000000  0.4716040000000 1.0
C      1  0.5384360000000  0.4034120000000  0.5434100000000 1.0
C      1  0.5240870000000  0.5486730000000  0.5967090000000 1.0
C      1  0.5305050000000  0.5378190000000  0.5462610000000 1.0
C      1  0.5256340000000  0.4833320000000  0.5697090000000 1.0
C      1  0.5121290000000  0.4488700000000  0.4559290000000 1.0
C      1  0.4960390000000  0.5990210000000  0.5187440000000 1.0
C      1  0.6032740000000  0.5172410000000  0.4910420000000 1.0
C      1  0.5065060000000  0.4587360000000  0.5130490000000 1.0
C      1  0.5236390000000  0.4344700000000  0.5231200000000 1.0
C      1  0.4291910000000  0.4407640000000  0.4447480000000 1.0
C      1  0.5722530000000  0.5162530000000  0.5922770000000 1.0
C      1  0.4656340000000  0.5663510000000  0.4388360000000 1.0
C      1  0.4944740000000  0.5784080000000  0.4264190000000 1.0
C      1  0.4833140000000  0.5442810000000  0.5013440000000 1.0
C      1  0.5178020000000  0.4891820000000  0.6022790000000 1.0
C      1  0.4730830000000  0.4163250000000  0.4730250000000 1.0
C      1  0.5746880000000  0.4867290000000  0.4599900000000 1.0
C      1  0.4052010000000  0.5363150000000  0.5038690000000 1.0
C      1  0.5546410000000  0.4366030000000  0.4769700000000 1.0
C      1  0.4465750000000  0.4167360000000  0.5267140000000 1.0
C      1  0.4207860000000  0.4890090000000  0.4210380000000 1.0
C      1  0.6050400000000  0.4799840000000  0.5335340000000 1.0
C      1  0.5963920000000  0.5003280000000  0.4695050000000 1.0
END
