TITL C-2848496-4490-268 -0.00561187468878751 125000 -511.890924537834 0 0 93 (C1) n - 1
REM
REM in /home/bkarasulu/work/CARBON/AIRSS/Generating-Clusters/AIREBO/with-SteepDescent/Only-C1/SD-CG-opt/Try1-1.4A-POS3A/HFTN-CG
REM
REM
REM
REM
REM
REM ./C.cell (11c1c37f851c82e70ff6c80c92926a4b)
REM
REM compiler GCC version 9.2.1 20190827 (Red Hat 9.2.1-1)
REM options -cpp -mtune=generic -march=x86-64 -g -O0 -fpre-include=/usr/include/finclude/math-vector-fortran.h
REM seed -381243644 -1315255075 684133691 -1688800287 2140507562 -1841467842 -1025105049 404016730 1829324678 2098222152 1799579299 -1128263629 -1352710752 1143309515 -821441734 -1757955221 160209219 -1194360678 -581373538 -876020835 204581685 1968680070 -1488756903 -952285627 756184857 -1400405639 824239531 -524851289 -1029019622 1554563545 -1421787874 362049104 -1399216444
REM
CELL 1.54180   50.00000   50.00000   50.00000   90.00000   90.00000   90.00000
LATT -1
SFAC C  
C      1  0.5663510000000  0.4562270000000  0.4527310000000 1.0
C      1  0.5440600000000  0.4795140000000  0.4503520000000 1.0
C      1  0.4559250000000  0.5335370000000  0.4577860000000 1.0
C      1  0.5798120000000  0.5002080000000  0.5507820000000 1.0
C      1  0.4870400000000  0.5217960000000  0.5707050000000 1.0
C      1  0.5483640000000  0.5553300000000  0.4497210000000 1.0
C      1  0.4696150000000  0.4516330000000  0.5235410000000 1.0
C      1  0.6182080000000  0.5226180000000  0.5283980000000 1.0
C      1  0.4767010000000  0.4908690000000  0.5308990000000 1.0
C      1  0.4431940000000  0.5362970000000  0.5462450000000 1.0
C      1  0.4590340000000  0.5318270000000  0.4918070000000 1.0
C      1  0.6045700000000  0.4071310000000  0.4924710000000 1.0
C      1  0.4374870000000  0.4556610000000  0.5235440000000 1.0
C      1  0.5268180000000  0.4630400000000  0.4744900000000 1.0
C      1  0.4926790000000  0.5198630000000  0.4243390000000 1.0
C      1  0.4255790000000  0.4848190000000  0.5321340000000 1.0
C      1  0.4889200000000  0.5864190000000  0.4857790000000 1.0
C      1  0.4127600000000  0.4949460000000  0.5059230000000 1.0
C      1  0.4662870000000  0.5014920000000  0.5025340000000 1.0
C      1  0.4992810000000  0.4167270000000  0.4655200000000 1.0
C      1  0.4689110000000  0.4550660000000  0.5631520000000 1.0
C      1  0.4912740000000  0.3814250000000  0.5361370000000 1.0
C      1  0.4887340000000  0.5680690000000  0.4385810000000 1.0
C      1  0.4447600000000  0.4479570000000  0.4925660000000 1.0
C      1  0.4247930000000  0.5262150000000  0.4677440000000 1.0
C      1  0.5230360000000  0.5552680000000  0.4645480000000 1.0
C      1  0.4072760000000  0.5200560000000  0.4963820000000 1.0
C      1  0.4943870000000  0.4539430000000  0.4792880000000 1.0
C      1  0.5197800000000  0.5581820000000  0.4972470000000 1.0
C      1  0.5051160000000  0.5835830000000  0.4618530000000 1.0
C      1  0.5883200000000  0.4264660000000  0.4854730000000 1.0
C      1  0.5517690000000  0.4842160000000  0.5101460000000 1.0
C      1  0.5725530000000  0.5268400000000  0.5111150000000 1.0
C      1  0.5292420000000  0.4993000000000  0.5267330000000 1.0
C      1  0.5001990000000  0.4772390000000  0.5484220000000 1.0
C      1  0.5632010000000  0.5967780000000  0.5109480000000 1.0
C      1  0.4692960000000  0.4041110000000  0.4669160000000 1.0
C      1  0.4753400000000  0.5401650000000  0.4304100000000 1.0
C      1  0.4951590000000  0.5490230000000  0.5568350000000 1.0
C      1  0.5523470000000  0.5738030000000  0.5143700000000 1.0
C      1  0.5007170000000  0.4409440000000  0.5645980000000 1.0
C      1  0.4689790000000  0.4327080000000  0.4856040000000 1.0
C      1  0.5063260000000  0.4989830000000  0.5728510000000 1.0
C      1  0.4542480000000  0.4802980000000  0.5499730000000 1.0
C      1  0.4909880000000  0.5739170000000  0.5357810000000 1.0
C      1  0.4443150000000  0.5896690000000  0.4611980000000 1.0
C      1  0.4876590000000  0.5268970000000  0.5098850000000 1.0
C      1  0.5152130000000  0.4504590000000  0.5354420000000 1.0
C      1  0.4598620000000  0.5115660000000  0.5621540000000 1.0
C      1  0.4332030000000  0.5024050000000  0.4477440000000 1.0
C      1  0.5601530000000  0.5071250000000  0.4926310000000 1.0
C      1  0.5633490000000  0.5281390000000  0.4449850000000 1.0
C      1  0.4835340000000  0.5508710000000  0.4674520000000 1.0
C      1  0.5919250000000  0.5170010000000  0.5292150000000 1.0
C      1  0.5037910000000  0.4923370000000  0.5118430000000 1.0
C      1  0.4302170000000  0.4549280000000  0.4464390000000 1.0
C      1  0.4880880000000  0.4063600000000  0.5252130000000 1.0
C      1  0.5322790000000  0.5011670000000  0.5564490000000 1.0
C      1  0.5009170000000  0.4424270000000  0.4485560000000 1.0
C      1  0.4230470000000  0.4802600000000  0.4850770000000 1.0
C      1  0.4785880000000  0.4293040000000  0.5431690000000 1.0
C      1  0.5496950000000  0.5443100000000  0.5228680000000 1.0
C      1  0.4938290000000  0.4694430000000  0.5818120000000 1.0
C      1  0.4457510000000  0.4784710000000  0.4471540000000 1.0
C      1  0.5020400000000  0.4657720000000  0.4336940000000 1.0
C      1  0.5481020000000  0.4547570000000  0.4958770000000 1.0
C      1  0.5696630000000  0.4447000000000  0.4773990000000 1.0
C      1  0.5021900000000  0.5764190000000  0.5092940000000 1.0
C      1  0.4917030000000  0.4121620000000  0.4983590000000 1.0
C      1  0.5537750000000  0.5416810000000  0.5541300000000 1.0
C      1  0.4757100000000  0.4763410000000  0.4617840000000 1.0
C      1  0.5170100000000  0.5061460000000  0.4134540000000 1.0
C      1  0.5768450000000  0.5549670000000  0.4337220000000 1.0
C      1  0.4956490000000  0.4624450000000  0.5102060000000 1.0
C      1  0.5218390000000  0.5286340000000  0.5112180000000 1.0
C      1  0.5625760000000  0.4744700000000  0.5396420000000 1.0
C      1  0.5532590000000  0.5060180000000  0.4609160000000 1.0
C      1  0.5300540000000  0.5182380000000  0.4802150000000 1.0
C      1  0.5557810000000  0.5147220000000  0.5626600000000 1.0
C      1  0.4553210000000  0.4795810000000  0.4858820000000 1.0
C      1  0.5441220000000  0.4499520000000  0.5279750000000 1.0
C      1  0.4235020000000  0.4430620000000  0.4704010000000 1.0
C      1  0.4750530000000  0.5373850000000  0.5359930000000 1.0
C      1  0.5907070000000  0.4668500000000  0.5615950000000 1.0
C      1  0.4428230000000  0.5579910000000  0.5009260000000 1.0
C      1  0.4631660000000  0.5814030000000  0.5379600000000 1.0
C      1  0.4448900000000  0.5628460000000  0.5298470000000 1.0
C      1  0.4945080000000  0.4970700000000  0.4472360000000 1.0
C      1  0.4159670000000  0.5497780000000  0.4889530000000 1.0
C      1  0.5253350000000  0.4823330000000  0.4266310000000 1.0
C      1  0.5057500000000  0.5257420000000  0.4617270000000 1.0
C      1  0.4266890000000  0.5079500000000  0.5551980000000 1.0
C      1  0.4611200000000  0.5729390000000  0.4804490000000 1.0
END
