TITL C-2848501-3133-309 -0.00221940363951453 125000 -109.6233071873 0 0 20 (C1) n - 1
REM
REM in /home/bkarasulu/work/CARBON/AIRSS/Generating-Clusters/AIREBO/with-SteepDescent/Only-C1/SD-CG-opt/Try1-1.4A-POS3A/HFTN-CG
REM
REM
REM
REM
REM
REM ./C.cell (11c1c37f851c82e70ff6c80c92926a4b)
REM
REM compiler GCC version 9.2.1 20190827 (Red Hat 9.2.1-1)
REM options -cpp -mtune=generic -march=x86-64 -g -O0 -fpre-include=/usr/include/finclude/math-vector-fortran.h
REM seed -667094026 -883571417 -787339676 1648859269 840579031 -1346527772 -1135243585 680617314 -788667197 2083961591 -1587543636 1276072727 -1905525212 -1597064995 1644032138 1054364971 -815707871 1684045946 1814273616 -1208133987 -583278495 366987404 -1919815340 1475957933 -514281415 -1376421639 -554805469 602559245 -1836432889 -1728553772 -1184432351 1817342523 1879219668
REM
CELL 1.54180   50.00000   50.00000   50.00000   90.00000   90.00000   90.00000
LATT -1
SFAC C  
C      1  0.4690820000000  0.4903160000000  0.4653460000000 1.0
C      1  0.4916600000000  0.4889040000000  0.5412330000000 1.0
C      1  0.4871880000000  0.5441870000000  0.5179930000000 1.0
C      1  0.4624710000000  0.4725900000000  0.4848880000000 1.0
C      1  0.5243380000000  0.4899910000000  0.4856630000000 1.0
C      1  0.5373350000000  0.5058270000000  0.4609030000000 1.0
C      1  0.4658140000000  0.5382350000000  0.4715350000000 1.0
C      1  0.4721300000000  0.4603450000000  0.5071460000000 1.0
C      1  0.4809450000000  0.5156210000000  0.4643010000000 1.0
C      1  0.5580070000000  0.5094530000000  0.4445880000000 1.0
C      1  0.4923900000000  0.5657120000000  0.5345220000000 1.0
C      1  0.5094280000000  0.5170340000000  0.4729980000000 1.0
C      1  0.5180540000000  0.4541750000000  0.5192620000000 1.0
C      1  0.4943810000000  0.5124230000000  0.5277840000000 1.0
C      1  0.4930100000000  0.4646330000000  0.5256190000000 1.0
C      1  0.5349030000000  0.4686460000000  0.4966380000000 1.0
C      1  0.5473370000000  0.4423240000000  0.5111020000000 1.0
C      1  0.4876050000000  0.4874710000000  0.5678680000000 1.0
C      1  0.5100470000000  0.5251850000000  0.5030950000000 1.0
C      1  0.4638750000000  0.5469260000000  0.4975140000000 1.0
END
