TITL C-2848497-6229-358 -0.00780814770689843 125000 -759.526037240352 0 0 138 (C1) n - 1
REM
REM in /home/bkarasulu/work/CARBON/AIRSS/Generating-Clusters/AIREBO/with-SteepDescent/Only-C1/SD-CG-opt/Try1-1.4A-POS3A/HFTN-CG
REM
REM
REM
REM
REM
REM ./C.cell (11c1c37f851c82e70ff6c80c92926a4b)
REM
REM compiler GCC version 9.2.1 20190827 (Red Hat 9.2.1-1)
REM options -cpp -mtune=generic -march=x86-64 -g -O0 -fpre-include=/usr/include/finclude/math-vector-fortran.h
REM seed 87038995 1907283740 -511091249 -800520445 -1933074399 333530597 -1346557617 351179782 669865560 -1724279744 1659814376 -694484286 -630377821 -809607434 -1117755232 1626893583 -1837222001 555675238 -337806277 1573397360 673299980 1870018352 -2067791100 -1017381429 917049406 -1115965902 914409667 1153859847 816708369 -1995349214 1040078417 -88013677 -1116201688
REM
CELL 1.54180   50.00000   50.00000   50.00000   90.00000   90.00000   90.00000
LATT -1
SFAC C  
C      1  0.5019660000000  0.4938420000000  0.4038310000000 1.0
C      1  0.4949180000000  0.4020700000000  0.5209140000000 1.0
C      1  0.5981130000000  0.5276940000000  0.5385390000000 1.0
C      1  0.4247670000000  0.5221450000000  0.4240450000000 1.0
C      1  0.5943800000000  0.4983860000000  0.5556590000000 1.0
C      1  0.4802540000000  0.4874490000000  0.5901170000000 1.0
C      1  0.5440680000000  0.5038100000000  0.5451630000000 1.0
C      1  0.3976580000000  0.4798140000000  0.5035230000000 1.0
C      1  0.4573290000000  0.5434980000000  0.5810430000000 1.0
C      1  0.4273680000000  0.4316810000000  0.4632050000000 1.0
C      1  0.5981160000000  0.5252290000000  0.5088830000000 1.0
C      1  0.4709750000000  0.4189710000000  0.4204160000000 1.0
C      1  0.4274280000000  0.5372640000000  0.5208830000000 1.0
C      1  0.4937170000000  0.5561310000000  0.4380920000000 1.0
C      1  0.3892250000000  0.5044290000000  0.5187790000000 1.0
C      1  0.4364710000000  0.5218140000000  0.4651640000000 1.0
C      1  0.4614880000000  0.5090250000000  0.5059840000000 1.0
C      1  0.5252600000000  0.5484870000000  0.5422480000000 1.0
C      1  0.4798510000000  0.4047890000000  0.4425720000000 1.0
C      1  0.5996230000000  0.5008630000000  0.4945670000000 1.0
C      1  0.4918010000000  0.4248020000000  0.5407770000000 1.0
C      1  0.5454170000000  0.4113810000000  0.4484680000000 1.0
C      1  0.5488470000000  0.5940650000000  0.5063810000000 1.0
C      1  0.4017510000000  0.5132650000000  0.4822000000000 1.0
C      1  0.5051510000000  0.4042370000000  0.4886280000000 1.0
C      1  0.4458620000000  0.5775210000000  0.4945580000000 1.0
C      1  0.4886620000000  0.5431260000000  0.4691030000000 1.0
C      1  0.5537040000000  0.4986230000000  0.4527170000000 1.0
C      1  0.4865940000000  0.5274640000000  0.5745110000000 1.0
C      1  0.5845570000000  0.5542450000000  0.5536250000000 1.0
C      1  0.4608340000000  0.5904490000000  0.5141710000000 1.0
C      1  0.5003380000000  0.4568640000000  0.4729380000000 1.0
C      1  0.4513610000000  0.4599080000000  0.4196270000000 1.0
C      1  0.4693460000000  0.4347340000000  0.5640590000000 1.0
C      1  0.4619770000000  0.5362930000000  0.4516780000000 1.0
C      1  0.4275290000000  0.5107590000000  0.5025180000000 1.0
C      1  0.4559970000000  0.4282650000000  0.5085940000000 1.0
C      1  0.5177950000000  0.4375250000000  0.5471340000000 1.0
C      1  0.5199340000000  0.5211820000000  0.4865530000000 1.0
C      1  0.5279230000000  0.4778730000000  0.4495140000000 1.0
C      1  0.4846230000000  0.5694970000000  0.4898710000000 1.0
C      1  0.5490710000000  0.4625260000000  0.4689600000000 1.0
C      1  0.5651950000000  0.5471850000000  0.5806700000000 1.0
C      1  0.5507730000000  0.5410250000000  0.5023760000000 1.0
C      1  0.5097130000000  0.5207610000000  0.5546290000000 1.0
C      1  0.5319000000000  0.4665510000000  0.5387810000000 1.0
C      1  0.5891010000000  0.4449510000000  0.5236380000000 1.0
C      1  0.5103690000000  0.5596250000000  0.5707230000000 1.0
C      1  0.4123300000000  0.5052620000000  0.4508890000000 1.0
C      1  0.5182620000000  0.4875090000000  0.5080500000000 1.0
C      1  0.4365280000000  0.4627330000000  0.4699160000000 1.0
C      1  0.4930990000000  0.4669630000000  0.5028100000000 1.0
C      1  0.4724420000000  0.4047390000000  0.4982090000000 1.0
C      1  0.4630530000000  0.5168270000000  0.5523950000000 1.0
C      1  0.4768030000000  0.5543530000000  0.5178420000000 1.0
C      1  0.4784440000000  0.4795620000000  0.4190760000000 1.0
C      1  0.4197440000000  0.5474190000000  0.4730910000000 1.0
C      1  0.5311020000000  0.5200610000000  0.4090590000000 1.0
C      1  0.4274360000000  0.4317350000000  0.4929740000000 1.0
C      1  0.5205240000000  0.5863210000000  0.4936390000000 1.0
C      1  0.4063580000000  0.5182460000000  0.5355950000000 1.0
C      1  0.5029420000000  0.5380370000000  0.5194010000000 1.0
C      1  0.5683060000000  0.5190640000000  0.5524360000000 1.0
C      1  0.5523870000000  0.5188340000000  0.4766610000000 1.0
C      1  0.5351640000000  0.4424760000000  0.5183870000000 1.0
C      1  0.5856700000000  0.4990520000000  0.4644240000000 1.0
C      1  0.4326840000000  0.5202710000000  0.5778990000000 1.0
C      1  0.5317570000000  0.4860240000000  0.4105910000000 1.0
C      1  0.5590350000000  0.5115270000000  0.4234590000000 1.0
C      1  0.4771510000000  0.4469860000000  0.5223750000000 1.0
C      1  0.4736470000000  0.5073670000000  0.4381010000000 1.0
C      1  0.5672840000000  0.4799650000000  0.4853480000000 1.0
C      1  0.5059170000000  0.4627070000000  0.4299260000000 1.0
C      1  0.5502340000000  0.4620650000000  0.5739240000000 1.0
C      1  0.5516090000000  0.4918890000000  0.5761180000000 1.0
C      1  0.5131670000000  0.5054850000000  0.4576690000000 1.0
C      1  0.5819660000000  0.5470730000000  0.4481950000000 1.0
C      1  0.4890740000000  0.4252210000000  0.4672390000000 1.0
C      1  0.5820110000000  0.5440460000000  0.4979700000000 1.0
C      1  0.4192660000000  0.4761860000000  0.5556070000000 1.0
C      1  0.5656000000000  0.4475010000000  0.5482410000000 1.0
C      1  0.5345410000000  0.5393690000000  0.5836030000000 1.0
C      1  0.5884140000000  0.5223110000000  0.5796610000000 1.0
C      1  0.5254860000000  0.5858780000000  0.5560630000000 1.0
C      1  0.4304660000000  0.4444140000000  0.4349030000000 1.0
C      1  0.4692750000000  0.4683790000000  0.5435940000000 1.0
C      1  0.4802450000000  0.5401870000000  0.4163110000000 1.0
C      1  0.4859280000000  0.4853760000000  0.4609640000000 1.0
C      1  0.4696270000000  0.5761420000000  0.5426500000000 1.0
C      1  0.4206260000000  0.5675790000000  0.4513350000000 1.0
C      1  0.5745660000000  0.4786720000000  0.5382140000000 1.0
C      1  0.4603490000000  0.4651260000000  0.4513850000000 1.0
C      1  0.5900300000000  0.4731800000000  0.5088390000000 1.0
C      1  0.5573010000000  0.4022000000000  0.5016260000000 1.0
C      1  0.4771780000000  0.5651850000000  0.5674490000000 1.0
C      1  0.5254660000000  0.5319630000000  0.4400830000000 1.0
C      1  0.5241680000000  0.5654530000000  0.4342860000000 1.0
C      1  0.5371460000000  0.4005680000000  0.4799820000000 1.0
C      1  0.5268730000000  0.4297990000000  0.4686700000000 1.0
C      1  0.4814090000000  0.5803720000000  0.4573940000000 1.0
C      1  0.5144190000000  0.5777200000000  0.4644860000000 1.0
C      1  0.5283120000000  0.4516920000000  0.4915610000000 1.0
C      1  0.5361810000000  0.5644900000000  0.5142950000000 1.0
C      1  0.5613220000000  0.4262760000000  0.5219970000000 1.0
C      1  0.4575140000000  0.5016780000000  0.5824100000000 1.0
C      1  0.4706960000000  0.4954090000000  0.5324280000000 1.0
C      1  0.4251360000000  0.5579300000000  0.4985050000000 1.0
C      1  0.4618350000000  0.4718650000000  0.4907260000000 1.0
C      1  0.4491920000000  0.5358310000000  0.4203490000000 1.0
C      1  0.5357960000000  0.5154760000000  0.5162190000000 1.0
C      1  0.5507600000000  0.4789940000000  0.5136830000000 1.0
C      1  0.5280850000000  0.5494830000000  0.4695600000000 1.0
C      1  0.4527260000000  0.5671870000000  0.4625450000000 1.0
C      1  0.4157440000000  0.4630930000000  0.5249810000000 1.0
C      1  0.4420200000000  0.4511240000000  0.5521120000000 1.0
C      1  0.4869350000000  0.5238360000000  0.4942300000000 1.0
C      1  0.4990580000000  0.5052420000000  0.5271070000000 1.0
C      1  0.4937410000000  0.5958110000000  0.5093870000000 1.0
C      1  0.4855540000000  0.4635170000000  0.5724060000000 1.0
C      1  0.5169200000000  0.4876790000000  0.5578020000000 1.0
C      1  0.4165430000000  0.5047360000000  0.5583720000000 1.0
C      1  0.5118520000000  0.5991910000000  0.5363160000000 1.0
C      1  0.5620520000000  0.4406820000000  0.4530370000000 1.0
C      1  0.4820310000000  0.4444380000000  0.4397890000000 1.0
C      1  0.4596710000000  0.5018950000000  0.4749290000000 1.0
C      1  0.5034700000000  0.5054550000000  0.5909810000000 1.0
C      1  0.4535800000000  0.5404140000000  0.5352640000000 1.0
C      1  0.5173880000000  0.4580320000000  0.5744670000000 1.0
C      1  0.5608560000000  0.5492330000000  0.4647940000000 1.0
C      1  0.4347470000000  0.4798980000000  0.5057210000000 1.0
C      1  0.5843040000000  0.5201790000000  0.4390690000000 1.0
C      1  0.4278830000000  0.4328720000000  0.5269790000000 1.0
C      1  0.5307460000000  0.5114590000000  0.5887710000000 1.0
C      1  0.4121730000000  0.4792370000000  0.4727730000000 1.0
C      1  0.4978320000000  0.5234880000000  0.4029090000000 1.0
C      1  0.5330190000000  0.4557140000000  0.4132240000000 1.0
C      1  0.5521860000000  0.5648330000000  0.5554780000000 1.0
C      1  0.5485280000000  0.4361620000000  0.4247790000000 1.0
END
