TITL C-2847954-6904-614 -0.000729806150863226 125000 -491.685054311386 0 0 89 (C1) n - 1
REM
REM in /home/bkarasulu/work/CARBON/AIRSS/Generating-Clusters/AIREBO/with-SteepDescent/Only-C1/SD-CG-opt/Try1-1.4A-POS3A/HFTN-CG
REM
REM
REM
REM
REM
REM ./C.cell (11c1c37f851c82e70ff6c80c92926a4b)
REM
REM compiler GCC version 9.2.1 20190827 (Red Hat 9.2.1-1)
REM options -cpp -mtune=generic -march=x86-64 -g -O0 -fpre-include=/usr/include/finclude/math-vector-fortran.h
REM seed 572083274 1173787755 1370672127 1383998227 -1423923490 1670322119 1254027297 -723261687 1361968016 884565094 1142489973 1082936345 1352960254 1331368240 -1332022383 1765376251 -362368563 -1069920868 -832556459 -2125424254 352917925 1391608152 1684656743 -1226377841 -1059870260 -785139187 -1504683210 1036813084 180632357 -1862082590 -1320596918 -475412690 270394567
REM
CELL 1.54180   50.00000   50.00000   50.00000   90.00000   90.00000   90.00000
LATT -1
SFAC C  
C      1  0.5232530000000  0.5357520000000  0.4912840000000 1.0
C      1  0.4900800000000  0.4670540000000  0.4987160000000 1.0
C      1  0.4887750000000  0.4747130000000  0.4181400000000 1.0
C      1  0.4777900000000  0.5350210000000  0.5609130000000 1.0
C      1  0.4729970000000  0.4340760000000  0.4655340000000 1.0
C      1  0.4691040000000  0.4653040000000  0.5254200000000 1.0
C      1  0.5668040000000  0.5343040000000  0.4525230000000 1.0
C      1  0.5794740000000  0.5048330000000  0.4883280000000 1.0
C      1  0.5611850000000  0.5378870000000  0.5279560000000 1.0
C      1  0.4409520000000  0.4413790000000  0.5043260000000 1.0
C      1  0.5633420000000  0.4655580000000  0.5185520000000 1.0
C      1  0.5069380000000  0.5568730000000  0.5322560000000 1.0
C      1  0.4605340000000  0.4787290000000  0.5625650000000 1.0
C      1  0.5547330000000  0.5301320000000  0.5551500000000 1.0
C      1  0.4543520000000  0.5751250000000  0.4858840000000 1.0
C      1  0.5144280000000  0.5159040000000  0.4287930000000 1.0
C      1  0.5412050000000  0.5026980000000  0.4285400000000 1.0
C      1  0.5607230000000  0.5083390000000  0.4482500000000 1.0
C      1  0.4849010000000  0.4217090000000  0.5162720000000 1.0
C      1  0.4291740000000  0.4805270000000  0.5755830000000 1.0
C      1  0.5506460000000  0.4320700000000  0.4839310000000 1.0
C      1  0.5298970000000  0.4851500000000  0.5696050000000 1.0
C      1  0.5667500000000  0.4819050000000  0.4688020000000 1.0
C      1  0.5322290000000  0.5409760000000  0.5697250000000 1.0
C      1  0.4405420000000  0.5340720000000  0.4526890000000 1.0
C      1  0.5309860000000  0.4552230000000  0.4696130000000 1.0
C      1  0.4766230000000  0.5658910000000  0.5295070000000 1.0
C      1  0.5558560000000  0.4593060000000  0.4468470000000 1.0
C      1  0.5270190000000  0.5080700000000  0.5371950000000 1.0
C      1  0.5482300000000  0.5529280000000  0.5023090000000 1.0
C      1  0.5058900000000  0.4763080000000  0.4700710000000 1.0
C      1  0.5002670000000  0.5133120000000  0.5531010000000 1.0
C      1  0.5172410000000  0.5042920000000  0.4796630000000 1.0
C      1  0.5665520000000  0.4572480000000  0.4915570000000 1.0
C      1  0.4910530000000  0.4992860000000  0.5112520000000 1.0
C      1  0.4765450000000  0.5304560000000  0.4695760000000 1.0
C      1  0.5541200000000  0.4986460000000  0.5555100000000 1.0
C      1  0.4991170000000  0.4553570000000  0.4441110000000 1.0
C      1  0.5628600000000  0.5607070000000  0.4726110000000 1.0
C      1  0.4617170000000  0.5562360000000  0.4640040000000 1.0
C      1  0.5172050000000  0.5520910000000  0.4452510000000 1.0
C      1  0.4485730000000  0.4926000000000  0.5271720000000 1.0
C      1  0.4371050000000  0.4414480000000  0.5319640000000 1.0
C      1  0.4357660000000  0.4800010000000  0.4776370000000 1.0
C      1  0.4548740000000  0.4259350000000  0.5467640000000 1.0
C      1  0.5618580000000  0.5156360000000  0.5063640000000 1.0
C      1  0.5161600000000  0.4445600000000  0.5307490000000 1.0
C      1  0.4568030000000  0.5064210000000  0.4414130000000 1.0
C      1  0.4508590000000  0.4801650000000  0.4546870000000 1.0
C      1  0.5338980000000  0.4721500000000  0.5213790000000 1.0
C      1  0.4702590000000  0.4396590000000  0.4949390000000 1.0
C      1  0.5345400000000  0.5003180000000  0.5058980000000 1.0
C      1  0.4650960000000  0.5370440000000  0.4291850000000 1.0
C      1  0.5357850000000  0.5796780000000  0.4758560000000 1.0
C      1  0.4868350000000  0.4874710000000  0.5428600000000 1.0
C      1  0.5435680000000  0.4763270000000  0.4204960000000 1.0
C      1  0.4248290000000  0.4560530000000  0.4868950000000 1.0
C      1  0.4830940000000  0.4592440000000  0.5730710000000 1.0
C      1  0.5144690000000  0.4716660000000  0.5479930000000 1.0
C      1  0.5039830000000  0.5265730000000  0.5821930000000 1.0
C      1  0.5031910000000  0.5242020000000  0.4587990000000 1.0
C      1  0.4524840000000  0.5488330000000  0.5421170000000 1.0
C      1  0.4339320000000  0.4682540000000  0.5441610000000 1.0
C      1  0.4534940000000  0.5159230000000  0.5467130000000 1.0
C      1  0.4653810000000  0.4576750000000  0.4492990000000 1.0
C      1  0.4849060000000  0.5016890000000  0.4245280000000 1.0
C      1  0.4956270000000  0.4711810000000  0.5945720000000 1.0
C      1  0.5198820000000  0.4182670000000  0.4795410000000 1.0
C      1  0.5231550000000  0.5633990000000  0.5570430000000 1.0
C      1  0.4280180000000  0.5452750000000  0.4822670000000 1.0
C      1  0.4692270000000  0.5444920000000  0.5060450000000 1.0
C      1  0.5094560000000  0.5598110000000  0.4755830000000 1.0
C      1  0.4394960000000  0.5585710000000  0.5116060000000 1.0
C      1  0.5050370000000  0.4062100000000  0.5056710000000 1.0
C      1  0.5001340000000  0.4239080000000  0.4570040000000 1.0
C      1  0.4869930000000  0.5704430000000  0.4913920000000 1.0
C      1  0.5158430000000  0.4448570000000  0.4989000000000 1.0
C      1  0.5083130000000  0.5280940000000  0.5170640000000 1.0
C      1  0.4397920000000  0.5011420000000  0.4983020000000 1.0
C      1  0.4928530000000  0.5416600000000  0.4243760000000 1.0
C      1  0.5464180000000  0.5568500000000  0.4428770000000 1.0
C      1  0.4176060000000  0.5221250000000  0.4961710000000 1.0
C      1  0.5118260000000  0.4945780000000  0.5892750000000 1.0
C      1  0.5312580000000  0.5820190000000  0.5082190000000 1.0
C      1  0.5003740000000  0.5865170000000  0.5166040000000 1.0
C      1  0.4849420000000  0.4415480000000  0.5438960000000 1.0
C      1  0.5738820000000  0.4777160000000  0.5415510000000 1.0
C      1  0.4684180000000  0.5153870000000  0.4969910000000 1.0
C      1  0.5276160000000  0.4509800000000  0.4300030000000 1.0
END
