TITL C-2847951-7423-581 -0.00284425749577405 125000 -667.12762897213 0 0 121 (C1) n - 1
REM
REM in /home/bkarasulu/work/CARBON/AIRSS/Generating-Clusters/AIREBO/with-SteepDescent/Only-C1/SD-CG-opt/Try1-1.4A-POS3A/HFTN-CG
REM
REM
REM
REM
REM
REM ./C.cell (11c1c37f851c82e70ff6c80c92926a4b)
REM
REM compiler GCC version 9.2.1 20190827 (Red Hat 9.2.1-1)
REM options -cpp -mtune=generic -march=x86-64 -g -O0 -fpre-include=/usr/include/finclude/math-vector-fortran.h
REM seed 9192358 -1749700259 -1284198348 -1559391265 2122470738 375134340 1181023081 -2140877200 931635364 -344254949 33390794 -226181723 1067961630 -1702155015 756098823 1267913634 233104994 2031914105 -1154495053 287871185 1098682747 -1278465280 -1919628724 -1382593419 -1871287848 -1828183934 1798352432 158717251 -1600186568 30578149 574415201 1969085989 -1025961864
REM
CELL 1.54180   50.00000   50.00000   50.00000   90.00000   90.00000   90.00000
LATT -1
SFAC C  
C      1  0.4468700000000  0.4283060000000  0.4942020000000 1.0
C      1  0.5193550000000  0.5611150000000  0.5724810000000 1.0
C      1  0.4637130000000  0.5743230000000  0.4794030000000 1.0
C      1  0.4692650000000  0.5618090000000  0.4554050000000 1.0
C      1  0.5553790000000  0.5640300000000  0.5085050000000 1.0
C      1  0.5025480000000  0.5375360000000  0.5588270000000 1.0
C      1  0.4927470000000  0.4418020000000  0.4324210000000 1.0
C      1  0.5218260000000  0.5468610000000  0.5216470000000 1.0
C      1  0.5426930000000  0.5029450000000  0.5379750000000 1.0
C      1  0.4938470000000  0.4323680000000  0.4929860000000 1.0
C      1  0.5534060000000  0.4904990000000  0.4784280000000 1.0
C      1  0.4646210000000  0.4774440000000  0.4896420000000 1.0
C      1  0.5579700000000  0.5560330000000  0.5415870000000 1.0
C      1  0.5273890000000  0.5337470000000  0.4140070000000 1.0
C      1  0.5732440000000  0.5113990000000  0.4602400000000 1.0
C      1  0.4163140000000  0.5559870000000  0.4916230000000 1.0
C      1  0.5313140000000  0.5183440000000  0.4437410000000 1.0
C      1  0.4894280000000  0.4448680000000  0.5524030000000 1.0
C      1  0.4947270000000  0.4959310000000  0.4112010000000 1.0
C      1  0.5924150000000  0.5298620000000  0.5021700000000 1.0
C      1  0.4443280000000  0.4918700000000  0.4267420000000 1.0
C      1  0.5817050000000  0.5369330000000  0.4777960000000 1.0
C      1  0.5459600000000  0.5649050000000  0.4605570000000 1.0
C      1  0.4281440000000  0.4476000000000  0.5240920000000 1.0
C      1  0.5584310000000  0.4895670000000  0.4387890000000 1.0
C      1  0.4459930000000  0.5596620000000  0.4946370000000 1.0
C      1  0.4915210000000  0.5756650000000  0.5267350000000 1.0
C      1  0.4166140000000  0.5034760000000  0.5373980000000 1.0
C      1  0.4972430000000  0.5646870000000  0.4398370000000 1.0
C      1  0.4950030000000  0.4099260000000  0.4682980000000 1.0
C      1  0.4264770000000  0.4655050000000  0.4358580000000 1.0
C      1  0.4571870000000  0.5287010000000  0.4184230000000 1.0
C      1  0.4881430000000  0.5422090000000  0.5219990000000 1.0
C      1  0.5859350000000  0.4852670000000  0.5183180000000 1.0
C      1  0.6015060000000  0.5145440000000  0.4513640000000 1.0
C      1  0.4851850000000  0.5859710000000  0.4956590000000 1.0
C      1  0.5333220000000  0.5166040000000  0.4777480000000 1.0
C      1  0.4807820000000  0.4696660000000  0.5308020000000 1.0
C      1  0.5152050000000  0.5919990000000  0.4835000000000 1.0
C      1  0.5490820000000  0.4552000000000  0.4478550000000 1.0
C      1  0.4975470000000  0.4706730000000  0.4460780000000 1.0
C      1  0.5563450000000  0.4225530000000  0.5434220000000 1.0
C      1  0.4933220000000  0.4841860000000  0.5046030000000 1.0
C      1  0.4758650000000  0.4935070000000  0.4393860000000 1.0
C      1  0.4533230000000  0.5324410000000  0.4519970000000 1.0
C      1  0.4581830000000  0.4612230000000  0.4238800000000 1.0
C      1  0.5309420000000  0.5198510000000  0.5808970000000 1.0
C      1  0.4265970000000  0.4729140000000  0.4690440000000 1.0
C      1  0.5223220000000  0.4922050000000  0.5165580000000 1.0
C      1  0.4163010000000  0.5654950000000  0.5206270000000 1.0
C      1  0.5642030000000  0.4489070000000  0.5467360000000 1.0
C      1  0.4367110000000  0.4966870000000  0.5108210000000 1.0
C      1  0.5507980000000  0.4249390000000  0.4927970000000 1.0
C      1  0.5042890000000  0.5035010000000  0.4828960000000 1.0
C      1  0.4795560000000  0.5147730000000  0.4644750000000 1.0
C      1  0.5264750000000  0.4779520000000  0.4390640000000 1.0
C      1  0.4137770000000  0.5059960000000  0.4875040000000 1.0
C      1  0.5201340000000  0.5825730000000  0.4529340000000 1.0
C      1  0.4612810000000  0.5367960000000  0.5100590000000 1.0
C      1  0.4333210000000  0.5224310000000  0.5506850000000 1.0
C      1  0.5559910000000  0.4644330000000  0.5732970000000 1.0
C      1  0.4397040000000  0.5759670000000  0.5409220000000 1.0
C      1  0.5404260000000  0.4730800000000  0.5010140000000 1.0
C      1  0.5747280000000  0.5300320000000  0.5511750000000 1.0
C      1  0.5055640000000  0.5162320000000  0.5924250000000 1.0
C      1  0.5667000000000  0.5602550000000  0.4789770000000 1.0
C      1  0.3942310000000  0.4807040000000  0.4770180000000 1.0
C      1  0.5217080000000  0.4515030000000  0.4892630000000 1.0
C      1  0.4375480000000  0.5046730000000  0.4637220000000 1.0
C      1  0.5472510000000  0.5311430000000  0.5054340000000 1.0
C      1  0.5187310000000  0.4770080000000  0.5878480000000 1.0
C      1  0.5256850000000  0.5003860000000  0.4155370000000 1.0
C      1  0.5357400000000  0.5887340000000  0.5090560000000 1.0
C      1  0.5065900000000  0.4107390000000  0.5138690000000 1.0
C      1  0.5025020000000  0.4867180000000  0.5506390000000 1.0
C      1  0.5916020000000  0.4568780000000  0.4815020000000 1.0
C      1  0.4699650000000  0.4434660000000  0.5134680000000 1.0
C      1  0.4731300000000  0.5418140000000  0.5608600000000 1.0
C      1  0.5020980000000  0.5339800000000  0.4513600000000 1.0
C      1  0.6046810000000  0.4757100000000  0.4997860000000 1.0
C      1  0.5013950000000  0.5458730000000  0.4132440000000 1.0
C      1  0.5709290000000  0.5133090000000  0.5221100000000 1.0
C      1  0.4402770000000  0.4417830000000  0.4695930000000 1.0
C      1  0.4904950000000  0.4006450000000  0.5329970000000 1.0
C      1  0.4625670000000  0.5111360000000  0.4937180000000 1.0
C      1  0.5343210000000  0.5740030000000  0.5537690000000 1.0
C      1  0.4810510000000  0.4559110000000  0.4720470000000 1.0
C      1  0.5199810000000  0.5863700000000  0.5331460000000 1.0
C      1  0.5323190000000  0.4730510000000  0.5504570000000 1.0
C      1  0.4739150000000  0.4189110000000  0.5446970000000 1.0
C      1  0.4278160000000  0.5195510000000  0.4242430000000 1.0
C      1  0.5346880000000  0.4347550000000  0.4644980000000 1.0
C      1  0.5029200000000  0.5142100000000  0.5340280000000 1.0
C      1  0.4854760000000  0.4650100000000  0.4083690000000 1.0
C      1  0.4471870000000  0.4225040000000  0.5277020000000 1.0
C      1  0.4676280000000  0.5664830000000  0.5471440000000 1.0
C      1  0.4204370000000  0.4585980000000  0.5479050000000 1.0
C      1  0.5348120000000  0.4397600000000  0.5722730000000 1.0
C      1  0.5108530000000  0.4220440000000  0.4479820000000 1.0
C      1  0.4556170000000  0.4888610000000  0.5379870000000 1.0
C      1  0.4562560000000  0.4691610000000  0.5827000000000 1.0
C      1  0.4176790000000  0.5354430000000  0.4479370000000 1.0
C      1  0.4859990000000  0.4972070000000  0.5771350000000 1.0
C      1  0.5207050000000  0.4405680000000  0.5452120000000 1.0
C      1  0.5702520000000  0.5162510000000  0.5747250000000 1.0
C      1  0.4088470000000  0.5347180000000  0.4748230000000 1.0
C      1  0.5481440000000  0.4932640000000  0.5824900000000 1.0
C      1  0.5339870000000  0.4209240000000  0.5207390000000 1.0
C      1  0.5113680000000  0.5604380000000  0.4955500000000 1.0
C      1  0.5226850000000  0.5474540000000  0.4716590000000 1.0
C      1  0.5730190000000  0.4420200000000  0.4978460000000 1.0
C      1  0.4820290000000  0.5257670000000  0.4081810000000 1.0
C      1  0.4886160000000  0.4634030000000  0.5797580000000 1.0
C      1  0.4387050000000  0.5438870000000  0.5314770000000 1.0
C      1  0.4611710000000  0.5112070000000  0.5620860000000 1.0
C      1  0.4350000000000  0.4657620000000  0.5012140000000 1.0
C      1  0.5348510000000  0.5323740000000  0.5495240000000 1.0
C      1  0.5652390000000  0.4629400000000  0.5205860000000 1.0
C      1  0.4404840000000  0.4736740000000  0.5608980000000 1.0
C      1  0.4626560000000  0.4409480000000  0.4482260000000 1.0
C      1  0.5749170000000  0.4715980000000  0.4623890000000 1.0
END
