TITL C-2847955-7945-2 -0.000527681649855284 125000 -193.890813628597 0 0 34 (C1) n - 1
REM
REM in /home/bkarasulu/work/CARBON/AIRSS/Generating-Clusters/AIREBO/with-SteepDescent/Only-C1/SD-CG-opt/Try1-1.4A-POS3A/HFTN-CG
REM
REM
REM
REM
REM
REM ./C.cell (11c1c37f851c82e70ff6c80c92926a4b)
REM
REM compiler GCC version 9.2.1 20190827 (Red Hat 9.2.1-1)
REM options -cpp -mtune=generic -march=x86-64 -g -O0 -fpre-include=/usr/include/finclude/math-vector-fortran.h
REM seed -84476673 -798703331 1139001806 -1057095183 -1018986078 -534042533 1574449158 1036229007 -403141494 -1974333082 353205249 -1349344798 -1683719042 -1268266006 160586850 -910491123 2060067523 -357673689 -2134268325 -1332047267 1030520489 1526742306 -488442921 -183667337 1956216932 853749596 -866344234 -983332357 1958790106 293476379 -1088713815 -151479699 -1037094513
REM
CELL 1.54180   50.00000   50.00000   50.00000   90.00000   90.00000   90.00000
LATT -1
SFAC C  
C      1  0.5122890000000  0.4868720000000  0.5337870000000 1.0
C      1  0.4816730000000  0.5126690000000  0.4774920000000 1.0
C      1  0.5603440000000  0.4772170000000  0.4571390000000 1.0
C      1  0.5032760000000  0.5202630000000  0.5707760000000 1.0
C      1  0.4512730000000  0.5305120000000  0.5238990000000 1.0
C      1  0.5612000000000  0.4399730000000  0.5176990000000 1.0
C      1  0.4553870000000  0.5485670000000  0.4973170000000 1.0
C      1  0.5247050000000  0.5505300000000  0.4771850000000 1.0
C      1  0.5162460000000  0.5581310000000  0.5202800000000 1.0
C      1  0.4599030000000  0.5415850000000  0.5522990000000 1.0
C      1  0.4561300000000  0.4479140000000  0.5096310000000 1.0
C      1  0.5451150000000  0.5061200000000  0.4956400000000 1.0
C      1  0.4753520000000  0.5436660000000  0.4795240000000 1.0
C      1  0.4652920000000  0.4733080000000  0.4485740000000 1.0
C      1  0.4543850000000  0.4829210000000  0.5293150000000 1.0
C      1  0.5391920000000  0.4808350000000  0.4397150000000 1.0
C      1  0.5441120000000  0.4569160000000  0.5038910000000 1.0
C      1  0.5091670000000  0.5083660000000  0.4651330000000 1.0
C      1  0.4381090000000  0.5023100000000  0.5267770000000 1.0
C      1  0.5130220000000  0.4861300000000  0.4488210000000 1.0
C      1  0.4803680000000  0.5189490000000  0.5104490000000 1.0
C      1  0.5188890000000  0.4444170000000  0.4907790000000 1.0
C      1  0.5565840000000  0.4798540000000  0.4846930000000 1.0
C      1  0.4857820000000  0.4884820000000  0.5201670000000 1.0
C      1  0.5342670000000  0.4855650000000  0.5169220000000 1.0
C      1  0.4978120000000  0.5393500000000  0.5275390000000 1.0
C      1  0.4883580000000  0.5380820000000  0.5547770000000 1.0
C      1  0.5297580000000  0.5225290000000  0.4781750000000 1.0
C      1  0.4743670000000  0.4661310000000  0.4991090000000 1.0
C      1  0.4665270000000  0.4861260000000  0.4748090000000 1.0
C      1  0.4939320000000  0.4656050000000  0.4541260000000 1.0
C      1  0.4983380000000  0.5591030000000  0.4732580000000 1.0
C      1  0.5123240000000  0.4963940000000  0.5601920000000 1.0
C      1  0.4965230000000  0.4546070000000  0.4801110000000 1.0
END
