TITL C-2847954-6904-653 -235.951718892852 125000 -410.596922569813 0 0 77 (C1) n - 1
REM
REM in /home/bkarasulu/work/CARBON/AIRSS/Generating-Clusters/AIREBO/with-SteepDescent/Only-C1/SD-CG-opt/Try1-1.4A-POS3A/HFTN-CG
REM
REM
REM
REM
REM
REM ./C.cell (11c1c37f851c82e70ff6c80c92926a4b)
REM
REM compiler GCC version 9.2.1 20190827 (Red Hat 9.2.1-1)
REM options -cpp -mtune=generic -march=x86-64 -g -O0 -fpre-include=/usr/include/finclude/math-vector-fortran.h
REM seed -1703905277 1005300271 -1952143342 997147954 -1072609309 -1743412867 -862822441 -1611842183 -1371187242 -1781306792 -636920486 -458876911 -1173474570 -730328711 634920801 189861690 1765690467 1969919134 1938648513 1961864499 1079566093 310502519 -599610731 483240630 1550978279 -1965389725 -1857688988 520468996 1013205906 -1967219329 1009745967 897180511 539635309
REM
CELL 1.54180   50.00000   50.00000   50.00000   90.00000   90.00000   90.00000
LATT -1
SFAC C  
C      1  0.5624160000000  0.4908800000000  0.4579460000000 1.0
C      1  0.4720390000000  0.5187210000000  0.4679900000000 1.0
C      1  0.5440800000000  0.5650100000000  0.4687250000000 1.0
C      1  0.5458920000000  0.5171130000000  0.4665190000000 1.0
C      1  0.4200400000000  0.5333230000000  0.4886260000000 1.0
C      1  0.5646430000000  0.4598750000000  0.4467310000000 1.0
C      1  0.5627650000000  0.5433790000000  0.4706770000000 1.0
C      1  0.5320850000000  0.5067720000000  0.4375250000000 1.0
C      1  0.4655590000000  0.5190740000000  0.4346070000000 1.0
C      1  0.5405280000000  0.4804580000000  0.4808090000000 1.0
C      1  0.4607340000000  0.4625980000000  0.5697570000000 1.0
C      1  0.4491110000000  0.5422270000000  0.4786390000000 1.0
C      1  0.5079510000000  0.4148360000000  0.5364980000000 1.0
C      1  0.5080780000000  0.5720030000000  0.5157810000000 1.0
C      1  0.5272710000000  0.4859050000000  0.5113300000000 1.0
C      1  0.5115310000000  0.5488930000000  0.5636700000000 1.0
C      1  0.4540570000000  0.4719910000000  0.5152410000000 1.0
C      1  0.4654030000000  0.4370870000000  0.4994330000000 1.0
C      1  0.5271120000000  0.5637800000000  0.4453840000000 1.0
C      1  0.4381640000000  0.5207090000000  0.4546830000000 1.0
C      1  0.5113700000000  0.4843400000000  0.4433990000000 1.0
C      1  0.5307950000000  0.5722380000000  0.5636040000000 1.0
C      1  0.4493010000000  0.4487510000000  0.5472220000000 1.0
C      1  0.5665660000000  0.4946830000000  0.4974480000000 1.0
C      1  0.4264390000000  0.4620860000000  0.4990670000000 1.0
C      1  0.5716920000000  0.5251480000000  0.4957530000000 1.0
C      1  0.5364130000000  0.4322060000000  0.4885860000000 1.0
C      1  0.5394130000000  0.4403290000000  0.4558670000000 1.0
C      1  0.5469620000000  0.4521700000000  0.5243070000000 1.0
C      1  0.4809790000000  0.5637500000000  0.5122960000000 1.0
C      1  0.4998320000000  0.4445900000000  0.5347800000000 1.0
C      1  0.4313410000000  0.4971800000000  0.5176250000000 1.0
C      1  0.5072450000000  0.4865740000000  0.4769760000000 1.0
C      1  0.4910630000000  0.4664180000000  0.5670960000000 1.0
C      1  0.5265610000000  0.4891680000000  0.5430110000000 1.0
C      1  0.5330670000000  0.5283000000000  0.5475760000000 1.0
C      1  0.5554590000000  0.4850750000000  0.4256000000000 1.0
C      1  0.4675460000000  0.4361650000000  0.5281980000000 1.0
C      1  0.4316160000000  0.4719500000000  0.4679080000000 1.0
C      1  0.4769310000000  0.5805110000000  0.4665120000000 1.0
C      1  0.4744740000000  0.5391790000000  0.5306950000000 1.0
C      1  0.5067710000000  0.5305960000000  0.5261220000000 1.0
C      1  0.5542480000000  0.5023570000000  0.5538130000000 1.0
C      1  0.5119010000000  0.5388090000000  0.4942290000000 1.0
C      1  0.4865110000000  0.4851500000000  0.4295290000000 1.0
C      1  0.4917500000000  0.4507750000000  0.4847560000000 1.0
C      1  0.5001580000000  0.5056500000000  0.5482680000000 1.0
C      1  0.5658950000000  0.4449400000000  0.4772510000000 1.0
C      1  0.4968360000000  0.5656110000000  0.4528910000000 1.0
C      1  0.5630780000000  0.4819160000000  0.5286550000000 1.0
C      1  0.4257250000000  0.4641840000000  0.5324140000000 1.0
C      1  0.5329690000000  0.5162290000000  0.4970340000000 1.0
C      1  0.5272460000000  0.5677030000000  0.4914890000000 1.0
C      1  0.5424360000000  0.4726230000000  0.5664170000000 1.0
C      1  0.4578510000000  0.4943810000000  0.5776740000000 1.0
C      1  0.4811800000000  0.5020370000000  0.4924520000000 1.0
C      1  0.4983920000000  0.5364110000000  0.4666980000000 1.0
C      1  0.5175970000000  0.4535510000000  0.5072010000000 1.0
C      1  0.5145260000000  0.4569360000000  0.4615890000000 1.0
C      1  0.5509060000000  0.5395460000000  0.5140930000000 1.0
C      1  0.5341000000000  0.5588540000000  0.5325230000000 1.0
C      1  0.4128410000000  0.5153360000000  0.5044970000000 1.0
C      1  0.4618370000000  0.5121980000000  0.5187900000000 1.0
C      1  0.5145820000000  0.5333630000000  0.4372700000000 1.0
C      1  0.4647460000000  0.4887880000000  0.4500560000000 1.0
C      1  0.4641000000000  0.4619140000000  0.4683660000000 1.0
C      1  0.4872870000000  0.5305220000000  0.4202090000000 1.0
C      1  0.4813920000000  0.5132870000000  0.5736280000000 1.0
C      1  0.4649830000000  0.5665620000000  0.4887060000000 1.0
C      1  0.4808120000000  0.4731130000000  0.5353730000000 1.0
C      1  0.4967450000000  0.4931280000000  0.5168320000000 1.0
C      1  0.5712620000000  0.4613700000000  0.5023780000000 1.0
C      1  0.4397170000000  0.4398310000000  0.4777160000000 1.0
C      1  0.4239610000000  0.4963750000000  0.4568950000000 1.0
C      1  0.4852640000000  0.5402310000000  0.5613320000000 1.0
C      1  0.4579730000000  0.4953110000000  0.5470930000000 1.0
C      1  0.5179000000000  0.4549650000000  0.5616640000000 1.0
END
