TITL C-2848498-1409-392 0.0166436157668572 125000 -644.848694699386 0 0 119 (C1) n - 1
REM
REM in /home/bkarasulu/work/CARBON/AIRSS/Generating-Clusters/AIREBO/with-SteepDescent/Only-C1/SD-CG-opt/Try1-1.4A-POS3A/HFTN-CG
REM
REM
REM
REM
REM
REM ./C.cell (11c1c37f851c82e70ff6c80c92926a4b)
REM
REM compiler GCC version 9.2.1 20190827 (Red Hat 9.2.1-1)
REM options -cpp -mtune=generic -march=x86-64 -g -O0 -fpre-include=/usr/include/finclude/math-vector-fortran.h
REM seed 2008435951 226175679 853892706 -788689133 -955920890 -2093137471 -1571802958 -308162233 -290508551 1522392995 2128247003 -539386535 -283148683 674928468 881408103 801868584 -179871553 -964644099 1790440952 -1805508975 58113741 2061956306 1229566645 -705859043 767416114 503606874 -385591320 -56859384 -1681292449 -173268502 -847382784 2073105763 762551448
REM
CELL 1.54180   50.00000   50.00000   50.00000   90.00000   90.00000   90.00000
LATT -1
SFAC C  
C      1  0.4445940000000  0.4461320000000  0.4992340000000 1.0
C      1  0.4648490000000  0.4993880000000  0.5310330000000 1.0
C      1  0.5227390000000  0.4967310000000  0.4281300000000 1.0
C      1  0.4956480000000  0.4240380000000  0.5540570000000 1.0
C      1  0.4957810000000  0.5396670000000  0.4446960000000 1.0
C      1  0.5210630000000  0.4889710000000  0.5895030000000 1.0
C      1  0.5197880000000  0.5577140000000  0.5697310000000 1.0
C      1  0.4671510000000  0.4386300000000  0.5464400000000 1.0
C      1  0.4681840000000  0.5858890000000  0.5152270000000 1.0
C      1  0.4063140000000  0.4571630000000  0.4890380000000 1.0
C      1  0.5381510000000  0.4492270000000  0.5325230000000 1.0
C      1  0.5996500000000  0.4708030000000  0.5301590000000 1.0
C      1  0.4260190000000  0.4851050000000  0.4923670000000 1.0
C      1  0.5410150000000  0.5444800000000  0.4317660000000 1.0
C      1  0.5406770000000  0.4794060000000  0.5394100000000 1.0
C      1  0.4192280000000  0.4909100000000  0.5251760000000 1.0
C      1  0.6080220000000  0.4781060000000  0.4655640000000 1.0
C      1  0.5546160000000  0.5146040000000  0.5041470000000 1.0
C      1  0.4752340000000  0.5786910000000  0.5591800000000 1.0
C      1  0.5170950000000  0.4888330000000  0.5575040000000 1.0
C      1  0.5098640000000  0.5493180000000  0.4732370000000 1.0
C      1  0.5046460000000  0.5871940000000  0.4542200000000 1.0
C      1  0.5282710000000  0.4289810000000  0.5526310000000 1.0
C      1  0.4671890000000  0.5919620000000  0.5794460000000 1.0
C      1  0.4417840000000  0.5752830000000  0.4979270000000 1.0
C      1  0.4445440000000  0.4316210000000  0.5299960000000 1.0
C      1  0.4755800000000  0.4781200000000  0.4024030000000 1.0
C      1  0.4746130000000  0.4695530000000  0.5441020000000 1.0
C      1  0.4277330000000  0.4604260000000  0.4583260000000 1.0
C      1  0.5186740000000  0.5277490000000  0.4277060000000 1.0
C      1  0.5535420000000  0.5453050000000  0.5525580000000 1.0
C      1  0.5741890000000  0.4494000000000  0.4475920000000 1.0
C      1  0.4611000000000  0.5228300000000  0.5885140000000 1.0
C      1  0.4561530000000  0.4693270000000  0.5795570000000 1.0
C      1  0.4776590000000  0.4167410000000  0.4802570000000 1.0
C      1  0.5553750000000  0.4362620000000  0.5108060000000 1.0
C      1  0.5474590000000  0.4564870000000  0.4497090000000 1.0
C      1  0.4360120000000  0.5519480000000  0.4535990000000 1.0
C      1  0.4342590000000  0.5277600000000  0.5277470000000 1.0
C      1  0.4684930000000  0.5136370000000  0.4631900000000 1.0
C      1  0.4947200000000  0.5712440000000  0.4335080000000 1.0
C      1  0.4892460000000  0.4533650000000  0.5102220000000 1.0
C      1  0.5849010000000  0.5297330000000  0.4829430000000 1.0
C      1  0.4876380000000  0.4859280000000  0.4687100000000 1.0
C      1  0.5543230000000  0.5256830000000  0.4718330000000 1.0
C      1  0.4688200000000  0.5578050000000  0.4871500000000 1.0
C      1  0.5297160000000  0.5255980000000  0.5484190000000 1.0
C      1  0.5567300000000  0.4812200000000  0.5758200000000 1.0
C      1  0.5006310000000  0.4113810000000  0.5228620000000 1.0
C      1  0.5364760000000  0.4713390000000  0.4756810000000 1.0
C      1  0.4848640000000  0.4832210000000  0.5006020000000 1.0
C      1  0.4934270000000  0.5077740000000  0.5472890000000 1.0
C      1  0.5288230000000  0.4488670000000  0.4300920000000 1.0
C      1  0.5385640000000  0.5902900000000  0.4957260000000 1.0
C      1  0.6037080000000  0.4495310000000  0.5170010000000 1.0
C      1  0.5377570000000  0.5053240000000  0.4547070000000 1.0
C      1  0.5126080000000  0.5579860000000  0.5121630000000 1.0
C      1  0.4623380000000  0.5158900000000  0.5024220000000 1.0
C      1  0.4090970000000  0.5181180000000  0.5060310000000 1.0
C      1  0.5018920000000  0.4539660000000  0.5690760000000 1.0
C      1  0.5324970000000  0.4598000000000  0.5802070000000 1.0
C      1  0.4706610000000  0.5000860000000  0.4353960000000 1.0
C      1  0.5077220000000  0.4244780000000  0.4702080000000 1.0
C      1  0.4429490000000  0.4764690000000  0.5544100000000 1.0
C      1  0.5827580000000  0.4458140000000  0.4951490000000 1.0
C      1  0.4016780000000  0.4761440000000  0.4624010000000 1.0
C      1  0.5425600000000  0.5121480000000  0.5769690000000 1.0
C      1  0.4269900000000  0.5464860000000  0.5004540000000 1.0
C      1  0.5236430000000  0.4698540000000  0.4110230000000 1.0
C      1  0.5018440000000  0.4709790000000  0.3922190000000 1.0
C      1  0.4874250000000  0.5084680000000  0.5807520000000 1.0
C      1  0.4936130000000  0.5761140000000  0.4823770000000 1.0
C      1  0.4996710000000  0.5398910000000  0.5504770000000 1.0
C      1  0.4049830000000  0.5056140000000  0.4752470000000 1.0
C      1  0.5093990000000  0.4302620000000  0.4387470000000 1.0
C      1  0.4661960000000  0.5069250000000  0.4071560000000 1.0
C      1  0.5450110000000  0.5641470000000  0.5164880000000 1.0
C      1  0.4855570000000  0.4318030000000  0.4255050000000 1.0
C      1  0.4676780000000  0.5343950000000  0.4011800000000 1.0
C      1  0.5147900000000  0.5281290000000  0.5853660000000 1.0
C      1  0.4287130000000  0.5746050000000  0.4676820000000 1.0
C      1  0.5128210000000  0.5277410000000  0.4963600000000 1.0
C      1  0.4182430000000  0.5271770000000  0.4550260000000 1.0
C      1  0.5278880000000  0.5981670000000  0.5266790000000 1.0
C      1  0.4627310000000  0.5436770000000  0.5175470000000 1.0
C      1  0.4654390000000  0.5451620000000  0.4590230000000 1.0
C      1  0.4956320000000  0.4814890000000  0.4367340000000 1.0
C      1  0.5766220000000  0.4922400000000  0.5172600000000 1.0
C      1  0.4542770000000  0.4578990000000  0.4539480000000 1.0
C      1  0.4853930000000  0.5613600000000  0.5322780000000 1.0
C      1  0.5012050000000  0.5899230000000  0.5096130000000 1.0
C      1  0.5178190000000  0.4093820000000  0.4989640000000 1.0
C      1  0.4200820000000  0.4571800000000  0.5200720000000 1.0
C      1  0.4828600000000  0.4755710000000  0.5826600000000 1.0
C      1  0.5593000000000  0.4702840000000  0.4978040000000 1.0
C      1  0.5310220000000  0.5829050000000  0.4700080000000 1.0
C      1  0.4381570000000  0.5204040000000  0.5788230000000 1.0
C      1  0.4830700000000  0.5554860000000  0.4102870000000 1.0
C      1  0.4536910000000  0.4777940000000  0.5076590000000 1.0
C      1  0.5746440000000  0.5275080000000  0.5568600000000 1.0
C      1  0.5926000000000  0.4548240000000  0.4675880000000 1.0
C      1  0.4317040000000  0.5067460000000  0.5521460000000 1.0
C      1  0.5675410000000  0.4978830000000  0.5490830000000 1.0
C      1  0.5325140000000  0.5070670000000  0.5243490000000 1.0
C      1  0.5054150000000  0.4579380000000  0.5354920000000 1.0
C      1  0.4774460000000  0.4243020000000  0.5100740000000 1.0
C      1  0.4306180000000  0.4271440000000  0.4806380000000 1.0
C      1  0.4726970000000  0.4508030000000  0.4806210000000 1.0
C      1  0.4404930000000  0.5226240000000  0.4803290000000 1.0
C      1  0.5174060000000  0.4994420000000  0.4780760000000 1.0
C      1  0.5399210000000  0.5749310000000  0.5483880000000 1.0
C      1  0.5642770000000  0.5458520000000  0.5046460000000 1.0
C      1  0.5021130000000  0.5031460000000  0.5147410000000 1.0
C      1  0.6055130000000  0.5042470000000  0.4737030000000 1.0
C      1  0.5415430000000  0.5535520000000  0.4625950000000 1.0
C      1  0.5054110000000  0.4574000000000  0.4739190000000 1.0
C      1  0.6005110000000  0.5098760000000  0.5041840000000 1.0
C      1  0.5446130000000  0.4103620000000  0.5030200000000 1.0
C      1  0.4711970000000  0.4592430000000  0.4287220000000 1.0
END
