TITL C-2848498-1409-161 4.28030223181065e-05 125000 -310.960870128696 0 0 55 (C1) n - 1
REM
REM in /home/bkarasulu/work/CARBON/AIRSS/Generating-Clusters/AIREBO/with-SteepDescent/Only-C1/SD-CG-opt/Try1-1.4A-POS3A/HFTN-CG
REM
REM
REM
REM
REM
REM ./C.cell (11c1c37f851c82e70ff6c80c92926a4b)
REM
REM compiler GCC version 9.2.1 20190827 (Red Hat 9.2.1-1)
REM options -cpp -mtune=generic -march=x86-64 -g -O0 -fpre-include=/usr/include/finclude/math-vector-fortran.h
REM seed 1296536509 1135947866 1626153795 571083284 -784064942 -1149441732 -1781546011 -2082544355 406610522 -701150997 -1019864412 1926465002 1894012690 -2090212121 -483769485 1486431681 238997677 -910668070 527231321 1502279714 -1858740805 1132804560 -2049227365 1163235233 1354036236 -539392232 -1048549711 -756353527 1229236859 -1805138345 -959324444 -873167202 -1049690481
REM
CELL 1.54180   50.00000   50.00000   50.00000   90.00000   90.00000   90.00000
LATT -1
SFAC C  
C      1  0.4502290000000  0.4881060000000  0.5477800000000 1.0
C      1  0.4921350000000  0.5174940000000  0.5422590000000 1.0
C      1  0.4961440000000  0.5129890000000  0.4925130000000 1.0
C      1  0.4829010000000  0.4494520000000  0.5439980000000 1.0
C      1  0.5373100000000  0.4518030000000  0.5468110000000 1.0
C      1  0.4328060000000  0.5084220000000  0.5377240000000 1.0
C      1  0.5784220000000  0.5313480000000  0.5281590000000 1.0
C      1  0.4759180000000  0.4791680000000  0.4996800000000 1.0
C      1  0.5362320000000  0.5356540000000  0.5239290000000 1.0
C      1  0.4560450000000  0.4609870000000  0.5580350000000 1.0
C      1  0.4270290000000  0.5036800000000  0.5067800000000 1.0
C      1  0.4679320000000  0.5231350000000  0.5257970000000 1.0
C      1  0.5247930000000  0.5729480000000  0.5042040000000 1.0
C      1  0.5056260000000  0.4271230000000  0.4953000000000 1.0
C      1  0.5453830000000  0.5174030000000  0.4226840000000 1.0
C      1  0.5436070000000  0.4595470000000  0.4982050000000 1.0
C      1  0.4569160000000  0.5398540000000  0.4706390000000 1.0
C      1  0.5642100000000  0.5123060000000  0.5437920000000 1.0
C      1  0.5584050000000  0.5034430000000  0.4976430000000 1.0
C      1  0.5538970000000  0.4812250000000  0.4816800000000 1.0
C      1  0.5002630000000  0.5154320000000  0.5735100000000 1.0
C      1  0.5428350000000  0.5477130000000  0.4934270000000 1.0
C      1  0.4852090000000  0.4080840000000  0.4558880000000 1.0
C      1  0.4927700000000  0.4686480000000  0.4462600000000 1.0
C      1  0.5380460000000  0.5016990000000  0.5248260000000 1.0
C      1  0.5354590000000  0.5145330000000  0.4483290000000 1.0
C      1  0.4933810000000  0.5719710000000  0.4678740000000 1.0
C      1  0.5165880000000  0.4645410000000  0.4601940000000 1.0
C      1  0.4729350000000  0.5336840000000  0.4951000000000 1.0
C      1  0.4387470000000  0.5196770000000  0.4625460000000 1.0
C      1  0.4971880000000  0.5745070000000  0.4965180000000 1.0
C      1  0.5086900000000  0.5113640000000  0.4687300000000 1.0
C      1  0.5210860000000  0.4478440000000  0.4835620000000 1.0
C      1  0.5329810000000  0.5426370000000  0.4647930000000 1.0
C      1  0.5422710000000  0.5573540000000  0.5478910000000 1.0
C      1  0.5046110000000  0.4993620000000  0.5188730000000 1.0
C      1  0.5430850000000  0.4686390000000  0.5255000000000 1.0
C      1  0.4675590000000  0.5633520000000  0.4589410000000 1.0
C      1  0.5165750000000  0.5620870000000  0.4549110000000 1.0
C      1  0.4597700000000  0.5615200000000  0.5333770000000 1.0
C      1  0.4490790000000  0.5001510000000  0.4449700000000 1.0
C      1  0.4569010000000  0.4993730000000  0.5073630000000 1.0
C      1  0.5133380000000  0.4381480000000  0.5480960000000 1.0
C      1  0.4804350000000  0.4803330000000  0.5333590000000 1.0
C      1  0.4184630000000  0.5123030000000  0.4814440000000 1.0
C      1  0.5035780000000  0.3796450000000  0.4894830000000 1.0
C      1  0.5367740000000  0.4846550000000  0.4595410000000 1.0
C      1  0.4715330000000  0.4851080000000  0.4446670000000 1.0
C      1  0.5173650000000  0.5356180000000  0.5522230000000 1.0
C      1  0.4708520000000  0.4114930000000  0.4342250000000 1.0
C      1  0.4431460000000  0.5375010000000  0.5416720000000 1.0
C      1  0.4983160000000  0.4300920000000  0.5215840000000 1.0
C      1  0.4776580000000  0.5599750000000  0.5114910000000 1.0
C      1  0.4980390000000  0.4044080000000  0.4801930000000 1.0
C      1  0.5685380000000  0.5304620000000  0.5010280000000 1.0
END
