TITL C-2848500-1637-366 -0.00102418440626336 125000 -635.718979652978 0 0 118 (C1) n - 1
REM
REM in /home/bkarasulu/work/CARBON/AIRSS/Generating-Clusters/AIREBO/with-SteepDescent/Only-C1/SD-CG-opt/Try1-1.4A-POS3A/HFTN-CG
REM
REM
REM
REM
REM
REM ./C.cell (11c1c37f851c82e70ff6c80c92926a4b)
REM
REM compiler GCC version 9.2.1 20190827 (Red Hat 9.2.1-1)
REM options -cpp -mtune=generic -march=x86-64 -g -O0 -fpre-include=/usr/include/finclude/math-vector-fortran.h
REM seed 1854498474 -1716094997 843881053 763380152 876572274 -844078300 -814699899 610043999 779851386 -743957734 355674530 879531689 1785488566 1751088293 -616199656 662076165 -307411639 -349167056 -455205722 -1178857228 -1984042437 -1748458682 -1703326565 562104695 1430918860 1196437519 2027422415 803806470 -1574194884 -1192271817 -743186071 -1638405743 1590302600
REM
CELL 1.54180   50.00000   50.00000   50.00000   90.00000   90.00000   90.00000
LATT -1
SFAC C  
C      1  0.4107470000000  0.4511970000000  0.4716150000000 1.0
C      1  0.5931680000000  0.4885110000000  0.4617700000000 1.0
C      1  0.5314200000000  0.4870030000000  0.3953470000000 1.0
C      1  0.5570320000000  0.5160370000000  0.5344350000000 1.0
C      1  0.4822230000000  0.4897820000000  0.5370110000000 1.0
C      1  0.5137060000000  0.5228380000000  0.5763790000000 1.0
C      1  0.5375060000000  0.5600550000000  0.4619730000000 1.0
C      1  0.4635550000000  0.4771790000000  0.5846470000000 1.0
C      1  0.5249640000000  0.4359720000000  0.4685650000000 1.0
C      1  0.4571510000000  0.4613830000000  0.4195240000000 1.0
C      1  0.5579510000000  0.4455640000000  0.4890210000000 1.0
C      1  0.4585510000000  0.4352430000000  0.5463450000000 1.0
C      1  0.4928550000000  0.5827140000000  0.4834820000000 1.0
C      1  0.5587580000000  0.5654770000000  0.4101850000000 1.0
C      1  0.4616800000000  0.4349260000000  0.4669720000000 1.0
C      1  0.4487820000000  0.5123600000000  0.4291650000000 1.0
C      1  0.5052250000000  0.5050120000000  0.4776260000000 1.0
C      1  0.4345610000000  0.4311800000000  0.4598770000000 1.0
C      1  0.5548650000000  0.5619640000000  0.5197480000000 1.0
C      1  0.5609030000000  0.4752650000000  0.5417070000000 1.0
C      1  0.4780700000000  0.4902650000000  0.6033670000000 1.0
C      1  0.5210720000000  0.5860000000000  0.4654970000000 1.0
C      1  0.4465740000000  0.5571820000000  0.5668310000000 1.0
C      1  0.5432990000000  0.5491840000000  0.4306590000000 1.0
C      1  0.4211730000000  0.5208590000000  0.5383070000000 1.0
C      1  0.5973410000000  0.5057870000000  0.5103130000000 1.0
C      1  0.4907440000000  0.5421660000000  0.5307880000000 1.0
C      1  0.4929360000000  0.5052210000000  0.5080100000000 1.0
C      1  0.5327080000000  0.5111100000000  0.4368360000000 1.0
C      1  0.4532060000000  0.4922300000000  0.4777090000000 1.0
C      1  0.4773130000000  0.4217710000000  0.5298900000000 1.0
C      1  0.4785670000000  0.6059770000000  0.5127120000000 1.0
C      1  0.5389550000000  0.4764690000000  0.5748530000000 1.0
C      1  0.4646100000000  0.5541350000000  0.5143020000000 1.0
C      1  0.5457310000000  0.4485980000000  0.5562170000000 1.0
C      1  0.4268910000000  0.4946360000000  0.4347160000000 1.0
C      1  0.5270760000000  0.5129430000000  0.4060520000000 1.0
C      1  0.4272600000000  0.4950240000000  0.5493420000000 1.0
C      1  0.5492960000000  0.4725300000000  0.4920350000000 1.0
C      1  0.5354520000000  0.4268630000000  0.5360560000000 1.0
C      1  0.6181190000000  0.5201700000000  0.5230700000000 1.0
C      1  0.5606320000000  0.5005200000000  0.5644750000000 1.0
C      1  0.4301520000000  0.4679410000000  0.4250450000000 1.0
C      1  0.5449360000000  0.5458900000000  0.5442150000000 1.0
C      1  0.4887160000000  0.4863360000000  0.4544880000000 1.0
C      1  0.5569300000000  0.4632310000000  0.4347920000000 1.0
C      1  0.4428820000000  0.5632780000000  0.4820120000000 1.0
C      1  0.5712470000000  0.5235660000000  0.5056700000000 1.0
C      1  0.5012590000000  0.5049680000000  0.6018580000000 1.0
C      1  0.5613500000000  0.5570390000000  0.4863140000000 1.0
C      1  0.5567300000000  0.4275170000000  0.5095410000000 1.0
C      1  0.5304130000000  0.4711920000000  0.5271270000000 1.0
C      1  0.4754270000000  0.5284570000000  0.4964810000000 1.0
C      1  0.5175390000000  0.4815640000000  0.4409000000000 1.0
C      1  0.5184080000000  0.5475850000000  0.5117780000000 1.0
C      1  0.6049880000000  0.4967920000000  0.4816920000000 1.0
C      1  0.4958230000000  0.5703000000000  0.5633350000000 1.0
C      1  0.4680480000000  0.5133260000000  0.4555290000000 1.0
C      1  0.4935310000000  0.4315300000000  0.5652820000000 1.0
C      1  0.5151510000000  0.5465710000000  0.5540600000000 1.0
C      1  0.4919440000000  0.5372550000000  0.4516840000000 1.0
C      1  0.5191330000000  0.5155330000000  0.5221350000000 1.0
C      1  0.5044760000000  0.4160720000000  0.4566970000000 1.0
C      1  0.5030620000000  0.6026790000000  0.5175720000000 1.0
C      1  0.4543800000000  0.5383910000000  0.4740030000000 1.0
C      1  0.4228140000000  0.4958200000000  0.4628790000000 1.0
C      1  0.4949330000000  0.5710450000000  0.4515350000000 1.0
C      1  0.4517640000000  0.5242640000000  0.5638380000000 1.0
C      1  0.4757840000000  0.4563690000000  0.4446220000000 1.0
C      1  0.5881510000000  0.4806140000000  0.5273000000000 1.0
C      1  0.4325370000000  0.5650760000000  0.5143810000000 1.0
C      1  0.5655650000000  0.4917140000000  0.4483110000000 1.0
C      1  0.5005800000000  0.4157690000000  0.4878090000000 1.0
C      1  0.4033860000000  0.4815610000000  0.4780340000000 1.0
C      1  0.5228300000000  0.5294200000000  0.4635560000000 1.0
C      1  0.4359370000000  0.4489890000000  0.5342410000000 1.0
C      1  0.5790070000000  0.5383420000000  0.4647680000000 1.0
C      1  0.4345370000000  0.5350470000000  0.5897710000000 1.0
C      1  0.5323310000000  0.4685230000000  0.4157280000000 1.0
C      1  0.5319830000000  0.5004260000000  0.5945200000000 1.0
C      1  0.4545840000000  0.4487830000000  0.5084050000000 1.0
C      1  0.5435880000000  0.4964290000000  0.5127880000000 1.0
C      1  0.4190720000000  0.4721440000000  0.5338980000000 1.0
C      1  0.4802570000000  0.4649360000000  0.5153710000000 1.0
C      1  0.5134530000000  0.4641120000000  0.4765800000000 1.0
C      1  0.5623830000000  0.5247770000000  0.4447280000000 1.0
C      1  0.5191350000000  0.5774930000000  0.5044770000000 1.0
C      1  0.4487940000000  0.5109700000000  0.5057510000000 1.0
C      1  0.5043960000000  0.4157900000000  0.5431580000000 1.0
C      1  0.4693930000000  0.4204470000000  0.4968270000000 1.0
C      1  0.4883650000000  0.4269570000000  0.4383310000000 1.0
C      1  0.4902370000000  0.4637790000000  0.5581880000000 1.0
C      1  0.4551270000000  0.4926560000000  0.5617640000000 1.0
C      1  0.4128050000000  0.5432200000000  0.4990550000000 1.0
C      1  0.5107320000000  0.4585970000000  0.5084270000000 1.0
C      1  0.4130100000000  0.4786880000000  0.5067720000000 1.0
C      1  0.4646570000000  0.5823400000000  0.4979480000000 1.0
C      1  0.5170880000000  0.4288130000000  0.5083820000000 1.0
C      1  0.5081420000000  0.5074820000000  0.5501000000000 1.0
C      1  0.5764160000000  0.4354560000000  0.4325850000000 1.0
C      1  0.5542400000000  0.4382690000000  0.4582030000000 1.0
C      1  0.4657250000000  0.5193740000000  0.5340550000000 1.0
C      1  0.5148470000000  0.5365080000000  0.4010380000000 1.0
C      1  0.5407200000000  0.5307140000000  0.4924460000000 1.0
C      1  0.5166480000000  0.4778070000000  0.5533960000000 1.0
C      1  0.4165580000000  0.4474180000000  0.4389860000000 1.0
C      1  0.5490030000000  0.5896900000000  0.5055250000000 1.0
C      1  0.5624720000000  0.5318840000000  0.5699200000000 1.0
C      1  0.5392990000000  0.4828030000000  0.4647800000000 1.0
C      1  0.5683550000000  0.5901050000000  0.4825610000000 1.0
C      1  0.4662950000000  0.4472030000000  0.5760350000000 1.0
C      1  0.4819360000000  0.4738580000000  0.4853820000000 1.0
C      1  0.4192100000000  0.5180640000000  0.5092950000000 1.0
C      1  0.4375630000000  0.4639860000000  0.4884090000000 1.0
C      1  0.4721740000000  0.5728440000000  0.5701640000000 1.0
C      1  0.4284980000000  0.5484770000000  0.5422720000000 1.0
C      1  0.5095950000000  0.5526370000000  0.4277560000000 1.0
C      1  0.4539400000000  0.3951910000000  0.4953140000000 1.0
END
