TITL C-2847952-8118-373 -0.00124937985788024 125000 -548.12784023991 0 0 98 (C1) n - 1
REM
REM in /home/bkarasulu/work/CARBON/AIRSS/Generating-Clusters/AIREBO/with-SteepDescent/Only-C1/SD-CG-opt/Try1-1.4A-POS3A/HFTN-CG
REM
REM
REM
REM
REM
REM ./C.cell (11c1c37f851c82e70ff6c80c92926a4b)
REM
REM compiler GCC version 9.2.1 20190827 (Red Hat 9.2.1-1)
REM options -cpp -mtune=generic -march=x86-64 -g -O0 -fpre-include=/usr/include/finclude/math-vector-fortran.h
REM seed -769854825 -1556262428 686508942 -2064829915 -1547084889 418138775 191107931 943403739 -521989109 -71320960 2087500990 757702743 -883290368 -1185246921 -2047190948 344663653 1060567802 448173852 -572966129 -1182262429 420423615 1804470978 789917211 -411333903 228773037 -470865502 1246193847 325046963 -1691324771 75054408 917595819 -1376473876 2098102205
REM
CELL 1.54180   50.00000   50.00000   50.00000   90.00000   90.00000   90.00000
LATT -1
SFAC C  
C      1  0.4787800000000  0.4240570000000  0.4921620000000 1.0
C      1  0.5639690000000  0.5399060000000  0.4433540000000 1.0
C      1  0.4317650000000  0.4508340000000  0.4863360000000 1.0
C      1  0.4269390000000  0.5175800000000  0.4469940000000 1.0
C      1  0.4283250000000  0.5351160000000  0.4843850000000 1.0
C      1  0.4894740000000  0.4693540000000  0.4693950000000 1.0
C      1  0.5948720000000  0.4483780000000  0.4762770000000 1.0
C      1  0.4157090000000  0.5332180000000  0.5128120000000 1.0
C      1  0.4743120000000  0.5715380000000  0.4767520000000 1.0
C      1  0.5080270000000  0.5673750000000  0.5311200000000 1.0
C      1  0.4430060000000  0.4393740000000  0.5503300000000 1.0
C      1  0.5697790000000  0.5403210000000  0.5208440000000 1.0
C      1  0.5659690000000  0.5122030000000  0.4246800000000 1.0
C      1  0.5528680000000  0.4489220000000  0.4422770000000 1.0
C      1  0.5100400000000  0.5269240000000  0.5489760000000 1.0
C      1  0.4625340000000  0.5482310000000  0.5301360000000 1.0
C      1  0.4320340000000  0.4728770000000  0.4640080000000 1.0
C      1  0.5169210000000  0.5794510000000  0.4598980000000 1.0
C      1  0.5556670000000  0.5552350000000  0.4937410000000 1.0
C      1  0.5534170000000  0.4293140000000  0.4994980000000 1.0
C      1  0.4728760000000  0.4739490000000  0.5752160000000 1.0
C      1  0.4895090000000  0.5612900000000  0.4511760000000 1.0
C      1  0.4528510000000  0.4702030000000  0.5514710000000 1.0
C      1  0.4526840000000  0.4964550000000  0.5064630000000 1.0
C      1  0.5396100000000  0.4739870000000  0.4596500000000 1.0
C      1  0.4904080000000  0.5123620000000  0.4912080000000 1.0
C      1  0.4548640000000  0.5902750000000  0.4748090000000 1.0
C      1  0.4698510000000  0.4279760000000  0.5451760000000 1.0
C      1  0.5690710000000  0.4737770000000  0.5439150000000 1.0
C      1  0.5339950000000  0.5113590000000  0.4165010000000 1.0
C      1  0.4557230000000  0.4736140000000  0.4462190000000 1.0
C      1  0.5452700000000  0.5170630000000  0.5725840000000 1.0
C      1  0.5325470000000  0.4220600000000  0.5201920000000 1.0
C      1  0.5382000000000  0.5268730000000  0.5005660000000 1.0
C      1  0.4295800000000  0.5818210000000  0.4678480000000 1.0
C      1  0.4856440000000  0.5221550000000  0.4584310000000 1.0
C      1  0.4961230000000  0.4940570000000  0.5135930000000 1.0
C      1  0.5524700000000  0.5012310000000  0.4504570000000 1.0
C      1  0.4521120000000  0.4247830000000  0.4778370000000 1.0
C      1  0.4698500000000  0.5403910000000  0.4343420000000 1.0
C      1  0.5407990000000  0.5282370000000  0.5344470000000 1.0
C      1  0.5259410000000  0.4339180000000  0.4828940000000 1.0
C      1  0.5334950000000  0.5611610000000  0.5388110000000 1.0
C      1  0.4865070000000  0.5591760000000  0.5472420000000 1.0
C      1  0.4184940000000  0.4969060000000  0.4669270000000 1.0
C      1  0.4242480000000  0.4797320000000  0.5025730000000 1.0
C      1  0.5361150000000  0.4359250000000  0.5448130000000 1.0
C      1  0.4341950000000  0.4947670000000  0.5630600000000 1.0
C      1  0.5122420000000  0.4953020000000  0.4164340000000 1.0
C      1  0.4716260000000  0.5494990000000  0.4995220000000 1.0
C      1  0.5194880000000  0.4652790000000  0.4798070000000 1.0
C      1  0.4842890000000  0.5037590000000  0.5729570000000 1.0
C      1  0.4877400000000  0.5069560000000  0.5402930000000 1.0
C      1  0.4578350000000  0.5211080000000  0.4868550000000 1.0
C      1  0.5008610000000  0.4606250000000  0.5791410000000 1.0
C      1  0.5031890000000  0.5618010000000  0.5025030000000 1.0
C      1  0.5351660000000  0.5344340000000  0.4359880000000 1.0
C      1  0.5245160000000  0.4379950000000  0.4510520000000 1.0
C      1  0.4960850000000  0.5435500000000  0.5736960000000 1.0
C      1  0.4562570000000  0.5050940000000  0.4568950000000 1.0
C      1  0.5000970000000  0.4502640000000  0.4439510000000 1.0
C      1  0.5115560000000  0.5339740000000  0.4869300000000 1.0
C      1  0.5699960000000  0.5379580000000  0.4704320000000 1.0
C      1  0.5038190000000  0.4226800000000  0.5046100000000 1.0
C      1  0.5713980000000  0.4534060000000  0.4990100000000 1.0
C      1  0.5285340000000  0.4767280000000  0.5387410000000 1.0
C      1  0.5521860000000  0.4799960000000  0.4970740000000 1.0
C      1  0.5236100000000  0.5359500000000  0.5872550000000 1.0
C      1  0.5836670000000  0.4735720000000  0.5205540000000 1.0
C      1  0.5725920000000  0.4687240000000  0.4621210000000 1.0
C      1  0.5498280000000  0.4984660000000  0.5482320000000 1.0
C      1  0.5277870000000  0.5052580000000  0.5961920000000 1.0
C      1  0.5601550000000  0.4484470000000  0.5533020000000 1.0
C      1  0.4491430000000  0.4408870000000  0.5138190000000 1.0
C      1  0.4883030000000  0.4466350000000  0.5356950000000 1.0
C      1  0.4065800000000  0.5069980000000  0.4947640000000 1.0
C      1  0.4267840000000  0.5543180000000  0.4626800000000 1.0
C      1  0.5070980000000  0.4884280000000  0.5892860000000 1.0
C      1  0.4757720000000  0.4622030000000  0.4294810000000 1.0
C      1  0.5904410000000  0.4935220000000  0.4771430000000 1.0
C      1  0.5144700000000  0.5399560000000  0.4555580000000 1.0
C      1  0.4707230000000  0.4567070000000  0.4928220000000 1.0
C      1  0.4397130000000  0.5435920000000  0.4381950000000 1.0
C      1  0.4950880000000  0.4930930000000  0.4457110000000 1.0
C      1  0.5926240000000  0.4966770000000  0.5070970000000 1.0
C      1  0.5224290000000  0.4792720000000  0.5084630000000 1.0
C      1  0.4837970000000  0.4819140000000  0.4092700000000 1.0
C      1  0.4710590000000  0.5295730000000  0.5879420000000 1.0
C      1  0.5121970000000  0.4533720000000  0.5523910000000 1.0
C      1  0.5280050000000  0.5702970000000  0.4843220000000 1.0
C      1  0.4294580000000  0.5462550000000  0.5320380000000 1.0
C      1  0.4479210000000  0.5202090000000  0.5718170000000 1.0
C      1  0.4313570000000  0.4969710000000  0.5310820000000 1.0
C      1  0.4770190000000  0.5110700000000  0.4212450000000 1.0
C      1  0.4710950000000  0.4729330000000  0.5227120000000 1.0
C      1  0.5600960000000  0.5078330000000  0.4827010000000 1.0
C      1  0.4566620000000  0.5180190000000  0.5398930000000 1.0
C      1  0.5902100000000  0.5227310000000  0.5179260000000 1.0
END
