TITL C-2847948-6138-61 -0.00265216910007352 125000 -844.182405703637 0 0 153 (C1) n - 1
REM
REM in /home/bkarasulu/work/CARBON/AIRSS/Generating-Clusters/AIREBO/with-SteepDescent/Only-C1/SD-CG-opt/Try1-1.4A-POS3A/HFTN-CG
REM
REM
REM
REM
REM
REM ./C.cell (11c1c37f851c82e70ff6c80c92926a4b)
REM
REM compiler GCC version 9.2.1 20190827 (Red Hat 9.2.1-1)
REM options -cpp -mtune=generic -march=x86-64 -g -O0 -fpre-include=/usr/include/finclude/math-vector-fortran.h
REM seed -990590746 930959376 510072438 580312923 1715312974 1080939929 1169163519 56558151 -1227738413 -1559645306 -257851166 -644946748 -1932338848 1751108585 1350694159 51510449 -127032920 1778222075 547387147 -460229014 -1780492759 -329807586 492454694 1905848352 981397265 440401965 -2071890811 1814248178 -47250165 522800804 1818963594 -820354957 -656707129
REM
CELL 1.54180   50.00000   50.00000   50.00000   90.00000   90.00000   90.00000
LATT -1
SFAC C  
C      1  0.4448870000000  0.6112280000000  0.5002760000000 1.0
C      1  0.5606330000000  0.4608470000000  0.5013040000000 1.0
C      1  0.5431690000000  0.5039000000000  0.5117080000000 1.0
C      1  0.5936770000000  0.4911230000000  0.4372330000000 1.0
C      1  0.5698400000000  0.4769170000000  0.5665210000000 1.0
C      1  0.5396100000000  0.6149070000000  0.4357180000000 1.0
C      1  0.5906730000000  0.4456810000000  0.5062370000000 1.0
C      1  0.5387840000000  0.4665920000000  0.4446280000000 1.0
C      1  0.4626390000000  0.4243440000000  0.4483330000000 1.0
C      1  0.3987140000000  0.4582880000000  0.4938350000000 1.0
C      1  0.4806490000000  0.4510160000000  0.5222010000000 1.0
C      1  0.5633540000000  0.5462620000000  0.4846000000000 1.0
C      1  0.5183890000000  0.4223380000000  0.5699850000000 1.0
C      1  0.5275590000000  0.4550100000000  0.5068460000000 1.0
C      1  0.5296150000000  0.5295520000000  0.5390940000000 1.0
C      1  0.5101220000000  0.4837980000000  0.5018310000000 1.0
C      1  0.5055490000000  0.4600490000000  0.4409620000000 1.0
C      1  0.4956350000000  0.5066870000000  0.4517850000000 1.0
C      1  0.4931370000000  0.4950360000000  0.5513300000000 1.0
C      1  0.4718730000000  0.4761930000000  0.5404730000000 1.0
C      1  0.5510060000000  0.4097080000000  0.5218110000000 1.0
C      1  0.5797610000000  0.5269090000000  0.5560150000000 1.0
C      1  0.3873760000000  0.4860070000000  0.5039060000000 1.0
C      1  0.5795740000000  0.5551170000000  0.5541820000000 1.0
C      1  0.5178000000000  0.4985840000000  0.5315110000000 1.0
C      1  0.5205550000000  0.4246330000000  0.4721050000000 1.0
C      1  0.5567010000000  0.4410810000000  0.4502560000000 1.0
C      1  0.5804040000000  0.4834660000000  0.4172450000000 1.0
C      1  0.5117520000000  0.4737140000000  0.3888950000000 1.0
C      1  0.5487950000000  0.5146300000000  0.5629030000000 1.0
C      1  0.5293270000000  0.4933060000000  0.3983800000000 1.0
C      1  0.5227960000000  0.5205980000000  0.3998220000000 1.0
C      1  0.4733010000000  0.6007410000000  0.4566650000000 1.0
C      1  0.5544530000000  0.4940500000000  0.5893830000000 1.0
C      1  0.5019350000000  0.6044140000000  0.5092480000000 1.0
C      1  0.6008030000000  0.5144960000000  0.5402340000000 1.0
C      1  0.5704540000000  0.5151040000000  0.5145970000000 1.0
C      1  0.4805600000000  0.5162220000000  0.4239300000000 1.0
C      1  0.4881690000000  0.5464780000000  0.4374860000000 1.0
C      1  0.5079570000000  0.4748070000000  0.5742870000000 1.0
C      1  0.4624880000000  0.5222840000000  0.4674130000000 1.0
C      1  0.4508930000000  0.5430490000000  0.4917130000000 1.0
C      1  0.5185360000000  0.5477640000000  0.4439030000000 1.0
C      1  0.6017260000000  0.5169910000000  0.5089680000000 1.0
C      1  0.4438650000000  0.4300320000000  0.4920370000000 1.0
C      1  0.5235360000000  0.5255760000000  0.5828570000000 1.0
C      1  0.4141950000000  0.4994270000000  0.4902220000000 1.0
C      1  0.5585880000000  0.5249460000000  0.4652840000000 1.0
C      1  0.4592780000000  0.5305890000000  0.5785330000000 1.0
C      1  0.5000950000000  0.5724390000000  0.4854740000000 1.0
C      1  0.4955600000000  0.5805610000000  0.5241870000000 1.0
C      1  0.5417450000000  0.4831880000000  0.5501080000000 1.0
C      1  0.4098200000000  0.5274270000000  0.4314370000000 1.0
C      1  0.4563530000000  0.4406640000000  0.5784210000000 1.0
C      1  0.4128530000000  0.5120490000000  0.4611380000000 1.0
C      1  0.5086460000000  0.5745420000000  0.5550110000000 1.0
C      1  0.4954890000000  0.5274630000000  0.3985790000000 1.0
C      1  0.5257670000000  0.5535580000000  0.4956620000000 1.0
C      1  0.5216150000000  0.6142310000000  0.4616310000000 1.0
C      1  0.5268510000000  0.5670740000000  0.4651420000000 1.0
C      1  0.5437190000000  0.5853690000000  0.5449310000000 1.0
C      1  0.6057640000000  0.4694280000000  0.4954220000000 1.0
C      1  0.5815170000000  0.4833650000000  0.5159200000000 1.0
C      1  0.5618100000000  0.5044400000000  0.6163410000000 1.0
C      1  0.4427870000000  0.5763680000000  0.5592500000000 1.0
C      1  0.5564630000000  0.4773330000000  0.4717500000000 1.0
C      1  0.4295620000000  0.5399710000000  0.4532900000000 1.0
C      1  0.4073570000000  0.4796830000000  0.4522060000000 1.0
C      1  0.6067410000000  0.5461680000000  0.4713620000000 1.0
C      1  0.5249560000000  0.4199370000000  0.5376210000000 1.0
C      1  0.5029750000000  0.3841930000000  0.5407130000000 1.0
C      1  0.4394920000000  0.4784290000000  0.4944650000000 1.0
C      1  0.5053580000000  0.5054350000000  0.5888670000000 1.0
C      1  0.4276870000000  0.5323110000000  0.5491550000000 1.0
C      1  0.5184070000000  0.5524270000000  0.5789750000000 1.0
C      1  0.4358300000000  0.4671760000000  0.5270490000000 1.0
C      1  0.5508070000000  0.5428340000000  0.5160210000000 1.0
C      1  0.4375050000000  0.4243080000000  0.4628490000000 1.0
C      1  0.6030230000000  0.5194380000000  0.4809350000000 1.0
C      1  0.4727970000000  0.5249240000000  0.5075130000000 1.0
C      1  0.4728410000000  0.5663950000000  0.5031560000000 1.0
C      1  0.4782570000000  0.4915320000000  0.5108770000000 1.0
C      1  0.3976870000000  0.4893270000000  0.5564710000000 1.0
C      1  0.5249020000000  0.4601050000000  0.5397180000000 1.0
C      1  0.4753730000000  0.5393530000000  0.5336580000000 1.0
C      1  0.4824110000000  0.4809250000000  0.5958220000000 1.0
C      1  0.5614270000000  0.5660980000000  0.5356670000000 1.0
C      1  0.4933680000000  0.4815660000000  0.4723160000000 1.0
C      1  0.5360480000000  0.4671330000000  0.5862660000000 1.0
C      1  0.4237090000000  0.5116780000000  0.4109650000000 1.0
C      1  0.5843230000000  0.5630290000000  0.4761970000000 1.0
C      1  0.3608010000000  0.4915520000000  0.4982350000000 1.0
C      1  0.4317420000000  0.5182560000000  0.5738630000000 1.0
C      1  0.5579390000000  0.4405610000000  0.5284690000000 1.0
C      1  0.4813040000000  0.4050200000000  0.4595140000000 1.0
C      1  0.5749840000000  0.5879500000000  0.4677260000000 1.0
C      1  0.4778510000000  0.5205120000000  0.5589580000000 1.0
C      1  0.4797800000000  0.5692730000000  0.4149610000000 1.0
C      1  0.5603770000000  0.4282180000000  0.4711460000000 1.0
C      1  0.4217280000000  0.4456920000000  0.5087310000000 1.0
C      1  0.4547060000000  0.4962160000000  0.4553330000000 1.0
C      1  0.4114680000000  0.4320220000000  0.4554720000000 1.0
C      1  0.4221100000000  0.5157510000000  0.5258120000000 1.0
C      1  0.5358370000000  0.5392500000000  0.4172760000000 1.0
C      1  0.4927310000000  0.5217460000000  0.4821400000000 1.0
C      1  0.4684700000000  0.4376580000000  0.5500790000000 1.0
C      1  0.3983220000000  0.4977150000000  0.5305150000000 1.0
C      1  0.4579360000000  0.5518190000000  0.4525150000000 1.0
C      1  0.4318830000000  0.4889200000000  0.4348750000000 1.0
C      1  0.5309780000000  0.4939010000000  0.4769220000000 1.0
C      1  0.4440640000000  0.4735170000000  0.5594220000000 1.0
C      1  0.5375350000000  0.4393440000000  0.5888080000000 1.0
C      1  0.4592190000000  0.4015100000000  0.5150280000000 1.0
C      1  0.4588600000000  0.5940620000000  0.5165440000000 1.0
C      1  0.5032440000000  0.4490370000000  0.4730470000000 1.0
C      1  0.5917860000000  0.4729760000000  0.5447330000000 1.0
C      1  0.4808200000000  0.5836520000000  0.5663480000000 1.0
C      1  0.5487040000000  0.4835660000000  0.4191350000000 1.0
C      1  0.5033120000000  0.4719350000000  0.3634410000000 1.0
C      1  0.4007650000000  0.4564750000000  0.4654020000000 1.0
C      1  0.4751230000000  0.4434010000000  0.4913160000000 1.0
C      1  0.4460040000000  0.4979920000000  0.5195260000000 1.0
C      1  0.4469720000000  0.5507920000000  0.5450360000000 1.0
C      1  0.5407350000000  0.4256850000000  0.4957260000000 1.0
C      1  0.5006620000000  0.4466470000000  0.5565620000000 1.0
C      1  0.4461330000000  0.4285900000000  0.5259420000000 1.0
C      1  0.4622510000000  0.4696450000000  0.4731230000000 1.0
C      1  0.5093540000000  0.3927420000000  0.5632730000000 1.0
C      1  0.5456220000000  0.5912470000000  0.4595290000000 1.0
C      1  0.5973800000000  0.4464600000000  0.5347680000000 1.0
C      1  0.5095290000000  0.4059120000000  0.4556070000000 1.0
C      1  0.5272810000000  0.5184540000000  0.4536910000000 1.0
C      1  0.4614290000000  0.5599500000000  0.5811210000000 1.0
C      1  0.5046160000000  0.4314760000000  0.5156140000000 1.0
C      1  0.5046450000000  0.5459690000000  0.5420800000000 1.0
C      1  0.4981210000000  0.6040490000000  0.4760380000000 1.0
C      1  0.4924960000000  0.3999050000000  0.5173250000000 1.0
C      1  0.5542970000000  0.5090210000000  0.4353240000000 1.0
C      1  0.5214730000000  0.5221970000000  0.4929870000000 1.0
C      1  0.5032260000000  0.4564440000000  0.4093660000000 1.0
C      1  0.4597120000000  0.4677390000000  0.5883760000000 1.0
C      1  0.4223460000000  0.4918880000000  0.5705270000000 1.0
C      1  0.4547480000000  0.5052980000000  0.4165950000000 1.0
C      1  0.4853480000000  0.5534240000000  0.3915130000000 1.0
C      1  0.4780940000000  0.4096020000000  0.4890220000000 1.0
C      1  0.5807220000000  0.5001280000000  0.4639280000000 1.0
C      1  0.4672300000000  0.5802340000000  0.4403010000000 1.0
C      1  0.4294840000000  0.6261180000000  0.4851820000000 1.0
C      1  0.4732590000000  0.4509060000000  0.4469660000000 1.0
C      1  0.5615320000000  0.4486280000000  0.5537850000000 1.0
C      1  0.4228750000000  0.5314180000000  0.4980260000000 1.0
C      1  0.5626840000000  0.3852210000000  0.5214910000000 1.0
C      1  0.4605710000000  0.5963480000000  0.5446510000000 1.0
END
