TITL C-2848499-1157-308 -0.000345946550954163 125000 -925.04684554794 0 0 172 (C1) n - 1
REM
REM in /home/bkarasulu/work/CARBON/AIRSS/Generating-Clusters/AIREBO/with-SteepDescent/Only-C1/SD-CG-opt/Try1-1.4A-POS3A/HFTN-CG
REM
REM
REM
REM
REM
REM ./C.cell (11c1c37f851c82e70ff6c80c92926a4b)
REM
REM compiler GCC version 9.2.1 20190827 (Red Hat 9.2.1-1)
REM options -cpp -mtune=generic -march=x86-64 -g -O0 -fpre-include=/usr/include/finclude/math-vector-fortran.h
REM seed -512987661 121525422 -807873628 -990740258 1933990040 1160397860 -551910057 -528942740 1407361344 -2002142440 -872761246 506217485 -598035469 -134598574 -551184365 259220078 176630587 -184103266 1335584872 1954245515 -11156946 540460780 -2059463953 -652993769 65647922 -1684128256 -1843522674 -1711314566 1709662360 -894648012 -503371530 1088703234 1558737626
REM
CELL 1.54180   50.00000   50.00000   50.00000   90.00000   90.00000   90.00000
LATT -1
SFAC C  
C      1  0.5096790000000  0.4733870000000  0.4573690000000 1.0
C      1  0.4850790000000  0.5862750000000  0.5589730000000 1.0
C      1  0.4891380000000  0.6161170000000  0.4671400000000 1.0
C      1  0.5294550000000  0.4566600000000  0.4994780000000 1.0
C      1  0.5122450000000  0.5578330000000  0.6054380000000 1.0
C      1  0.5385230000000  0.4694680000000  0.4193230000000 1.0
C      1  0.4853190000000  0.5352660000000  0.4800920000000 1.0
C      1  0.4227640000000  0.5276980000000  0.4309140000000 1.0
C      1  0.4064980000000  0.5177740000000  0.5273360000000 1.0
C      1  0.5431250000000  0.4701240000000  0.6126040000000 1.0
C      1  0.5425690000000  0.4427580000000  0.5669440000000 1.0
C      1  0.5601700000000  0.4813870000000  0.5877760000000 1.0
C      1  0.4578090000000  0.5671650000000  0.5675370000000 1.0
C      1  0.5032020000000  0.4755430000000  0.5437020000000 1.0
C      1  0.5676530000000  0.4395010000000  0.5481310000000 1.0
C      1  0.5260880000000  0.5713620000000  0.5828300000000 1.0
C      1  0.4973050000000  0.4594170000000  0.3960850000000 1.0
C      1  0.5717560000000  0.5146920000000  0.4040060000000 1.0
C      1  0.5041640000000  0.5151010000000  0.4635220000000 1.0
C      1  0.4014020000000  0.4577460000000  0.4621100000000 1.0
C      1  0.5491690000000  0.4183420000000  0.4674680000000 1.0
C      1  0.4522230000000  0.5975160000000  0.5126280000000 1.0
C      1  0.4926590000000  0.5132980000000  0.4315740000000 1.0
C      1  0.4199440000000  0.4928740000000  0.4942550000000 1.0
C      1  0.5240720000000  0.5677610000000  0.4339090000000 1.0
C      1  0.5679790000000  0.4323250000000  0.4456310000000 1.0
C      1  0.5258650000000  0.5382000000000  0.5734030000000 1.0
C      1  0.5666580000000  0.5713740000000  0.4916390000000 1.0
C      1  0.5925780000000  0.4444400000000  0.4607160000000 1.0
C      1  0.5991440000000  0.5477550000000  0.5267150000000 1.0
C      1  0.4958480000000  0.5060440000000  0.5423760000000 1.0
C      1  0.4832760000000  0.5450720000000  0.5464450000000 1.0
C      1  0.5005510000000  0.4235050000000  0.4313020000000 1.0
C      1  0.4138930000000  0.4283310000000  0.5144010000000 1.0
C      1  0.6029280000000  0.5185490000000  0.5329380000000 1.0
C      1  0.5795030000000  0.5333810000000  0.4460630000000 1.0
C      1  0.4867760000000  0.4916870000000  0.5942150000000 1.0
C      1  0.4625500000000  0.5635510000000  0.4368550000000 1.0
C      1  0.5503150000000  0.4954080000000  0.4508330000000 1.0
C      1  0.5501470000000  0.5335760000000  0.4067720000000 1.0
C      1  0.4634660000000  0.5464860000000  0.5881170000000 1.0
C      1  0.5468140000000  0.5637550000000  0.5258270000000 1.0
C      1  0.4809890000000  0.4304420000000  0.5466480000000 1.0
C      1  0.4023480000000  0.5430150000000  0.4813100000000 1.0
C      1  0.4564900000000  0.4128810000000  0.4416780000000 1.0
C      1  0.4514540000000  0.5336920000000  0.4829170000000 1.0
C      1  0.5084720000000  0.4561640000000  0.4280500000000 1.0
C      1  0.5200620000000  0.5532680000000  0.4873940000000 1.0
C      1  0.4626800000000  0.5144890000000  0.5867460000000 1.0
C      1  0.3849410000000  0.5231830000000  0.4610240000000 1.0
C      1  0.4367300000000  0.4238270000000  0.4896170000000 1.0
C      1  0.4308430000000  0.4526800000000  0.4786610000000 1.0
C      1  0.4559310000000  0.5342930000000  0.5293370000000 1.0
C      1  0.4777860000000  0.6072150000000  0.4944860000000 1.0
C      1  0.4274550000000  0.4849350000000  0.5536110000000 1.0
C      1  0.5186110000000  0.5895870000000  0.5637690000000 1.0
C      1  0.5764550000000  0.4902530000000  0.5406890000000 1.0
C      1  0.3950200000000  0.4471020000000  0.5082790000000 1.0
C      1  0.4727190000000  0.5750230000000  0.4867910000000 1.0
C      1  0.4615870000000  0.4596940000000  0.4543540000000 1.0
C      1  0.4784830000000  0.4613020000000  0.5059220000000 1.0
C      1  0.5753000000000  0.4261780000000  0.4842680000000 1.0
C      1  0.4608400000000  0.5371360000000  0.4297920000000 1.0
C      1  0.4695440000000  0.5035590000000  0.5242140000000 1.0
C      1  0.5279700000000  0.5337990000000  0.3896000000000 1.0
C      1  0.5244820000000  0.4215500000000  0.5692430000000 1.0
C      1  0.4432030000000  0.5695510000000  0.4554450000000 1.0
C      1  0.5460760000000  0.4775590000000  0.5368980000000 1.0
C      1  0.4326810000000  0.5210990000000  0.5083200000000 1.0
C      1  0.4619080000000  0.4300840000000  0.4680010000000 1.0
C      1  0.5150450000000  0.5343210000000  0.5408440000000 1.0
C      1  0.5828560000000  0.4588400000000  0.4899150000000 1.0
C      1  0.5954800000000  0.4551220000000  0.5408050000000 1.0
C      1  0.4636140000000  0.5080310000000  0.4481910000000 1.0
C      1  0.4979900000000  0.6006460000000  0.5170030000000 1.0
C      1  0.5663460000000  0.4887840000000  0.4898520000000 1.0
C      1  0.3923350000000  0.5123400000000  0.4903470000000 1.0
C      1  0.5367490000000  0.5920210000000  0.5418300000000 1.0
C      1  0.4456980000000  0.3965960000000  0.5340820000000 1.0
C      1  0.4641870000000  0.5030940000000  0.4905890000000 1.0
C      1  0.5597380000000  0.5407420000000  0.5749080000000 1.0
C      1  0.5236300000000  0.4051390000000  0.5463250000000 1.0
C      1  0.4222900000000  0.4559010000000  0.5687120000000 1.0
C      1  0.5059990000000  0.4036670000000  0.5214120000000 1.0
C      1  0.5457090000000  0.5631230000000  0.4673630000000 1.0
C      1  0.5926480000000  0.5554560000000  0.5013640000000 1.0
C      1  0.4892520000000  0.5226960000000  0.5691100000000 1.0
C      1  0.5018190000000  0.5939350000000  0.4537990000000 1.0
C      1  0.4606710000000  0.4632300000000  0.4219110000000 1.0
C      1  0.4358350000000  0.5618130000000  0.4939840000000 1.0
C      1  0.4972770000000  0.4574540000000  0.5905650000000 1.0
C      1  0.4181470000000  0.4780590000000  0.5912680000000 1.0
C      1  0.5202020000000  0.4824860000000  0.5926290000000 1.0
C      1  0.5333850000000  0.5921720000000  0.4556800000000 1.0
C      1  0.6019290000000  0.4914340000000  0.4706170000000 1.0
C      1  0.4539450000000  0.4168880000000  0.5563110000000 1.0
C      1  0.5801020000000  0.5142260000000  0.4719420000000 1.0
C      1  0.5018410000000  0.5323280000000  0.5967460000000 1.0
C      1  0.5112730000000  0.4438930000000  0.5389900000000 1.0
C      1  0.5575800000000  0.5944370000000  0.5149610000000 1.0
C      1  0.4377090000000  0.4916570000000  0.4379910000000 1.0
C      1  0.5382820000000  0.5090730000000  0.5859690000000 1.0
C      1  0.5678490000000  0.5374370000000  0.4885280000000 1.0
C      1  0.5731280000000  0.4102540000000  0.5079660000000 1.0
C      1  0.4338560000000  0.5057780000000  0.5791560000000 1.0
C      1  0.4887620000000  0.5770090000000  0.4298880000000 1.0
C      1  0.5418230000000  0.4453530000000  0.5267980000000 1.0
C      1  0.5046740000000  0.4089070000000  0.4553560000000 1.0
C      1  0.5024300000000  0.5323110000000  0.3978660000000 1.0
C      1  0.4367210000000  0.4736210000000  0.4094720000000 1.0
C      1  0.4742980000000  0.4187210000000  0.4214210000000 1.0
C      1  0.4946120000000  0.5650320000000  0.4674890000000 1.0
C      1  0.5479470000000  0.5441040000000  0.4392620000000 1.0
C      1  0.4277780000000  0.5423940000000  0.4600830000000 1.0
C      1  0.5384790000000  0.5254440000000  0.4921270000000 1.0
C      1  0.5297430000000  0.4711410000000  0.5639360000000 1.0
C      1  0.4434890000000  0.5903060000000  0.4804810000000 1.0
C      1  0.5467960000000  0.5319310000000  0.5304180000000 1.0
C      1  0.5058150000000  0.4767620000000  0.5098200000000 1.0
C      1  0.6036760000000  0.4588680000000  0.5147480000000 1.0
C      1  0.4438470000000  0.4528310000000  0.5237850000000 1.0
C      1  0.5716880000000  0.5124080000000  0.5894180000000 1.0
C      1  0.5916580000000  0.5249860000000  0.4224840000000 1.0
C      1  0.5740030000000  0.4682110000000  0.5644800000000 1.0
C      1  0.5235210000000  0.3953760000000  0.4992600000000 1.0
C      1  0.4618350000000  0.5780400000000  0.5355600000000 1.0
C      1  0.4787170000000  0.5094030000000  0.4007910000000 1.0
C      1  0.5938850000000  0.4735440000000  0.4513990000000 1.0
C      1  0.5230070000000  0.4393400000000  0.4731530000000 1.0
C      1  0.4045160000000  0.4921200000000  0.5359860000000 1.0
C      1  0.4480520000000  0.4739680000000  0.4974830000000 1.0
C      1  0.5262850000000  0.3995370000000  0.4722490000000 1.0
C      1  0.5737740000000  0.5423010000000  0.5460330000000 1.0
C      1  0.4995110000000  0.5463080000000  0.4256400000000 1.0
C      1  0.5219830000000  0.5781400000000  0.5075910000000 1.0
C      1  0.5000650000000  0.5384580000000  0.5105690000000 1.0
C      1  0.5010290000000  0.5710140000000  0.5334110000000 1.0
C      1  0.4855650000000  0.4287780000000  0.5129790000000 1.0
C      1  0.4742310000000  0.4678580000000  0.5590040000000 1.0
C      1  0.5654320000000  0.4863830000000  0.4071800000000 1.0
C      1  0.4264710000000  0.4327070000000  0.5440170000000 1.0
C      1  0.4785600000000  0.4836820000000  0.4666280000000 1.0
C      1  0.4025840000000  0.5099190000000  0.4433150000000 1.0
C      1  0.4468490000000  0.5122000000000  0.4124670000000 1.0
C      1  0.4524980000000  0.4452840000000  0.5712970000000 1.0
C      1  0.5448410000000  0.4120390000000  0.5206560000000 1.0
C      1  0.5424610000000  0.4523500000000  0.4484440000000 1.0
C      1  0.6141090000000  0.4829000000000  0.4956850000000 1.0
C      1  0.4352020000000  0.5517380000000  0.5494050000000 1.0
C      1  0.4296480000000  0.4531160000000  0.4447310000000 1.0
C      1  0.5903230000000  0.4963480000000  0.5127710000000 1.0
C      1  0.4664170000000  0.4653720000000  0.5923330000000 1.0
C      1  0.4092910000000  0.5596190000000  0.5065470000000 1.0
C      1  0.4096390000000  0.5464870000000  0.5309930000000 1.0
C      1  0.5274760000000  0.4915040000000  0.3959020000000 1.0
C      1  0.4529390000000  0.4206310000000  0.5165210000000 1.0
C      1  0.5395560000000  0.4756120000000  0.4735030000000 1.0
C      1  0.4847250000000  0.4804890000000  0.4274040000000 1.0
C      1  0.4002300000000  0.4736640000000  0.5142160000000 1.0
C      1  0.5005540000000  0.4867700000000  0.3892630000000 1.0
C      1  0.5388670000000  0.5990640000000  0.4869450000000 1.0
C      1  0.4539110000000  0.4802280000000  0.5380830000000 1.0
C      1  0.5338830000000  0.5179370000000  0.4504480000000 1.0
C      1  0.5481460000000  0.5023760000000  0.5151690000000 1.0
C      1  0.4717180000000  0.5574400000000  0.5103730000000 1.0
C      1  0.4162600000000  0.4870580000000  0.4608660000000 1.0
C      1  0.4193750000000  0.5324580000000  0.5705020000000 1.0
C      1  0.4918150000000  0.4262240000000  0.4796210000000 1.0
C      1  0.5193550000000  0.4988280000000  0.4878080000000 1.0
C      1  0.4992040000000  0.4324770000000  0.5749590000000 1.0
C      1  0.5718280000000  0.4828370000000  0.4364550000000 1.0
C      1  0.5858610000000  0.5145930000000  0.5609250000000 1.0
END
