TITL C-2847952-8118-471 -0.00737130739929174 125000 -397.08283221566 0 0 73 (C1) n - 1
REM
REM in /home/bkarasulu/work/CARBON/AIRSS/Generating-Clusters/AIREBO/with-SteepDescent/Only-C1/SD-CG-opt/Try1-1.4A-POS3A/HFTN-CG
REM
REM
REM
REM
REM
REM ./C.cell (11c1c37f851c82e70ff6c80c92926a4b)
REM
REM compiler GCC version 9.2.1 20190827 (Red Hat 9.2.1-1)
REM options -cpp -mtune=generic -march=x86-64 -g -O0 -fpre-include=/usr/include/finclude/math-vector-fortran.h
REM seed 1306305206 1990063507 -1845907188 442061706 -268477953 1314059883 -1500294928 1087020163 -45400816 -1590558386 1574414869 1701919566 -2012241371 1775690244 -104461384 -1093100218 1113563438 -1688887619 -884973928 -1565473712 1117416859 -63883697 1415803415 778385328 433465094 100000775 -706038526 -966813726 -1147258396 -1858633392 1639109327 319738280 -1461981912
REM
CELL 1.54180   50.00000   50.00000   50.00000   90.00000   90.00000   90.00000
LATT -1
SFAC C  
C      1  0.4646990000000  0.5584340000000  0.4571250000000 1.0
C      1  0.4552170000000  0.5329420000000  0.5033490000000 1.0
C      1  0.5759120000000  0.4709370000000  0.5183130000000 1.0
C      1  0.4777540000000  0.5079630000000  0.4980990000000 1.0
C      1  0.5709000000000  0.4716310000000  0.4741960000000 1.0
C      1  0.4831420000000  0.4386080000000  0.4922240000000 1.0
C      1  0.4195760000000  0.4473020000000  0.5661780000000 1.0
C      1  0.5121770000000  0.5224680000000  0.5664000000000 1.0
C      1  0.4329360000000  0.4564010000000  0.5445600000000 1.0
C      1  0.5124970000000  0.5574300000000  0.5278750000000 1.0
C      1  0.4780490000000  0.4589550000000  0.4425020000000 1.0
C      1  0.5376800000000  0.5424360000000  0.4614480000000 1.0
C      1  0.4882160000000  0.4623130000000  0.5597860000000 1.0
C      1  0.4424980000000  0.4380140000000  0.5245400000000 1.0
C      1  0.5378470000000  0.4786740000000  0.5582070000000 1.0
C      1  0.4259080000000  0.5246210000000  0.5001310000000 1.0
C      1  0.4383110000000  0.4836510000000  0.5408530000000 1.0
C      1  0.5722240000000  0.4985660000000  0.5123270000000 1.0
C      1  0.4474740000000  0.4710930000000  0.4929420000000 1.0
C      1  0.4312580000000  0.5076010000000  0.5537150000000 1.0
C      1  0.4779740000000  0.5308270000000  0.4660600000000 1.0
C      1  0.5234280000000  0.4229390000000  0.5516020000000 1.0
C      1  0.4971550000000  0.5235900000000  0.4420560000000 1.0
C      1  0.4331930000000  0.4832420000000  0.4432210000000 1.0
C      1  0.4284700000000  0.5547730000000  0.5672370000000 1.0
C      1  0.5279350000000  0.5054810000000  0.5152940000000 1.0
C      1  0.5114130000000  0.4779620000000  0.5132270000000 1.0
C      1  0.5042730000000  0.4215970000000  0.4717270000000 1.0
C      1  0.5628860000000  0.5162980000000  0.5317600000000 1.0
C      1  0.5076850000000  0.5273250000000  0.5199130000000 1.0
C      1  0.5625720000000  0.5045780000000  0.4802520000000 1.0
C      1  0.5562370000000  0.5544920000000  0.5044810000000 1.0
C      1  0.4605130000000  0.5595090000000  0.4874810000000 1.0
C      1  0.4935300000000  0.5376850000000  0.4931960000000 1.0
C      1  0.4945440000000  0.4596730000000  0.4680770000000 1.0
C      1  0.5298010000000  0.4957800000000  0.4825490000000 1.0
C      1  0.4662590000000  0.5041450000000  0.4100400000000 1.0
C      1  0.5165390000000  0.5031840000000  0.4054760000000 1.0
C      1  0.5355440000000  0.5348800000000  0.5831870000000 1.0
C      1  0.5403290000000  0.4637290000000  0.4868050000000 1.0
C      1  0.4650580000000  0.4540670000000  0.4210660000000 1.0
C      1  0.5659770000000  0.5059360000000  0.4464410000000 1.0
C      1  0.4924190000000  0.5106680000000  0.4157540000000 1.0
C      1  0.5546900000000  0.4528960000000  0.5124260000000 1.0
C      1  0.5687270000000  0.5432600000000  0.5270950000000 1.0
C      1  0.4877760000000  0.5202370000000  0.5420960000000 1.0
C      1  0.4636300000000  0.5396390000000  0.5350690000000 1.0
C      1  0.4798840000000  0.5744080000000  0.5010210000000 1.0
C      1  0.5161200000000  0.4610420000000  0.5423410000000 1.0
C      1  0.5547030000000  0.4575190000000  0.4505040000000 1.0
C      1  0.5006470000000  0.4457960000000  0.5156450000000 1.0
C      1  0.4352650000000  0.4787140000000  0.4696200000000 1.0
C      1  0.5576270000000  0.5382710000000  0.4811860000000 1.0
C      1  0.4957280000000  0.4929420000000  0.5700990000000 1.0
C      1  0.4777320000000  0.4891490000000  0.5414980000000 1.0
C      1  0.4995160000000  0.4313460000000  0.5632280000000 1.0
C      1  0.4972180000000  0.4863440000000  0.4849190000000 1.0
C      1  0.4559520000000  0.4900710000000  0.5153840000000 1.0
C      1  0.4404110000000  0.5342840000000  0.5535760000000 1.0
C      1  0.5363980000000  0.5079180000000  0.5474460000000 1.0
C      1  0.5382670000000  0.5025450000000  0.4268260000000 1.0
C      1  0.5395190000000  0.4391160000000  0.5310310000000 1.0
C      1  0.4462120000000  0.4893320000000  0.4204270000000 1.0
C      1  0.5182110000000  0.5628930000000  0.4611800000000 1.0
C      1  0.5256860000000  0.4464680000000  0.4631300000000 1.0
C      1  0.4958770000000  0.5576980000000  0.4435720000000 1.0
C      1  0.5256300000000  0.5147880000000  0.4543040000000 1.0
C      1  0.4547130000000  0.4449730000000  0.4999980000000 1.0
C      1  0.5327610000000  0.5694460000000  0.5095780000000 1.0
C      1  0.5087410000000  0.5671510000000  0.4892670000000 1.0
C      1  0.4840100000000  0.5650320000000  0.5281700000000 1.0
C      1  0.5587490000000  0.4778430000000  0.4313230000000 1.0
C      1  0.4915920000000  0.5364800000000  0.5863650000000 1.0
END
