TITL C-2848498-1409-173 0.00640603733190498 125000 -832.091880062978 0 0 153 (C1) n - 1
REM
REM in /home/bkarasulu/work/CARBON/AIRSS/Generating-Clusters/AIREBO/with-SteepDescent/Only-C1/SD-CG-opt/Try1-1.4A-POS3A/HFTN-CG
REM
REM
REM
REM
REM
REM ./C.cell (11c1c37f851c82e70ff6c80c92926a4b)
REM
REM compiler GCC version 9.2.1 20190827 (Red Hat 9.2.1-1)
REM options -cpp -mtune=generic -march=x86-64 -g -O0 -fpre-include=/usr/include/finclude/math-vector-fortran.h
REM seed -1791329561 -7271295 -905165299 1393580028 813810389 62747945 -1357898647 -1229028 886994045 -659697087 1043750975 -1659193991 1591910176 -1492766003 1328515942 1367147351 160184923 -962682822 -474017721 208935205 861597192 -54541895 493974347 715087428 -598271168 -1316098355 1054325107 -1972815089 -723392221 1689565138 -1263276609 2034588917 -193886670
REM
CELL 1.54180   50.00000   50.00000   50.00000   90.00000   90.00000   90.00000
LATT -1
SFAC C  
C      1  0.5444310000000  0.4460880000000  0.5666100000000 1.0
C      1  0.4339780000000  0.4997350000000  0.5398760000000 1.0
C      1  0.4722100000000  0.4117260000000  0.5630600000000 1.0
C      1  0.5838040000000  0.5086210000000  0.4332260000000 1.0
C      1  0.4501100000000  0.4324930000000  0.5006060000000 1.0
C      1  0.4003030000000  0.4851280000000  0.4609830000000 1.0
C      1  0.5048920000000  0.4202390000000  0.5618450000000 1.0
C      1  0.5533080000000  0.5656180000000  0.5151390000000 1.0
C      1  0.4667770000000  0.4941230000000  0.4979150000000 1.0
C      1  0.5801030000000  0.4794190000000  0.5772560000000 1.0
C      1  0.4936260000000  0.5470200000000  0.4077580000000 1.0
C      1  0.4948760000000  0.4678130000000  0.5437630000000 1.0
C      1  0.4182090000000  0.4414550000000  0.5228620000000 1.0
C      1  0.5615200000000  0.5191350000000  0.4161250000000 1.0
C      1  0.4860290000000  0.4884700000000  0.4722220000000 1.0
C      1  0.5334570000000  0.5102370000000  0.5649390000000 1.0
C      1  0.4892490000000  0.6058440000000  0.5152650000000 1.0
C      1  0.5298930000000  0.4115100000000  0.4555530000000 1.0
C      1  0.5345020000000  0.5013040000000  0.4610690000000 1.0
C      1  0.4324980000000  0.4195270000000  0.5431550000000 1.0
C      1  0.5807020000000  0.4378240000000  0.5331470000000 1.0
C      1  0.4152830000000  0.5210470000000  0.5224380000000 1.0
C      1  0.5640990000000  0.4630400000000  0.4835350000000 1.0
C      1  0.5529720000000  0.4571440000000  0.5369230000000 1.0
C      1  0.4778960000000  0.4890360000000  0.3962470000000 1.0
C      1  0.4908010000000  0.4676230000000  0.5974830000000 1.0
C      1  0.4196840000000  0.5811680000000  0.5383730000000 1.0
C      1  0.5099160000000  0.4481060000000  0.6016400000000 1.0
C      1  0.4259010000000  0.4694530000000  0.4217380000000 1.0
C      1  0.4485390000000  0.4488780000000  0.5370220000000 1.0
C      1  0.5102820000000  0.4197300000000  0.4812230000000 1.0
C      1  0.5130760000000  0.5081870000000  0.4387710000000 1.0
C      1  0.4623060000000  0.5141520000000  0.5519610000000 1.0
C      1  0.4492320000000  0.4794430000000  0.4037030000000 1.0
C      1  0.4546910000000  0.5099330000000  0.4470430000000 1.0
C      1  0.4945240000000  0.5049810000000  0.5075440000000 1.0
C      1  0.5558960000000  0.5820110000000  0.4789880000000 1.0
C      1  0.5194280000000  0.5364950000000  0.4258100000000 1.0
C      1  0.4095130000000  0.4900010000000  0.4333330000000 1.0
C      1  0.5104050000000  0.5718070000000  0.5851030000000 1.0
C      1  0.5228380000000  0.4371320000000  0.5795460000000 1.0
C      1  0.4392740000000  0.5556410000000  0.5646280000000 1.0
C      1  0.4642460000000  0.5699240000000  0.5028440000000 1.0
C      1  0.5432820000000  0.5029130000000  0.4047280000000 1.0
C      1  0.5810930000000  0.5652850000000  0.4863660000000 1.0
C      1  0.4282210000000  0.5034440000000  0.4674280000000 1.0
C      1  0.5228440000000  0.4822890000000  0.4188680000000 1.0
C      1  0.4893280000000  0.4978200000000  0.6017860000000 1.0
C      1  0.5250730000000  0.5364570000000  0.4775110000000 1.0
C      1  0.5451140000000  0.5978660000000  0.5081210000000 1.0
C      1  0.6074220000000  0.4960800000000  0.4327270000000 1.0
C      1  0.4974180000000  0.5237490000000  0.6022280000000 1.0
C      1  0.5371020000000  0.4937040000000  0.5354000000000 1.0
C      1  0.5806110000000  0.4863620000000  0.4986360000000 1.0
C      1  0.4252850000000  0.4496250000000  0.4689900000000 1.0
C      1  0.4439800000000  0.5326010000000  0.4280900000000 1.0
C      1  0.5569180000000  0.4174830000000  0.5340800000000 1.0
C      1  0.4836520000000  0.5541950000000  0.5233470000000 1.0
C      1  0.4967640000000  0.4704930000000  0.4063820000000 1.0
C      1  0.5093680000000  0.5206540000000  0.5452040000000 1.0
C      1  0.5132440000000  0.3875910000000  0.4578340000000 1.0
C      1  0.4417970000000  0.4746790000000  0.5580710000000 1.0
C      1  0.5476240000000  0.5126650000000  0.5092010000000 1.0
C      1  0.4885640000000  0.5975870000000  0.4876690000000 1.0
C      1  0.5348290000000  0.4117070000000  0.5485870000000 1.0
C      1  0.5902590000000  0.4571350000000  0.5131380000000 1.0
C      1  0.5253200000000  0.5287260000000  0.5908290000000 1.0
C      1  0.4894100000000  0.4989630000000  0.5380530000000 1.0
C      1  0.5731590000000  0.4823170000000  0.5477980000000 1.0
C      1  0.5531010000000  0.4447440000000  0.5052570000000 1.0
C      1  0.5451680000000  0.5738720000000  0.4493670000000 1.0
C      1  0.5094270000000  0.3916960000000  0.5244720000000 1.0
C      1  0.4184160000000  0.5348290000000  0.4587050000000 1.0
C      1  0.4623250000000  0.4138960000000  0.4531850000000 1.0
C      1  0.5109960000000  0.4680420000000  0.4716410000000 1.0
C      1  0.4434800000000  0.5555880000000  0.4496980000000 1.0
C      1  0.4354850000000  0.5024120000000  0.5789840000000 1.0
C      1  0.4086300000000  0.4489710000000  0.4986410000000 1.0
C      1  0.4936540000000  0.4193780000000  0.5173620000000 1.0
C      1  0.4728660000000  0.4655670000000  0.5686080000000 1.0
C      1  0.4611290000000  0.3823550000000  0.4888970000000 1.0
C      1  0.5197470000000  0.5477090000000  0.5630050000000 1.0
C      1  0.4620720000000  0.5372330000000  0.4054230000000 1.0
C      1  0.5189980000000  0.5892380000000  0.5491030000000 1.0
C      1  0.3919610000000  0.4678420000000  0.4812460000000 1.0
C      1  0.5439050000000  0.5541480000000  0.5435150000000 1.0
C      1  0.4833070000000  0.4518260000000  0.4264660000000 1.0
C      1  0.4724310000000  0.4662290000000  0.4540910000000 1.0
C      1  0.5575160000000  0.4113220000000  0.5006480000000 1.0
C      1  0.4231360000000  0.5280360000000  0.5547840000000 1.0
C      1  0.5303620000000  0.5648730000000  0.4914590000000 1.0
C      1  0.4831840000000  0.5682310000000  0.5883530000000 1.0
C      1  0.5490090000000  0.5937520000000  0.5427720000000 1.0
C      1  0.4188870000000  0.5252860000000  0.4917740000000 1.0
C      1  0.4734320000000  0.5690640000000  0.4525600000000 1.0
C      1  0.4253160000000  0.5641210000000  0.4973950000000 1.0
C      1  0.4959530000000  0.5669350000000  0.5481420000000 1.0
C      1  0.4810920000000  0.4416510000000  0.4974910000000 1.0
C      1  0.5283470000000  0.4310700000000  0.4369500000000 1.0
C      1  0.4591060000000  0.4487830000000  0.4724320000000 1.0
C      1  0.4507040000000  0.5473960000000  0.4818990000000 1.0
C      1  0.5656990000000  0.5135690000000  0.5379880000000 1.0
C      1  0.4701250000000  0.5939410000000  0.5339580000000 1.0
C      1  0.4415430000000  0.5886040000000  0.4857570000000 1.0
C      1  0.4580100000000  0.4339870000000  0.4353290000000 1.0
C      1  0.5009310000000  0.5376300000000  0.5032880000000 1.0
C      1  0.5861000000000  0.4470710000000  0.4656710000000 1.0
C      1  0.4532780000000  0.5313680000000  0.5803800000000 1.0
C      1  0.4335540000000  0.4768240000000  0.4845990000000 1.0
C      1  0.4339740000000  0.4479100000000  0.4386640000000 1.0
C      1  0.4661230000000  0.5753190000000  0.5621430000000 1.0
C      1  0.5122520000000  0.4497180000000  0.4972270000000 1.0
C      1  0.5603020000000  0.5182310000000  0.4558450000000 1.0
C      1  0.5863080000000  0.5409830000000  0.4754180000000 1.0
C      1  0.5217200000000  0.4650480000000  0.5260700000000 1.0
C      1  0.5078490000000  0.4504260000000  0.4452080000000 1.0
C      1  0.4499280000000  0.5203320000000  0.5024670000000 1.0
C      1  0.4857510000000  0.5165940000000  0.4572160000000 1.0
C      1  0.4805050000000  0.4370220000000  0.5418970000000 1.0
C      1  0.4841750000000  0.5456810000000  0.4747940000000 1.0
C      1  0.4566960000000  0.5384660000000  0.5288570000000 1.0
C      1  0.5224310000000  0.5873240000000  0.4322460000000 1.0
C      1  0.5514730000000  0.5437590000000  0.4346370000000 1.0
C      1  0.4766620000000  0.5421650000000  0.5967210000000 1.0
C      1  0.5452880000000  0.5353500000000  0.6089830000000 1.0
C      1  0.5421670000000  0.4715200000000  0.4624180000000 1.0
C      1  0.4661860000000  0.5938070000000  0.4705460000000 1.0
C      1  0.4151050000000  0.5170580000000  0.4298070000000 1.0
C      1  0.4684560000000  0.4947970000000  0.5792410000000 1.0
C      1  0.4460550000000  0.4052710000000  0.5630410000000 1.0
C      1  0.5444500000000  0.4598090000000  0.4324920000000 1.0
C      1  0.6048760000000  0.5206000000000  0.5353920000000 1.0
C      1  0.6225600000000  0.4752450000000  0.5281210000000 1.0
C      1  0.5716450000000  0.5137830000000  0.4863660000000 1.0
C      1  0.5278890000000  0.5357480000000  0.5226750000000 1.0
C      1  0.5183030000000  0.5540560000000  0.4535200000000 1.0
C      1  0.4487820000000  0.4081390000000  0.4802160000000 1.0
C      1  0.5701270000000  0.5727060000000  0.5507230000000 1.0
C      1  0.5673640000000  0.4365390000000  0.4419620000000 1.0
C      1  0.4968300000000  0.5688470000000  0.4316010000000 1.0
C      1  0.5974780000000  0.4913510000000  0.5275390000000 1.0
C      1  0.5819400000000  0.5427080000000  0.5394620000000 1.0
C      1  0.4512480000000  0.4657600000000  0.5076340000000 1.0
C      1  0.5020980000000  0.5728980000000  0.4845390000000 1.0
C      1  0.5856220000000  0.5649240000000  0.5155260000000 1.0
C      1  0.4448070000000  0.5718560000000  0.5285960000000 1.0
C      1  0.5263310000000  0.4143820000000  0.5086750000000 1.0
C      1  0.4611890000000  0.4846230000000  0.4322600000000 1.0
C      1  0.4845540000000  0.5149800000000  0.4008840000000 1.0
C      1  0.5161450000000  0.6058040000000  0.5240710000000 1.0
C      1  0.5216010000000  0.5062920000000  0.4898030000000 1.0
C      1  0.5633020000000  0.4246230000000  0.4724610000000 1.0
C      1  0.4861110000000  0.3978100000000  0.4714020000000 1.0
END
