TITL C-2848495-5024-329 0.000101129315030898 125000 -152.040343604309 0 0 30 (C1) n - 1
REM
REM in /home/bkarasulu/work/CARBON/AIRSS/Generating-Clusters/AIREBO/with-SteepDescent/Only-C1/SD-CG-opt/Try1-1.4A-POS3A/HFTN-CG
REM
REM
REM
REM
REM
REM ./C.cell (11c1c37f851c82e70ff6c80c92926a4b)
REM
REM compiler GCC version 9.2.1 20190827 (Red Hat 9.2.1-1)
REM options -cpp -mtune=generic -march=x86-64 -g -O0 -fpre-include=/usr/include/finclude/math-vector-fortran.h
REM seed -2096008373 176370779 759846125 1978380320 -59335447 -248512757 -1585562705 -1940802571 -1070055952 2074162357 -388062589 -1371265096 -1727006204 1363401449 -494835288 1871508532 1671301663 1432049869 -1422267629 738881042 -800342161 1509839225 1512100118 -835396959 -975212143 1402320934 2100048537 659811996 425802623 -816793479 -1489765429 -365616404 -884428824
REM
CELL 1.54180   50.00000   50.00000   50.00000   90.00000   90.00000   90.00000
LATT -1
SFAC C  
C      1  0.4574130000000  0.5279780000000  0.4915200000000 1.0
C      1  0.5412640000000  0.5275480000000  0.4870820000000 1.0
C      1  0.5100990000000  0.5187200000000  0.5375070000000 1.0
C      1  0.4413330000000  0.4994700000000  0.5125020000000 1.0
C      1  0.4865980000000  0.4736460000000  0.4874550000000 1.0
C      1  0.4630840000000  0.4917880000000  0.4611390000000 1.0
C      1  0.5478050000000  0.5438900000000  0.5112660000000 1.0
C      1  0.4551440000000  0.5207550000000  0.5306800000000 1.0
C      1  0.5066580000000  0.4904900000000  0.5537960000000 1.0
C      1  0.5505110000000  0.4984800000000  0.4760970000000 1.0
C      1  0.4948540000000  0.5002910000000  0.4698180000000 1.0
C      1  0.5669170000000  0.4748590000000  0.4610860000000 1.0
C      1  0.4865750000000  0.5269920000000  0.5190160000000 1.0
C      1  0.5128490000000  0.4532540000000  0.4880220000000 1.0
C      1  0.4968120000000  0.4781150000000  0.5735520000000 1.0
C      1  0.5427520000000  0.4662200000000  0.4832350000000 1.0
C      1  0.4599870000000  0.4235780000000  0.4746060000000 1.0
C      1  0.4741840000000  0.4991560000000  0.5037280000000 1.0
C      1  0.5223880000000  0.5631180000000  0.5174110000000 1.0
C      1  0.5191110000000  0.4907950000000  0.5228670000000 1.0
C      1  0.5201130000000  0.4985570000000  0.4913180000000 1.0
C      1  0.4433340000000  0.5030420000000  0.4788690000000 1.0
C      1  0.5310730000000  0.4641660000000  0.5134040000000 1.0
C      1  0.4833860000000  0.4411670000000  0.4919030000000 1.0
C      1  0.4684110000000  0.5518750000000  0.4935890000000 1.0
C      1  0.5163620000000  0.5415860000000  0.4744850000000 1.0
C      1  0.4674350000000  0.4127710000000  0.5017840000000 1.0
C      1  0.4994130000000  0.5516070000000  0.4993540000000 1.0
C      1  0.5035640000000  0.5258730000000  0.4549370000000 1.0
C      1  0.5305720000000  0.5402120000000  0.5379730000000 1.0
END
