TITL C-2847944-5688-514 0.00067063153965544 125000 -473.85737895037 0 0 91 (C1) n - 1
REM
REM in /home/bkarasulu/work/CARBON/AIRSS/Generating-Clusters/AIREBO/with-SteepDescent/Only-C1/SD-CG-opt/Try1-1.4A-POS3A/HFTN-CG
REM
REM
REM
REM
REM
REM ./C.cell (11c1c37f851c82e70ff6c80c92926a4b)
REM
REM compiler GCC version 9.2.1 20190827 (Red Hat 9.2.1-1)
REM options -cpp -mtune=generic -march=x86-64 -g -O0 -fpre-include=/usr/include/finclude/math-vector-fortran.h
REM seed 2094496704 -1983041801 -737977246 362396122 -1735181325 -1075401352 261704847 -1611012414 789012394 523525873 2041520675 8971157 -705930665 -484479708 1834529133 -1426361310 -848499591 -1632699465 -1805171540 -981099642 -263279908 119583955 1020532447 -2101197563 -1360949617 -784930200 586321359 948545291 1136242490 1271875211 818271264 -1303993519 -14993194
REM
CELL 1.54180   50.00000   50.00000   50.00000   90.00000   90.00000   90.00000
LATT -1
SFAC C  
C      1  0.4830310000000  0.5553870000000  0.4986300000000 1.0
C      1  0.5599840000000  0.4804370000000  0.5188670000000 1.0
C      1  0.5027820000000  0.5930960000000  0.4868810000000 1.0
C      1  0.5921560000000  0.4972560000000  0.4862580000000 1.0
C      1  0.4416780000000  0.5494160000000  0.4681590000000 1.0
C      1  0.5324070000000  0.5520320000000  0.4782180000000 1.0
C      1  0.4350220000000  0.4963280000000  0.5552640000000 1.0
C      1  0.4141140000000  0.5008510000000  0.5335330000000 1.0
C      1  0.4834690000000  0.4952320000000  0.6002830000000 1.0
C      1  0.5420660000000  0.5883530000000  0.5361370000000 1.0
C      1  0.4875500000000  0.5015930000000  0.4098880000000 1.0
C      1  0.5170590000000  0.4526470000000  0.5426220000000 1.0
C      1  0.4976130000000  0.4862810000000  0.4653340000000 1.0
C      1  0.5235050000000  0.5198240000000  0.5454800000000 1.0
C      1  0.5628810000000  0.4424230000000  0.5764460000000 1.0
C      1  0.5126770000000  0.4514440000000  0.4343400000000 1.0
C      1  0.5239380000000  0.5400080000000  0.5728470000000 1.0
C      1  0.4464820000000  0.4726570000000  0.5127580000000 1.0
C      1  0.5123280000000  0.5452910000000  0.5037040000000 1.0
C      1  0.4453170000000  0.5047040000000  0.4337310000000 1.0
C      1  0.4968400000000  0.4763690000000  0.5518600000000 1.0
C      1  0.5828710000000  0.4755890000000  0.4994350000000 1.0
C      1  0.5196970000000  0.4914330000000  0.5316750000000 1.0
C      1  0.4577160000000  0.5295730000000  0.5217110000000 1.0
C      1  0.4535160000000  0.5604290000000  0.5334340000000 1.0
C      1  0.4808620000000  0.5343540000000  0.5462880000000 1.0
C      1  0.5484290000000  0.4360560000000  0.5243210000000 1.0
C      1  0.4856490000000  0.4801990000000  0.5139870000000 1.0
C      1  0.5102150000000  0.4580720000000  0.5121690000000 1.0
C      1  0.5557970000000  0.5367120000000  0.5609950000000 1.0
C      1  0.5285780000000  0.4340680000000  0.4564120000000 1.0
C      1  0.4896780000000  0.4412010000000  0.4921300000000 1.0
C      1  0.5147580000000  0.5060760000000  0.4248340000000 1.0
C      1  0.5225500000000  0.5678720000000  0.5269920000000 1.0
C      1  0.4150730000000  0.4767710000000  0.4524570000000 1.0
C      1  0.5524740000000  0.5159840000000  0.4548810000000 1.0
C      1  0.4778640000000  0.4641790000000  0.4196710000000 1.0
C      1  0.4990000000000  0.5883130000000  0.5142760000000 1.0
C      1  0.5361480000000  0.5260880000000  0.4082220000000 1.0
C      1  0.4567510000000  0.5618750000000  0.4486190000000 1.0
C      1  0.4823890000000  0.4982940000000  0.4898030000000 1.0
C      1  0.4674500000000  0.5167240000000  0.4213980000000 1.0
C      1  0.4183670000000  0.5369110000000  0.4586750000000 1.0
C      1  0.4589860000000  0.4920660000000  0.5768860000000 1.0
C      1  0.4782020000000  0.5429140000000  0.4336250000000 1.0
C      1  0.5295320000000  0.4848840000000  0.4749940000000 1.0
C      1  0.5054820000000  0.4218390000000  0.5430300000000 1.0
C      1  0.5427420000000  0.5406620000000  0.5298410000000 1.0
C      1  0.4722730000000  0.5233460000000  0.5751910000000 1.0
C      1  0.4610750000000  0.4346560000000  0.5745080000000 1.0
C      1  0.4611300000000  0.5320480000000  0.4879470000000 1.0
C      1  0.5038760000000  0.5158180000000  0.5860650000000 1.0
C      1  0.4858650000000  0.5347610000000  0.4647610000000 1.0
C      1  0.5311550000000  0.5008550000000  0.5726430000000 1.0
C      1  0.4613310000000  0.4290310000000  0.4879860000000 1.0
C      1  0.4466480000000  0.4801310000000  0.4571970000000 1.0
C      1  0.5485420000000  0.4527920000000  0.5523650000000 1.0
C      1  0.4538060000000  0.4976190000000  0.5307340000000 1.0
C      1  0.5509280000000  0.4524140000000  0.4661430000000 1.0
C      1  0.5747710000000  0.5219550000000  0.4789410000000 1.0
C      1  0.5086380000000  0.5149920000000  0.4560490000000 1.0
C      1  0.5314450000000  0.5182010000000  0.4815150000000 1.0
C      1  0.4230070000000  0.4951970000000  0.5060150000000 1.0
C      1  0.4568760000000  0.5435540000000  0.5919800000000 1.0
C      1  0.5513130000000  0.4822030000000  0.4497530000000 1.0
C      1  0.4828820000000  0.5034550000000  0.5384210000000 1.0
C      1  0.5025640000000  0.5639730000000  0.4697330000000 1.0
C      1  0.4724210000000  0.5756060000000  0.5197940000000 1.0
C      1  0.4716470000000  0.4509010000000  0.5197900000000 1.0
C      1  0.4774590000000  0.4687020000000  0.4484250000000 1.0
C      1  0.5281890000000  0.4785040000000  0.4293920000000 1.0
C      1  0.5089580000000  0.5115690000000  0.5064510000000 1.0
C      1  0.5611120000000  0.5524220000000  0.4728510000000 1.0
C      1  0.4379320000000  0.4463730000000  0.4990300000000 1.0
C      1  0.5656530000000  0.5085040000000  0.5644970000000 1.0
C      1  0.4439720000000  0.4481050000000  0.4683070000000 1.0
C      1  0.4488650000000  0.5005190000000  0.4844590000000 1.0
C      1  0.5038760000000  0.5540330000000  0.5510450000000 1.0
C      1  0.4792540000000  0.4401670000000  0.5462490000000 1.0
C      1  0.5542190000000  0.5297420000000  0.5047060000000 1.0
C      1  0.5338330000000  0.4071230000000  0.4535050000000 1.0
C      1  0.5048740000000  0.4726860000000  0.4053360000000 1.0
C      1  0.5108020000000  0.5520250000000  0.4389790000000 1.0
C      1  0.4977970000000  0.4464400000000  0.4641600000000 1.0
C      1  0.4749520000000  0.4636030000000  0.5705110000000 1.0
C      1  0.5481120000000  0.4844110000000  0.5481120000000 1.0
C      1  0.5624660000000  0.4483360000000  0.4959380000000 1.0
C      1  0.5291690000000  0.4162700000000  0.5267220000000 1.0
C      1  0.5359750000000  0.5380060000000  0.4354140000000 1.0
C      1  0.5352930000000  0.4685200000000  0.4991870000000 1.0
C      1  0.4213690000000  0.5196610000000  0.4371870000000 1.0
END
