TITL C-2847946-5639-319 0.000768800268046839 125000 -390.196553197966 0 0 70 (C1) n - 1
REM
REM in /home/bkarasulu/work/CARBON/AIRSS/Generating-Clusters/AIREBO/with-SteepDescent/Only-C1/SD-CG-opt/Try1-1.4A-POS3A/HFTN-CG
REM
REM
REM
REM
REM
REM ./C.cell (11c1c37f851c82e70ff6c80c92926a4b)
REM
REM compiler GCC version 9.2.1 20190827 (Red Hat 9.2.1-1)
REM options -cpp -mtune=generic -march=x86-64 -g -O0 -fpre-include=/usr/include/finclude/math-vector-fortran.h
REM seed 999223763 619680833 -673284979 -2071587777 -1117623970 575605895 322854612 -515724682 1527907295 1616902513 -163647428 2032081266 -1155548094 -1487516029 1705767232 1810791377 -1626510208 -1971265637 1456957872 499885402 1922145946 433012402 825608005 1523969330 -2065630382 1699186952 -1657613908 292502399 -1988062090 1133071568 861922044 256527442 2073853266
REM
CELL 1.54180   50.00000   50.00000   50.00000   90.00000   90.00000   90.00000
LATT -1
SFAC C  
C      1  0.5645010000000  0.4813560000000  0.4983240000000 1.0
C      1  0.4381970000000  0.4785180000000  0.4870720000000 1.0
C      1  0.5302260000000  0.5196560000000  0.5696590000000 1.0
C      1  0.5597180000000  0.5259990000000  0.5298490000000 1.0
C      1  0.4972480000000  0.5235770000000  0.5314720000000 1.0
C      1  0.5489320000000  0.5548820000000  0.5435300000000 1.0
C      1  0.5018540000000  0.5324660000000  0.4927550000000 1.0
C      1  0.5460750000000  0.5035470000000  0.4540570000000 1.0
C      1  0.4698750000000  0.5133710000000  0.4483430000000 1.0
C      1  0.4507150000000  0.5046680000000  0.5423400000000 1.0
C      1  0.4281180000000  0.5484220000000  0.4902410000000 1.0
C      1  0.4721120000000  0.5716670000000  0.4956290000000 1.0
C      1  0.5231550000000  0.5349190000000  0.4681810000000 1.0
C      1  0.4990340000000  0.5109730000000  0.5699650000000 1.0
C      1  0.5329630000000  0.4735620000000  0.5212530000000 1.0
C      1  0.4533250000000  0.5520340000000  0.5015630000000 1.0
C      1  0.5542310000000  0.5255090000000  0.4757310000000 1.0
C      1  0.4652550000000  0.4637970000000  0.5366580000000 1.0
C      1  0.5238310000000  0.4892200000000  0.4703350000000 1.0
C      1  0.4815850000000  0.4934590000000  0.5335370000000 1.0
C      1  0.4585040000000  0.4694200000000  0.4418540000000 1.0
C      1  0.4723620000000  0.4727200000000  0.5804720000000 1.0
C      1  0.4983560000000  0.4787880000000  0.5592370000000 1.0
C      1  0.4599020000000  0.4619370000000  0.4718200000000 1.0
C      1  0.5319240000000  0.5488630000000  0.5652250000000 1.0
C      1  0.5246520000000  0.5207130000000  0.5115350000000 1.0
C      1  0.5175400000000  0.5632620000000  0.4525830000000 1.0
C      1  0.4201380000000  0.5203680000000  0.4860580000000 1.0
C      1  0.4697630000000  0.4246830000000  0.5155420000000 1.0
C      1  0.4799570000000  0.4598110000000  0.4271000000000 1.0
C      1  0.4890400000000  0.4506940000000  0.5073450000000 1.0
C      1  0.4817730000000  0.5368980000000  0.4362570000000 1.0
C      1  0.5435690000000  0.4797530000000  0.5473550000000 1.0
C      1  0.4683820000000  0.5260130000000  0.5136570000000 1.0
C      1  0.4901580000000  0.4721850000000  0.4831380000000 1.0
C      1  0.4931470000000  0.5638870000000  0.4393090000000 1.0
C      1  0.5331950000000  0.4945500000000  0.4997440000000 1.0
C      1  0.5340510000000  0.4227070000000  0.5110600000000 1.0
C      1  0.4378330000000  0.4551880000000  0.5279960000000 1.0
C      1  0.5269120000000  0.4303340000000  0.5434900000000 1.0
C      1  0.5104660000000  0.5259850000000  0.4399740000000 1.0
C      1  0.4397730000000  0.4388260000000  0.4825560000000 1.0
C      1  0.5409730000000  0.4787310000000  0.4113900000000 1.0
C      1  0.5171700000000  0.4558840000000  0.4696010000000 1.0
C      1  0.4980520000000  0.5719980000000  0.5484100000000 1.0
C      1  0.4996330000000  0.5418330000000  0.5571570000000 1.0
C      1  0.5227270000000  0.4589100000000  0.5569980000000 1.0
C      1  0.5481550000000  0.5065040000000  0.5524910000000 1.0
C      1  0.5068110000000  0.4469680000000  0.4421220000000 1.0
C      1  0.5548060000000  0.5753940000000  0.4999280000000 1.0
C      1  0.4463390000000  0.4974050000000  0.4461110000000 1.0
C      1  0.5542480000000  0.4924510000000  0.4311160000000 1.0
C      1  0.4877930000000  0.5018860000000  0.4996130000000 1.0
C      1  0.5396070000000  0.5750490000000  0.5258500000000 1.0
C      1  0.4980550000000  0.5629750000000  0.5016120000000 1.0
C      1  0.5172670000000  0.4495930000000  0.5185310000000 1.0
C      1  0.5478030000000  0.5433710000000  0.5030990000000 1.0
C      1  0.4372220000000  0.4848460000000  0.5176530000000 1.0
C      1  0.5696760000000  0.5107190000000  0.5011550000000 1.0
C      1  0.4672880000000  0.5012880000000  0.5699910000000 1.0
C      1  0.4353410000000  0.5181590000000  0.5152890000000 1.0
C      1  0.4847750000000  0.4409510000000  0.5399160000000 1.0
C      1  0.5643030000000  0.4553540000000  0.4883280000000 1.0
C      1  0.4292660000000  0.4991030000000  0.4699750000000 1.0
C      1  0.5126470000000  0.4971000000000  0.4327850000000 1.0
C      1  0.5396600000000  0.4410470000000  0.4866370000000 1.0
C      1  0.4926100000000  0.4952820000000  0.4582980000000 1.0
C      1  0.4427470000000  0.4329650000000  0.5102000000000 1.0
C      1  0.5114270000000  0.4694820000000  0.4185040000000 1.0
C      1  0.5112500000000  0.5755660000000  0.5234420000000 1.0
END
