TITL C-2848503-6230-126 2.42468810934786e-05 125000 -358.26940624653 0 0 68 (C1) n - 1
REM
REM in /home/bkarasulu/work/CARBON/AIRSS/Generating-Clusters/AIREBO/with-SteepDescent/Only-C1/SD-CG-opt/Try1-1.4A-POS3A/HFTN-CG
REM
REM
REM
REM
REM
REM ./C.cell (11c1c37f851c82e70ff6c80c92926a4b)
REM
REM compiler GCC version 9.2.1 20190827 (Red Hat 9.2.1-1)
REM options -cpp -mtune=generic -march=x86-64 -g -O0 -fpre-include=/usr/include/finclude/math-vector-fortran.h
REM seed -1873325229 -1734999127 1215902016 -730481363 -1216841403 73098373 -1151523462 841810686 932329934 1514591858 1498957573 -1916662777 -1266472250 -661584071 908140979 -1805392346 2005408258 148809067 -1505642996 1488765965 1615746447 -1115767327 751133939 -1791607447 1319560521 2026914394 -1200118162 -359212783 -93512637 -1507279465 1099958295 -1057019071 -913774051
REM
CELL 1.54180   50.00000   50.00000   50.00000   90.00000   90.00000   90.00000
LATT -1
SFAC C  
C      1  0.4782440000000  0.4271540000000  0.5134510000000 1.0
C      1  0.4795580000000  0.5694940000000  0.4895290000000 1.0
C      1  0.5158400000000  0.4877050000000  0.4782110000000 1.0
C      1  0.5311180000000  0.4516400000000  0.4858390000000 1.0
C      1  0.4520660000000  0.4929000000000  0.5121940000000 1.0
C      1  0.5840030000000  0.5036490000000  0.5074000000000 1.0
C      1  0.4741250000000  0.4823310000000  0.5296730000000 1.0
C      1  0.4568670000000  0.5333270000000  0.4668550000000 1.0
C      1  0.5534430000000  0.4771140000000  0.4822360000000 1.0
C      1  0.4578810000000  0.5191440000000  0.4359110000000 1.0
C      1  0.4773370000000  0.4915350000000  0.4316020000000 1.0
C      1  0.5813900000000  0.5691520000000  0.4551090000000 1.0
C      1  0.4250630000000  0.5213250000000  0.5181600000000 1.0
C      1  0.4059560000000  0.4584370000000  0.4361850000000 1.0
C      1  0.5211380000000  0.5266950000000  0.4715290000000 1.0
C      1  0.5411290000000  0.5519510000000  0.4743070000000 1.0
C      1  0.5416850000000  0.5013430000000  0.4614650000000 1.0
C      1  0.4321440000000  0.4702440000000  0.5088760000000 1.0
C      1  0.4124140000000  0.4952180000000  0.5134240000000 1.0
C      1  0.5461850000000  0.4751430000000  0.4429890000000 1.0
C      1  0.5243120000000  0.5097030000000  0.5008150000000 1.0
C      1  0.4834330000000  0.5176410000000  0.5138840000000 1.0
C      1  0.4970960000000  0.5449780000000  0.5403350000000 1.0
C      1  0.4385840000000  0.5323120000000  0.5409090000000 1.0
C      1  0.4716850000000  0.4963570000000  0.4632800000000 1.0
C      1  0.4783000000000  0.5551650000000  0.4649490000000 1.0
C      1  0.5238360000000  0.4549860000000  0.5698100000000 1.0
C      1  0.5195270000000  0.5346810000000  0.5206730000000 1.0
C      1  0.5774080000000  0.4996640000000  0.4793260000000 1.0
C      1  0.5665300000000  0.5484430000000  0.4639160000000 1.0
C      1  0.5645560000000  0.4924830000000  0.5236150000000 1.0
C      1  0.5402140000000  0.5087280000000  0.5287090000000 1.0
C      1  0.5815020000000  0.4441560000000  0.5137930000000 1.0
C      1  0.4893570000000  0.4783070000000  0.4792960000000 1.0
C      1  0.4825940000000  0.4675360000000  0.5861450000000 1.0
C      1  0.4793420000000  0.4707160000000  0.5596470000000 1.0
C      1  0.5201170000000  0.5149520000000  0.5550220000000 1.0
C      1  0.4274480000000  0.5189830000000  0.4781590000000 1.0
C      1  0.5584700000000  0.4639340000000  0.5121320000000 1.0
C      1  0.5085230000000  0.4597330000000  0.5928090000000 1.0
C      1  0.5397960000000  0.5410960000000  0.5650220000000 1.0
C      1  0.4916980000000  0.4321970000000  0.4598370000000 1.0
C      1  0.5051930000000  0.5768550000000  0.5006060000000 1.0
C      1  0.4602300000000  0.5579070000000  0.5065270000000 1.0
C      1  0.5370720000000  0.4385880000000  0.5496420000000 1.0
C      1  0.5277230000000  0.5748820000000  0.4834880000000 1.0
C      1  0.4917600000000  0.4683290000000  0.4258380000000 1.0
C      1  0.5645930000000  0.5392360000000  0.5758990000000 1.0
C      1  0.4988950000000  0.4409990000000  0.4898600000000 1.0
C      1  0.5022450000000  0.4978140000000  0.5347320000000 1.0
C      1  0.4900370000000  0.5179070000000  0.4821260000000 1.0
C      1  0.5060560000000  0.4477890000000  0.4402940000000 1.0
C      1  0.3921310000000  0.4385760000000  0.4261200000000 1.0
C      1  0.4897540000000  0.4347720000000  0.5378380000000 1.0
C      1  0.5072180000000  0.4637350000000  0.5414540000000 1.0
C      1  0.4675460000000  0.5408380000000  0.5330060000000 1.0
C      1  0.5307770000000  0.4511800000000  0.5199540000000 1.0
C      1  0.5276640000000  0.5686090000000  0.5504540000000 1.0
C      1  0.5062560000000  0.5414770000000  0.5705900000000 1.0
C      1  0.5314770000000  0.4538930000000  0.4519160000000 1.0
C      1  0.4511120000000  0.4461040000000  0.5055700000000 1.0
C      1  0.4791540000000  0.4650840000000  0.5035720000000 1.0
C      1  0.5096380000000  0.5726200000000  0.5277760000000 1.0
C      1  0.5011730000000  0.5466310000000  0.4525550000000 1.0
C      1  0.4214690000000  0.4781820000000  0.4443140000000 1.0
C      1  0.4392340000000  0.4991850000000  0.4561600000000 1.0
C      1  0.5763250000000  0.5221230000000  0.4631710000000 1.0
C      1  0.4533570000000  0.5244350000000  0.4995070000000 1.0
END
