TITL C-2848498-1409-474 -0.018415197247463 125000 -173.719516223888 0 0 31 (C1) n - 1
REM
REM in /home/bkarasulu/work/CARBON/AIRSS/Generating-Clusters/AIREBO/with-SteepDescent/Only-C1/SD-CG-opt/Try1-1.4A-POS3A/HFTN-CG
REM
REM
REM
REM
REM
REM ./C.cell (11c1c37f851c82e70ff6c80c92926a4b)
REM
REM compiler GCC version 9.2.1 20190827 (Red Hat 9.2.1-1)
REM options -cpp -mtune=generic -march=x86-64 -g -O0 -fpre-include=/usr/include/finclude/math-vector-fortran.h
REM seed 972295530 1142117463 -75707837 2071472009 -1306880579 -2137696165 1982389003 -62682201 672257111 1970457672 954924756 -6769031 1927933968 -2101974024 -966387264 -1776204721 1982239422 1479354496 -2122531072 344476032 -333988164 -1067366990 362622477 -1741529953 1375181786 -1397273691 189992840 163424698 788753062 -1547414886 -1803695632 -1215278920 728361487
REM
CELL 1.54180   50.00000   50.00000   50.00000   90.00000   90.00000   90.00000
LATT -1
SFAC C  
C      1  0.5007970000000  0.4292000000000  0.5635620000000 1.0
C      1  0.4956640000000  0.4064080000000  0.5754420000000 1.0
C      1  0.5196390000000  0.5511770000000  0.4606730000000 1.0
C      1  0.4816600000000  0.5484900000000  0.4328890000000 1.0
C      1  0.5032480000000  0.5043820000000  0.6006070000000 1.0
C      1  0.5069050000000  0.5019050000000  0.5747690000000 1.0
C      1  0.5200380000000  0.5212180000000  0.5327110000000 1.0
C      1  0.5020930000000  0.4484780000000  0.4947260000000 1.0
C      1  0.5124390000000  0.5520400000000  0.4898160000000 1.0
C      1  0.4827350000000  0.4878530000000  0.4827390000000 1.0
C      1  0.5000460000000  0.5254860000000  0.4275740000000 1.0
C      1  0.4515020000000  0.4556190000000  0.4763480000000 1.0
C      1  0.5214420000000  0.5738250000000  0.5044770000000 1.0
C      1  0.5086130000000  0.4221130000000  0.4972230000000 1.0
C      1  0.4791910000000  0.4597490000000  0.4840620000000 1.0
C      1  0.5205800000000  0.4711120000000  0.5066110000000 1.0
C      1  0.5275770000000  0.5028310000000  0.4643750000000 1.0
C      1  0.4630440000000  0.5297970000000  0.4750040000000 1.0
C      1  0.5482100000000  0.4663780000000  0.5029530000000 1.0
C      1  0.5083720000000  0.5228010000000  0.5057880000000 1.0
C      1  0.5127500000000  0.4741580000000  0.5358880000000 1.0
C      1  0.4817370000000  0.5396680000000  0.4932780000000 1.0
C      1  0.5106780000000  0.4969160000000  0.4898230000000 1.0
C      1  0.5206710000000  0.5248540000000  0.4483420000000 1.0
C      1  0.4393770000000  0.4811730000000  0.4715340000000 1.0
C      1  0.4592950000000  0.5018570000000  0.4759000000000 1.0
C      1  0.5134250000000  0.4989200000000  0.5480060000000 1.0
C      1  0.5022110000000  0.5671700000000  0.4436560000000 1.0
C      1  0.5079690000000  0.4511490000000  0.5502800000000 1.0
C      1  0.4596480000000  0.5433900000000  0.4502230000000 1.0
C      1  0.5384460000000  0.5398840000000  0.5407200000000 1.0
END
