TITL C-2847955-7945-701 -0.00159253914805521 125000 -674.020621155459 0 0 126 (C1) n - 1
REM
REM in /home/bkarasulu/work/CARBON/AIRSS/Generating-Clusters/AIREBO/with-SteepDescent/Only-C1/SD-CG-opt/Try1-1.4A-POS3A/HFTN-CG
REM
REM
REM
REM
REM
REM ./C.cell (11c1c37f851c82e70ff6c80c92926a4b)
REM
REM compiler GCC version 9.2.1 20190827 (Red Hat 9.2.1-1)
REM options -cpp -mtune=generic -march=x86-64 -g -O0 -fpre-include=/usr/include/finclude/math-vector-fortran.h
REM seed -438504180 1083522061 1334218305 1635745124 -1607167741 1818378668 -173636136 1211901665 -1977068741 -1468859027 -1835778539 -959294350 1567956705 58260936 -376785145 2134973241 1264564129 423598170 801712552 -432645897 -1705008374 -701894342 291335803 1454861282 945342154 191239279 718521481 -36267293 778265446 1274742668 -221468418 87077759 -1899862752
REM
CELL 1.54180   50.00000   50.00000   50.00000   90.00000   90.00000   90.00000
LATT -1
SFAC C  
C      1  0.5302470000000  0.4143820000000  0.4784250000000 1.0
C      1  0.5871020000000  0.4873670000000  0.4431290000000 1.0
C      1  0.5192410000000  0.4266270000000  0.4207950000000 1.0
C      1  0.4404660000000  0.5462370000000  0.4313020000000 1.0
C      1  0.4384720000000  0.4549190000000  0.4597060000000 1.0
C      1  0.5616410000000  0.5075760000000  0.4987900000000 1.0
C      1  0.4434110000000  0.5123910000000  0.4326620000000 1.0
C      1  0.5045240000000  0.5675020000000  0.4176530000000 1.0
C      1  0.4158080000000  0.4824040000000  0.5300090000000 1.0
C      1  0.4728170000000  0.5763880000000  0.5165130000000 1.0
C      1  0.5320550000000  0.5014800000000  0.4436550000000 1.0
C      1  0.4683080000000  0.4505520000000  0.4744650000000 1.0
C      1  0.5189680000000  0.4895900000000  0.5125500000000 1.0
C      1  0.4611820000000  0.5460910000000  0.5065640000000 1.0
C      1  0.4980850000000  0.5527450000000  0.5880780000000 1.0
C      1  0.4330990000000  0.5466300000000  0.4923540000000 1.0
C      1  0.4927500000000  0.5882970000000  0.5413650000000 1.0
C      1  0.5216830000000  0.5642420000000  0.5698100000000 1.0
C      1  0.5129420000000  0.4630890000000  0.4712380000000 1.0
C      1  0.5395210000000  0.4631800000000  0.5159190000000 1.0
C      1  0.4998880000000  0.6024490000000  0.4820200000000 1.0
C      1  0.4560190000000  0.4218610000000  0.5193660000000 1.0
C      1  0.5037270000000  0.5629530000000  0.4861110000000 1.0
C      1  0.5086150000000  0.5025960000000  0.4671880000000 1.0
C      1  0.5733090000000  0.4896010000000  0.5528170000000 1.0
C      1  0.5902920000000  0.4717860000000  0.4735070000000 1.0
C      1  0.4798480000000  0.4190750000000  0.4681930000000 1.0
C      1  0.5433500000000  0.4527950000000  0.5855760000000 1.0
C      1  0.5707070000000  0.5260280000000  0.4586380000000 1.0
C      1  0.4816630000000  0.4339270000000  0.5382010000000 1.0
C      1  0.4554480000000  0.5688170000000  0.4228640000000 1.0
C      1  0.5569220000000  0.5099540000000  0.5896740000000 1.0
C      1  0.4801700000000  0.4689240000000  0.4327490000000 1.0
C      1  0.5847880000000  0.5300810000000  0.4881020000000 1.0
C      1  0.5689720000000  0.5144290000000  0.5326250000000 1.0
C      1  0.5239570000000  0.5381750000000  0.5145410000000 1.0
C      1  0.4816360000000  0.5162180000000  0.4216970000000 1.0
C      1  0.4467770000000  0.5744340000000  0.5381750000000 1.0
C      1  0.5359980000000  0.5663570000000  0.4628940000000 1.0
C      1  0.4720080000000  0.5153900000000  0.5538240000000 1.0
C      1  0.4756110000000  0.5925050000000  0.4901360000000 1.0
C      1  0.5116370000000  0.4938280000000  0.5822040000000 1.0
C      1  0.4993870000000  0.4096840000000  0.4895340000000 1.0
C      1  0.5644750000000  0.5586400000000  0.4690290000000 1.0
C      1  0.4858270000000  0.4648510000000  0.5629940000000 1.0
C      1  0.5974440000000  0.4635850000000  0.5056760000000 1.0
C      1  0.4787120000000  0.4161450000000  0.5670340000000 1.0
C      1  0.5228790000000  0.4158630000000  0.5384140000000 1.0
C      1  0.5099510000000  0.5818600000000  0.4592780000000 1.0
C      1  0.4360800000000  0.5740170000000  0.4734220000000 1.0
C      1  0.5808480000000  0.4418250000000  0.4865430000000 1.0
C      1  0.4516950000000  0.4747540000000  0.4053800000000 1.0
C      1  0.5058200000000  0.5118060000000  0.5538420000000 1.0
C      1  0.4974910000000  0.4282380000000  0.5103950000000 1.0
C      1  0.4657030000000  0.4517350000000  0.5061870000000 1.0
C      1  0.4591350000000  0.5458200000000  0.5520030000000 1.0
C      1  0.4749640000000  0.4297690000000  0.4310960000000 1.0
C      1  0.5109080000000  0.4452350000000  0.5507600000000 1.0
C      1  0.4583170000000  0.5005540000000  0.4101100000000 1.0
C      1  0.5263210000000  0.5515520000000  0.4154500000000 1.0
C      1  0.5109220000000  0.4531620000000  0.5000030000000 1.0
C      1  0.5031810000000  0.4754980000000  0.4145710000000 1.0
C      1  0.4616170000000  0.5822350000000  0.4679690000000 1.0
C      1  0.5094150000000  0.4159490000000  0.4515830000000 1.0
C      1  0.4994620000000  0.5240990000000  0.5929950000000 1.0
C      1  0.4229590000000  0.5548390000000  0.5375520000000 1.0
C      1  0.4910500000000  0.4390200000000  0.5844770000000 1.0
C      1  0.5476160000000  0.5376600000000  0.4379410000000 1.0
C      1  0.4123090000000  0.5242970000000  0.4395240000000 1.0
C      1  0.4162570000000  0.4657200000000  0.4709170000000 1.0
C      1  0.5470950000000  0.5538210000000  0.5269590000000 1.0
C      1  0.4550740000000  0.4056310000000  0.5465400000000 1.0
C      1  0.5515530000000  0.4394220000000  0.4719640000000 1.0
C      1  0.4809560000000  0.5687440000000  0.5644720000000 1.0
C      1  0.4774240000000  0.5374980000000  0.4480110000000 1.0
C      1  0.4081880000000  0.4995550000000  0.5093560000000 1.0
C      1  0.5647060000000  0.4935070000000  0.4679870000000 1.0
C      1  0.4751800000000  0.5095550000000  0.5844350000000 1.0
C      1  0.4500380000000  0.4540340000000  0.5771040000000 1.0
C      1  0.5639650000000  0.4576920000000  0.5606790000000 1.0
C      1  0.4370500000000  0.4596680000000  0.5328470000000 1.0
C      1  0.4896410000000  0.4731000000000  0.5174870000000 1.0
C      1  0.4180280000000  0.5293860000000  0.5150060000000 1.0
C      1  0.4508930000000  0.4533770000000  0.4305380000000 1.0
C      1  0.5289750000000  0.5141250000000  0.4918880000000 1.0
C      1  0.5125050000000  0.5805290000000  0.5138820000000 1.0
C      1  0.4372870000000  0.4950400000000  0.5512540000000 1.0
C      1  0.4512050000000  0.4810900000000  0.5115180000000 1.0
C      1  0.5536300000000  0.5281880000000  0.5669130000000 1.0
C      1  0.4678890000000  0.4840680000000  0.5412230000000 1.0
C      1  0.4683780000000  0.4805830000000  0.5875750000000 1.0
C      1  0.5430120000000  0.4675530000000  0.4616440000000 1.0
C      1  0.5330170000000  0.5349970000000  0.4670980000000 1.0
C      1  0.4107550000000  0.4912780000000  0.4827370000000 1.0
C      1  0.5053940000000  0.5031610000000  0.4138850000000 1.0
C      1  0.5687970000000  0.5658130000000  0.4959760000000 1.0
C      1  0.4989220000000  0.4469820000000  0.4480020000000 1.0
C      1  0.4342240000000  0.5240270000000  0.5442200000000 1.0
C      1  0.5414240000000  0.4901730000000  0.5662160000000 1.0
C      1  0.4788030000000  0.5225010000000  0.5002580000000 1.0
C      1  0.4359290000000  0.4822870000000  0.5796190000000 1.0
C      1  0.5526170000000  0.4348750000000  0.5043360000000 1.0
C      1  0.5606230000000  0.4910620000000  0.4284250000000 1.0
C      1  0.4558850000000  0.4984660000000  0.4606930000000 1.0
C      1  0.5873490000000  0.4642490000000  0.5368840000000 1.0
C      1  0.4253970000000  0.5118860000000  0.4680060000000 1.0
C      1  0.5454030000000  0.5826330000000  0.5112520000000 1.0
C      1  0.4945280000000  0.5324620000000  0.4753080000000 1.0
C      1  0.5008220000000  0.5138740000000  0.5202660000000 1.0
C      1  0.5749620000000  0.5406650000000  0.5168830000000 1.0
C      1  0.5311750000000  0.5193570000000  0.4147710000000 1.0
C      1  0.4619910000000  0.4997870000000  0.4919290000000 1.0
C      1  0.5335420000000  0.4113260000000  0.5122180000000 1.0
C      1  0.5233300000000  0.4555350000000  0.4167210000000 1.0
C      1  0.4525960000000  0.4464520000000  0.5506400000000 1.0
C      1  0.5376050000000  0.5122800000000  0.5417760000000 1.0
C      1  0.4470950000000  0.5371810000000  0.4633970000000 1.0
C      1  0.5465150000000  0.5540390000000  0.5573350000000 1.0
C      1  0.5084440000000  0.5437570000000  0.5507440000000 1.0
C      1  0.5168800000000  0.4606090000000  0.5872880000000 1.0
C      1  0.5674320000000  0.4778760000000  0.5128280000000 1.0
C      1  0.4837330000000  0.4794540000000  0.4652640000000 1.0
C      1  0.5446730000000  0.4659440000000  0.4304750000000 1.0
C      1  0.4965360000000  0.5531460000000  0.5238330000000 1.0
C      1  0.5343510000000  0.4626060000000  0.5476050000000 1.0
C      1  0.4821720000000  0.5708110000000  0.4430660000000 1.0
END
