TITL C-2847953-8112-375 -0.00410702325799789 125000 -828.130784507686 0 0 154 (C1) n - 1
REM
REM in /home/bkarasulu/work/CARBON/AIRSS/Generating-Clusters/AIREBO/with-SteepDescent/Only-C1/SD-CG-opt/Try1-1.4A-POS3A/HFTN-CG
REM
REM
REM
REM
REM
REM ./C.cell (11c1c37f851c82e70ff6c80c92926a4b)
REM
REM compiler GCC version 9.2.1 20190827 (Red Hat 9.2.1-1)
REM options -cpp -mtune=generic -march=x86-64 -g -O0 -fpre-include=/usr/include/finclude/math-vector-fortran.h
REM seed 807816278 852208642 1730221049 152024365 -383774179 213432246 -97353228 -604471027 -1776719301 251614366 380942705 -1339800267 -401887909 230985931 791502502 -1896202491 -849032186 1117801680 1059063635 1903526701 1471746018 -1356014409 21528522 -1357524321 1571484818 -564554222 -1190708567 -1714654619 645026751 1847449191 -2073253511 -1644303214 -2138038459
REM
CELL 1.54180   50.00000   50.00000   50.00000   90.00000   90.00000   90.00000
LATT -1
SFAC C  
C      1  0.5851100000000  0.4824950000000  0.4658380000000 1.0
C      1  0.5595550000000  0.4151610000000  0.4998490000000 1.0
C      1  0.4907780000000  0.4404780000000  0.4098240000000 1.0
C      1  0.4191390000000  0.4939350000000  0.4435390000000 1.0
C      1  0.5224550000000  0.5404310000000  0.4482640000000 1.0
C      1  0.4593060000000  0.5379570000000  0.4630570000000 1.0
C      1  0.5416770000000  0.4681960000000  0.4890660000000 1.0
C      1  0.4027280000000  0.5190380000000  0.4972180000000 1.0
C      1  0.5075970000000  0.5045490000000  0.5633030000000 1.0
C      1  0.5397050000000  0.5045970000000  0.5655100000000 1.0
C      1  0.5111790000000  0.5481070000000  0.4076030000000 1.0
C      1  0.4591210000000  0.4024840000000  0.5554010000000 1.0
C      1  0.5101060000000  0.4177060000000  0.5595120000000 1.0
C      1  0.4400890000000  0.5939710000000  0.5090740000000 1.0
C      1  0.4860740000000  0.5353090000000  0.4060190000000 1.0
C      1  0.5399850000000  0.5094990000000  0.5190340000000 1.0
C      1  0.5785120000000  0.5025470000000  0.5735360000000 1.0
C      1  0.5462040000000  0.5207000000000  0.4334960000000 1.0
C      1  0.4502820000000  0.4334000000000  0.4179810000000 1.0
C      1  0.5344080000000  0.4621460000000  0.5909760000000 1.0
C      1  0.4080870000000  0.5426560000000  0.5289720000000 1.0
C      1  0.5110870000000  0.3914660000000  0.4980130000000 1.0
C      1  0.4415060000000  0.4696580000000  0.4938300000000 1.0
C      1  0.4887150000000  0.5449530000000  0.4474830000000 1.0
C      1  0.4519560000000  0.5440240000000  0.5652030000000 1.0
C      1  0.4250430000000  0.4453310000000  0.5286160000000 1.0
C      1  0.4828500000000  0.4331230000000  0.5471230000000 1.0
C      1  0.4856990000000  0.5829350000000  0.4750760000000 1.0
C      1  0.5937900000000  0.4827080000000  0.5395100000000 1.0
C      1  0.4988880000000  0.5545030000000  0.5385370000000 1.0
C      1  0.5471970000000  0.5579000000000  0.5640520000000 1.0
C      1  0.4734390000000  0.4967360000000  0.5992140000000 1.0
C      1  0.4257310000000  0.4953050000000  0.5606020000000 1.0
C      1  0.4808040000000  0.4826900000000  0.4873810000000 1.0
C      1  0.4679250000000  0.4216300000000  0.5768650000000 1.0
C      1  0.4531690000000  0.4460980000000  0.5154050000000 1.0
C      1  0.4356840000000  0.4881610000000  0.5209890000000 1.0
C      1  0.4241280000000  0.5795230000000  0.4835990000000 1.0
C      1  0.5063090000000  0.4717610000000  0.5158480000000 1.0
C      1  0.5836670000000  0.5314800000000  0.4885070000000 1.0
C      1  0.4883840000000  0.5975780000000  0.5206860000000 1.0
C      1  0.5277820000000  0.4565680000000  0.4339660000000 1.0
C      1  0.4073560000000  0.4896400000000  0.4889860000000 1.0
C      1  0.5204350000000  0.4095000000000  0.4767230000000 1.0
C      1  0.4208080000000  0.4495470000000  0.4447130000000 1.0
C      1  0.5753820000000  0.5581470000000  0.4690700000000 1.0
C      1  0.5323970000000  0.4901840000000  0.4394190000000 1.0
C      1  0.5116780000000  0.5681340000000  0.5639600000000 1.0
C      1  0.5336560000000  0.4950680000000  0.4702720000000 1.0
C      1  0.4642340000000  0.4558450000000  0.4744960000000 1.0
C      1  0.4820840000000  0.4827370000000  0.4293230000000 1.0
C      1  0.5531840000000  0.5213880000000  0.5447080000000 1.0
C      1  0.5224530000000  0.4789650000000  0.6132920000000 1.0
C      1  0.4490860000000  0.4215180000000  0.4444980000000 1.0
C      1  0.5227620000000  0.4718910000000  0.3878200000000 1.0
C      1  0.4527690000000  0.4747240000000  0.5623160000000 1.0
C      1  0.4698670000000  0.4166700000000  0.4676080000000 1.0
C      1  0.5940110000000  0.5129160000000  0.4535060000000 1.0
C      1  0.5529200000000  0.4095090000000  0.4517520000000 1.0
C      1  0.4728870000000  0.4624050000000  0.5378190000000 1.0
C      1  0.4998170000000  0.5011600000000  0.6088830000000 1.0
C      1  0.4587770000000  0.5586460000000  0.5087930000000 1.0
C      1  0.4259080000000  0.5166070000000  0.5219890000000 1.0
C      1  0.4563190000000  0.4666890000000  0.4139750000000 1.0
C      1  0.5163690000000  0.4502040000000  0.4060770000000 1.0
C      1  0.4627070000000  0.4998970000000  0.4513270000000 1.0
C      1  0.5309080000000  0.4306810000000  0.4973740000000 1.0
C      1  0.4736700000000  0.4087140000000  0.5253070000000 1.0
C      1  0.4643580000000  0.4203380000000  0.4962300000000 1.0
C      1  0.5556000000000  0.4773690000000  0.5718750000000 1.0
C      1  0.4775550000000  0.5533140000000  0.4848710000000 1.0
C      1  0.4444250000000  0.5253170000000  0.4879150000000 1.0
C      1  0.5486170000000  0.5762200000000  0.5171320000000 1.0
C      1  0.5050870000000  0.5056100000000  0.4803750000000 1.0
C      1  0.4379860000000  0.4950480000000  0.4192080000000 1.0
C      1  0.4086970000000  0.5246900000000  0.5567300000000 1.0
C      1  0.4153540000000  0.4688370000000  0.5494830000000 1.0
C      1  0.4465850000000  0.5160370000000  0.5477790000000 1.0
C      1  0.5120160000000  0.4889140000000  0.4143990000000 1.0
C      1  0.5739530000000  0.5321240000000  0.4497100000000 1.0
C      1  0.5451580000000  0.5250570000000  0.4937380000000 1.0
C      1  0.5986820000000  0.5274480000000  0.5160280000000 1.0
C      1  0.4792840000000  0.5167670000000  0.5547920000000 1.0
C      1  0.5162240000000  0.5248580000000  0.5902040000000 1.0
C      1  0.5808060000000  0.4809850000000  0.4335490000000 1.0
C      1  0.5006770000000  0.5359240000000  0.4948540000000 1.0
C      1  0.4526940000000  0.4613010000000  0.4458170000000 1.0
C      1  0.5040090000000  0.5552650000000  0.5883290000000 1.0
C      1  0.5240560000000  0.5553280000000  0.5075200000000 1.0
C      1  0.4866830000000  0.5080970000000  0.4059560000000 1.0
C      1  0.5416870000000  0.4072140000000  0.5277000000000 1.0
C      1  0.5386100000000  0.5009350000000  0.5992980000000 1.0
C      1  0.5120240000000  0.4464010000000  0.5767400000000 1.0
C      1  0.5025560000000  0.4742040000000  0.5495520000000 1.0
C      1  0.4360610000000  0.4368140000000  0.4719350000000 1.0
C      1  0.4821810000000  0.4468230000000  0.5861950000000 1.0
C      1  0.4443410000000  0.5240040000000  0.4358920000000 1.0
C      1  0.6023720000000  0.4762070000000  0.5130760000000 1.0
C      1  0.5196570000000  0.6022370000000  0.5252970000000 1.0
C      1  0.5275220000000  0.4511890000000  0.5472140000000 1.0
C      1  0.5789380000000  0.4365020000000  0.5385630000000 1.0
C      1  0.4673660000000  0.4713530000000  0.5867120000000 1.0
C      1  0.5328550000000  0.5489010000000  0.4753100000000 1.0
C      1  0.4693620000000  0.4868830000000  0.5164870000000 1.0
C      1  0.4223700000000  0.5456380000000  0.4502520000000 1.0
C      1  0.4530420000000  0.5686740000000  0.5533090000000 1.0
C      1  0.5357650000000  0.5848410000000  0.5467080000000 1.0
C      1  0.5643800000000  0.4660900000000  0.5434380000000 1.0
C      1  0.5752210000000  0.4673150000000  0.4946310000000 1.0
C      1  0.5328060000000  0.5825730000000  0.4800310000000 1.0
C      1  0.5443470000000  0.5816370000000  0.4342440000000 1.0
C      1  0.4986400000000  0.4205660000000  0.4566460000000 1.0
C      1  0.4404760000000  0.5904420000000  0.5354290000000 1.0
C      1  0.5159820000000  0.5688460000000  0.4307420000000 1.0
C      1  0.4089450000000  0.5389860000000  0.4748810000000 1.0
C      1  0.5072840000000  0.4413340000000  0.5142830000000 1.0
C      1  0.5300980000000  0.4286670000000  0.4469730000000 1.0
C      1  0.5639020000000  0.5463000000000  0.5118810000000 1.0
C      1  0.4932300000000  0.5842250000000  0.4434640000000 1.0
C      1  0.5858460000000  0.5138800000000  0.5424930000000 1.0
C      1  0.5077860000000  0.4096330000000  0.5265630000000 1.0
C      1  0.5680960000000  0.4983050000000  0.4202360000000 1.0
C      1  0.5610410000000  0.4879850000000  0.5176250000000 1.0
C      1  0.4109390000000  0.4564250000000  0.4826250000000 1.0
C      1  0.5472010000000  0.5382470000000  0.5859430000000 1.0
C      1  0.5512840000000  0.4268690000000  0.5476160000000 1.0
C      1  0.5539060000000  0.5790350000000  0.4595550000000 1.0
C      1  0.4757110000000  0.5723140000000  0.5306930000000 1.0
C      1  0.5318570000000  0.5462180000000  0.5374330000000 1.0
C      1  0.5119530000000  0.5017010000000  0.5225450000000 1.0
C      1  0.4063340000000  0.4713430000000  0.5175120000000 1.0
C      1  0.4365530000000  0.4958400000000  0.4726840000000 1.0
C      1  0.4556270000000  0.5918620000000  0.4789010000000 1.0
C      1  0.4904480000000  0.5260460000000  0.5253060000000 1.0
C      1  0.5735920000000  0.5803240000000  0.4941020000000 1.0
C      1  0.4389980000000  0.5747500000000  0.4535240000000 1.0
C      1  0.4264930000000  0.5508290000000  0.5014990000000 1.0
C      1  0.4637510000000  0.5172060000000  0.5094870000000 1.0
C      1  0.5450640000000  0.4532320000000  0.5185350000000 1.0
C      1  0.5339060000000  0.5325430000000  0.4044090000000 1.0
C      1  0.4626970000000  0.5453060000000  0.4170060000000 1.0
C      1  0.5700960000000  0.5234280000000  0.5896090000000 1.0
C      1  0.5797980000000  0.4364580000000  0.5084320000000 1.0
C      1  0.5020720000000  0.4669310000000  0.4518500000000 1.0
C      1  0.4633780000000  0.5187510000000  0.5837070000000 1.0
C      1  0.5089440000000  0.5947600000000  0.4937530000000 1.0
C      1  0.4815900000000  0.4442720000000  0.4402320000000 1.0
C      1  0.4035540000000  0.4703270000000  0.4426100000000 1.0
C      1  0.4658250000000  0.5683520000000  0.4381850000000 1.0
C      1  0.5651190000000  0.5041610000000  0.4795210000000 1.0
C      1  0.5093470000000  0.4660450000000  0.4824480000000 1.0
C      1  0.4898420000000  0.5136710000000  0.4555030000000 1.0
C      1  0.5876850000000  0.5691250000000  0.5202430000000 1.0
C      1  0.5648410000000  0.4022970000000  0.4726520000000 1.0
END
