TITL C-2848495-5024-459 -0.00225412851041617 125000 -888.390157554383 0 0 166 (C1) n - 1
REM
REM in /home/bkarasulu/work/CARBON/AIRSS/Generating-Clusters/AIREBO/with-SteepDescent/Only-C1/SD-CG-opt/Try1-1.4A-POS3A/HFTN-CG
REM
REM
REM
REM
REM
REM ./C.cell (11c1c37f851c82e70ff6c80c92926a4b)
REM
REM compiler GCC version 9.2.1 20190827 (Red Hat 9.2.1-1)
REM options -cpp -mtune=generic -march=x86-64 -g -O0 -fpre-include=/usr/include/finclude/math-vector-fortran.h
REM seed -1340360713 1274299577 347967616 -582811679 1780447660 -2093553151 70914988 -1864677947 636707826 -1380805150 -248791773 1344866127 1496359693 -1956086408 -34145681 2066282166 -896260700 646954192 507131033 1458548464 20037721 463009655 1656020279 -1403231189 -2010722788 -1580839320 -301224672 1222264131 1087211938 -2068506119 -2094812803 1691789081 838820478
REM
CELL 1.54180   50.00000   50.00000   50.00000   90.00000   90.00000   90.00000
LATT -1
SFAC C  
C      1  0.4715930000000  0.4671670000000  0.4195260000000 1.0
C      1  0.4575650000000  0.3887250000000  0.5046270000000 1.0
C      1  0.4976760000000  0.5150790000000  0.5217440000000 1.0
C      1  0.5815830000000  0.4529070000000  0.5541470000000 1.0
C      1  0.4960250000000  0.4185060000000  0.4899410000000 1.0
C      1  0.4076380000000  0.4568550000000  0.4695820000000 1.0
C      1  0.5532280000000  0.4805200000000  0.5598490000000 1.0
C      1  0.5763560000000  0.5272980000000  0.6046720000000 1.0
C      1  0.5908200000000  0.5256400000000  0.4747170000000 1.0
C      1  0.5479630000000  0.5099260000000  0.4976170000000 1.0
C      1  0.4706150000000  0.5357950000000  0.4456540000000 1.0
C      1  0.5269820000000  0.4981680000000  0.5216530000000 1.0
C      1  0.4833850000000  0.6000740000000  0.5076590000000 1.0
C      1  0.5887350000000  0.5144740000000  0.5456070000000 1.0
C      1  0.5550930000000  0.4666180000000  0.5100010000000 1.0
C      1  0.5283450000000  0.5740030000000  0.5174200000000 1.0
C      1  0.5108800000000  0.4698590000000  0.4513030000000 1.0
C      1  0.5119420000000  0.5400480000000  0.5041870000000 1.0
C      1  0.4755230000000  0.4991900000000  0.3961120000000 1.0
C      1  0.4108260000000  0.4866230000000  0.5064380000000 1.0
C      1  0.5361760000000  0.4997050000000  0.4434960000000 1.0
C      1  0.5171050000000  0.5588220000000  0.5942760000000 1.0
C      1  0.5199240000000  0.5346420000000  0.4536540000000 1.0
C      1  0.4484540000000  0.4470050000000  0.5055460000000 1.0
C      1  0.5124720000000  0.4550860000000  0.6000650000000 1.0
C      1  0.4108330000000  0.4896760000000  0.5640490000000 1.0
C      1  0.5948000000000  0.4767940000000  0.5060660000000 1.0
C      1  0.5392920000000  0.4082110000000  0.5115050000000 1.0
C      1  0.4449660000000  0.5375420000000  0.5804170000000 1.0
C      1  0.4717350000000  0.5672830000000  0.4364190000000 1.0
C      1  0.5518210000000  0.5544400000000  0.4756910000000 1.0
C      1  0.5686690000000  0.5365700000000  0.4980850000000 1.0
C      1  0.5497280000000  0.5482130000000  0.5238160000000 1.0
C      1  0.5675610000000  0.4346480000000  0.4664730000000 1.0
C      1  0.4683600000000  0.4012190000000  0.5645280000000 1.0
C      1  0.5706260000000  0.5739370000000  0.4582350000000 1.0
C      1  0.4991660000000  0.5556180000000  0.4696930000000 1.0
C      1  0.5259830000000  0.5632490000000  0.4867110000000 1.0
C      1  0.5109450000000  0.3938370000000  0.4239050000000 1.0
C      1  0.5212260000000  0.4367530000000  0.5751860000000 1.0
C      1  0.5592150000000  0.4834040000000  0.4597800000000 1.0
C      1  0.5551980000000  0.4099280000000  0.4862870000000 1.0
C      1  0.3987680000000  0.4415260000000  0.4965450000000 1.0
C      1  0.4611580000000  0.4547650000000  0.4456870000000 1.0
C      1  0.4653300000000  0.4873210000000  0.5920930000000 1.0
C      1  0.4543030000000  0.5266460000000  0.5241800000000 1.0
C      1  0.4310820000000  0.5456760000000  0.5504540000000 1.0
C      1  0.4730850000000  0.5510010000000  0.5698700000000 1.0
C      1  0.5281060000000  0.5733550000000  0.4210400000000 1.0
C      1  0.5427270000000  0.4196300000000  0.5360110000000 1.0
C      1  0.5753580000000  0.4884050000000  0.4311930000000 1.0
C      1  0.5412160000000  0.5493990000000  0.4239220000000 1.0
C      1  0.4988040000000  0.4444440000000  0.4372390000000 1.0
C      1  0.4572350000000  0.5980490000000  0.5169190000000 1.0
C      1  0.4811670000000  0.5277000000000  0.3994250000000 1.0
C      1  0.5115010000000  0.5291220000000  0.5564880000000 1.0
C      1  0.5120630000000  0.5900540000000  0.5502400000000 1.0
C      1  0.4498560000000  0.5589370000000  0.4707790000000 1.0
C      1  0.3896420000000  0.5182060000000  0.4624970000000 1.0
C      1  0.5743430000000  0.4779180000000  0.5333200000000 1.0
C      1  0.5673780000000  0.5496160000000  0.4352390000000 1.0
C      1  0.4905260000000  0.4006640000000  0.5461550000000 1.0
C      1  0.4515900000000  0.4228230000000  0.4701250000000 1.0
C      1  0.4327560000000  0.5159200000000  0.4877080000000 1.0
C      1  0.4159800000000  0.5060320000000  0.4447520000000 1.0
C      1  0.4409680000000  0.4079500000000  0.4919050000000 1.0
C      1  0.5527300000000  0.5930350000000  0.5056550000000 1.0
C      1  0.5211120000000  0.4825030000000  0.5512750000000 1.0
C      1  0.4135480000000  0.5434500000000  0.4927320000000 1.0
C      1  0.5754010000000  0.5186990000000  0.4470710000000 1.0
C      1  0.3924260000000  0.5419020000000  0.4754880000000 1.0
C      1  0.5341140000000  0.5208150000000  0.4175430000000 1.0
C      1  0.5621120000000  0.5321040000000  0.5832960000000 1.0
C      1  0.4973990000000  0.4626240000000  0.5012380000000 1.0
C      1  0.5651670000000  0.4387380000000  0.5320290000000 1.0
C      1  0.5322680000000  0.4802230000000  0.3888250000000 1.0
C      1  0.5322300000000  0.4524780000000  0.4712670000000 1.0
C      1  0.5374520000000  0.4222880000000  0.4564810000000 1.0
C      1  0.4968020000000  0.4456040000000  0.5287680000000 1.0
C      1  0.5107590000000  0.4070390000000  0.4484000000000 1.0
C      1  0.4512160000000  0.4960820000000  0.5387600000000 1.0
C      1  0.4800730000000  0.5278020000000  0.5460080000000 1.0
C      1  0.4176040000000  0.4790810000000  0.4247300000000 1.0
C      1  0.4810310000000  0.4562360000000  0.4732470000000 1.0
C      1  0.4839700000000  0.4251470000000  0.4597690000000 1.0
C      1  0.4631950000000  0.5678200000000  0.5420260000000 1.0
C      1  0.5400060000000  0.5240460000000  0.5394800000000 1.0
C      1  0.5015530000000  0.5572110000000  0.5301390000000 1.0
C      1  0.4712420000000  0.4452360000000  0.5594650000000 1.0
C      1  0.5020710000000  0.4850080000000  0.3934060000000 1.0
C      1  0.5035510000000  0.5145160000000  0.4201690000000 1.0
C      1  0.4712850000000  0.6078820000000  0.5818790000000 1.0
C      1  0.4784660000000  0.4003760000000  0.5206810000000 1.0
C      1  0.5208300000000  0.5985270000000  0.4628290000000 1.0
C      1  0.3890320000000  0.4638590000000  0.5117980000000 1.0
C      1  0.5245580000000  0.5599610000000  0.5550250000000 1.0
C      1  0.4060500000000  0.4899900000000  0.4730710000000 1.0
C      1  0.4436540000000  0.4697320000000  0.5744670000000 1.0
C      1  0.4981860000000  0.4829170000000  0.4263650000000 1.0
C      1  0.4288690000000  0.4318460000000  0.5434400000000 1.0
C      1  0.5146790000000  0.4244930000000  0.5485720000000 1.0
C      1  0.4748610000000  0.4310980000000  0.5104000000000 1.0
C      1  0.4260010000000  0.5126280000000  0.5536100000000 1.0
C      1  0.5480430000000  0.5210910000000  0.4671330000000 1.0
C      1  0.5141470000000  0.5037050000000  0.5729870000000 1.0
C      1  0.5515660000000  0.4941960000000  0.4073450000000 1.0
C      1  0.4967750000000  0.3904630000000  0.4745880000000 1.0
C      1  0.4217850000000  0.5341710000000  0.4265640000000 1.0
C      1  0.6074990000000  0.5048070000000  0.5208240000000 1.0
C      1  0.6052820000000  0.5036780000000  0.4880830000000 1.0
C      1  0.5653760000000  0.5771770000000  0.5321480000000 1.0
C      1  0.4487360000000  0.4886670000000  0.4143200000000 1.0
C      1  0.5502960000000  0.5943040000000  0.4760880000000 1.0
C      1  0.5840160000000  0.4621030000000  0.4533600000000 1.0
C      1  0.4925170000000  0.5246540000000  0.4837630000000 1.0
C      1  0.4150000000000  0.5550080000000  0.5225580000000 1.0
C      1  0.4975120000000  0.4478720000000  0.4073940000000 1.0
C      1  0.5622920000000  0.5131780000000  0.5589760000000 1.0
C      1  0.4905030000000  0.5938370000000  0.4774990000000 1.0
C      1  0.4232730000000  0.4615920000000  0.5515950000000 1.0
C      1  0.4497000000000  0.5017730000000  0.4457240000000 1.0
C      1  0.5981140000000  0.4549030000000  0.4817990000000 1.0
C      1  0.4359130000000  0.4724080000000  0.5223510000000 1.0
C      1  0.4681560000000  0.5933220000000  0.4545980000000 1.0
C      1  0.4520300000000  0.4242120000000  0.5586320000000 1.0
C      1  0.5066980000000  0.5995820000000  0.5232020000000 1.0
C      1  0.4730700000000  0.5661240000000  0.4867190000000 1.0
C      1  0.5573190000000  0.5818350000000  0.5619300000000 1.0
C      1  0.5938160000000  0.5359800000000  0.5209600000000 1.0
C      1  0.5027210000000  0.5768760000000  0.4433960000000 1.0
C      1  0.4726450000000  0.5860200000000  0.5691510000000 1.0
C      1  0.4351780000000  0.5772470000000  0.5323530000000 1.0
C      1  0.5975820000000  0.5569240000000  0.4672480000000 1.0
C      1  0.4140900000000  0.4542250000000  0.4388050000000 1.0
C      1  0.5302170000000  0.6020780000000  0.4303430000000 1.0
C      1  0.5022220000000  0.5016810000000  0.5975820000000 1.0
C      1  0.4564100000000  0.5172290000000  0.5989830000000 1.0
C      1  0.5387220000000  0.4624300000000  0.5810390000000 1.0
C      1  0.5272360000000  0.4758380000000  0.4959660000000 1.0
C      1  0.4930330000000  0.5475230000000  0.5935750000000 1.0
C      1  0.4220450000000  0.5157280000000  0.5199820000000 1.0
C      1  0.4947880000000  0.4679220000000  0.5501310000000 1.0
C      1  0.5965360000000  0.4484630000000  0.5748860000000 1.0
C      1  0.5471320000000  0.4576750000000  0.4411210000000 1.0
C      1  0.4732350000000  0.4892880000000  0.4668550000000 1.0
C      1  0.4441770000000  0.4871030000000  0.4843730000000 1.0
C      1  0.5236490000000  0.4278450000000  0.4931040000000 1.0
C      1  0.5245420000000  0.4524210000000  0.3984270000000 1.0
C      1  0.4728390000000  0.5539040000000  0.5151390000000 1.0
C      1  0.4358770000000  0.4376750000000  0.4365040000000 1.0
C      1  0.4425760000000  0.5304710000000  0.4625200000000 1.0
C      1  0.4412900000000  0.4550800000000  0.4732930000000 1.0
C      1  0.4701620000000  0.4847340000000  0.5596100000000 1.0
C      1  0.4936770000000  0.4746810000000  0.6054900000000 1.0
C      1  0.5732320000000  0.4428510000000  0.4990260000000 1.0
C      1  0.3916870000000  0.5305040000000  0.5233580000000 1.0
C      1  0.4451920000000  0.5482700000000  0.4268370000000 1.0
C      1  0.5175120000000  0.4955400000000  0.4706570000000 1.0
C      1  0.4851970000000  0.5229500000000  0.6048510000000 1.0
C      1  0.5456140000000  0.5570730000000  0.5797170000000 1.0
C      1  0.4223300000000  0.4263690000000  0.5107560000000 1.0
C      1  0.5948160000000  0.5659220000000  0.5290350000000 1.0
C      1  0.4873620000000  0.4944470000000  0.4973550000000 1.0
C      1  0.4940950000000  0.5125350000000  0.4527700000000 1.0
C      1  0.5439280000000  0.4452210000000  0.4178200000000 1.0
C      1  0.6095420000000  0.4444040000000  0.5972730000000 1.0
END
