TITL C-2847955-7945-251 7.50001348838366e-05 125000 -560.007498996374 0 0 104 (C1) n - 1
REM
REM in /home/bkarasulu/work/CARBON/AIRSS/Generating-Clusters/AIREBO/with-SteepDescent/Only-C1/SD-CG-opt/Try1-1.4A-POS3A/HFTN-CG
REM
REM
REM
REM
REM
REM ./C.cell (11c1c37f851c82e70ff6c80c92926a4b)
REM
REM compiler GCC version 9.2.1 20190827 (Red Hat 9.2.1-1)
REM options -cpp -mtune=generic -march=x86-64 -g -O0 -fpre-include=/usr/include/finclude/math-vector-fortran.h
REM seed 71200587 -819441492 -713142249 1631968817 1986992308 -266998856 -576144025 365981560 493356165 1500776973 200534009 2088594441 -1368701835 -1785892344 395157582 -799087118 -236105786 -968195363 31134580 -31323905 -1279138179 1354023496 528114600 374321605 -1070437969 -2009615099 1703276437 1193144507 -760842462 1249767580 -428545491 572312846 169621461
REM
CELL 1.54180   50.00000   50.00000   50.00000   90.00000   90.00000   90.00000
LATT -1
SFAC C  
C      1  0.4865770000000  0.5355840000000  0.4725720000000 1.0
C      1  0.5300220000000  0.5928480000000  0.4848740000000 1.0
C      1  0.5270310000000  0.4426790000000  0.5976360000000 1.0
C      1  0.5273010000000  0.4508210000000  0.5014160000000 1.0
C      1  0.5549280000000  0.4511050000000  0.4815980000000 1.0
C      1  0.4310380000000  0.4965590000000  0.5477450000000 1.0
C      1  0.4443330000000  0.4760300000000  0.4906890000000 1.0
C      1  0.5342130000000  0.5475150000000  0.4613910000000 1.0
C      1  0.5146270000000  0.4646460000000  0.4741250000000 1.0
C      1  0.4387380000000  0.5567240000000  0.4839950000000 1.0
C      1  0.5043300000000  0.5875650000000  0.5016470000000 1.0
C      1  0.5172920000000  0.4589440000000  0.4407060000000 1.0
C      1  0.5508540000000  0.4602090000000  0.5588540000000 1.0
C      1  0.4541820000000  0.4320120000000  0.4729590000000 1.0
C      1  0.4650800000000  0.4602130000000  0.5660800000000 1.0
C      1  0.4848680000000  0.4646820000000  0.5483070000000 1.0
C      1  0.4991000000000  0.5191740000000  0.5163110000000 1.0
C      1  0.4540940000000  0.5141120000000  0.5028370000000 1.0
C      1  0.3996110000000  0.4490630000000  0.5250700000000 1.0
C      1  0.5533410000000  0.4413110000000  0.5365620000000 1.0
C      1  0.4673340000000  0.5424590000000  0.5559370000000 1.0
C      1  0.5897060000000  0.5395630000000  0.5021640000000 1.0
C      1  0.5165500000000  0.5231100000000  0.5686710000000 1.0
C      1  0.4742650000000  0.5083000000000  0.5367770000000 1.0
C      1  0.4831170000000  0.4758960000000  0.4086770000000 1.0
C      1  0.5357050000000  0.4199990000000  0.5254420000000 1.0
C      1  0.5974150000000  0.4785810000000  0.5171280000000 1.0
C      1  0.5676020000000  0.5671580000000  0.4932550000000 1.0
C      1  0.5089280000000  0.5647840000000  0.5245010000000 1.0
C      1  0.5803760000000  0.4935980000000  0.5332260000000 1.0
C      1  0.4910150000000  0.4443270000000  0.4870770000000 1.0
C      1  0.4720820000000  0.4094880000000  0.4843660000000 1.0
C      1  0.4990090000000  0.5388350000000  0.5441090000000 1.0
C      1  0.5035530000000  0.4929930000000  0.5459400000000 1.0
C      1  0.4557620000000  0.5722530000000  0.4617200000000 1.0
C      1  0.5367250000000  0.4004840000000  0.5044210000000 1.0
C      1  0.5613780000000  0.5479470000000  0.5189310000000 1.0
C      1  0.4262640000000  0.5544870000000  0.5284990000000 1.0
C      1  0.4235160000000  0.5427790000000  0.5022750000000 1.0
C      1  0.5293110000000  0.5166630000000  0.4748680000000 1.0
C      1  0.4382220000000  0.4986750000000  0.4411090000000 1.0
C      1  0.5126420000000  0.4841330000000  0.5772990000000 1.0
C      1  0.4548410000000  0.4463210000000  0.4421180000000 1.0
C      1  0.4869610000000  0.5901830000000  0.5298880000000 1.0
C      1  0.4808300000000  0.4537790000000  0.5181170000000 1.0
C      1  0.5297540000000  0.4619640000000  0.5789780000000 1.0
C      1  0.5804890000000  0.4827410000000  0.3904180000000 1.0
C      1  0.4992000000000  0.5611350000000  0.4296970000000 1.0
C      1  0.4697510000000  0.5550950000000  0.4947620000000 1.0
C      1  0.5469220000000  0.4581940000000  0.4516350000000 1.0
C      1  0.5212940000000  0.5802900000000  0.5804670000000 1.0
C      1  0.4308440000000  0.4555320000000  0.4653000000000 1.0
C      1  0.4966210000000  0.5344850000000  0.4401030000000 1.0
C      1  0.5463170000000  0.5725740000000  0.4769580000000 1.0
C      1  0.4442700000000  0.5056450000000  0.5772190000000 1.0
C      1  0.4473760000000  0.5651210000000  0.5450970000000 1.0
C      1  0.4818950000000  0.4743240000000  0.4506620000000 1.0
C      1  0.5104320000000  0.5632180000000  0.5648860000000 1.0
C      1  0.4455710000000  0.5244800000000  0.4397690000000 1.0
C      1  0.5653770000000  0.4931270000000  0.4098880000000 1.0
C      1  0.5644960000000  0.4566590000000  0.5137510000000 1.0
C      1  0.4575950000000  0.4779780000000  0.4297020000000 1.0
C      1  0.5322620000000  0.5401720000000  0.5220220000000 1.0
C      1  0.5092400000000  0.5686120000000  0.4562390000000 1.0
C      1  0.5127270000000  0.4881380000000  0.5135600000000 1.0
C      1  0.4626780000000  0.5888760000000  0.5410790000000 1.0
C      1  0.4647670000000  0.5376080000000  0.5223790000000 1.0
C      1  0.4358750000000  0.4361870000000  0.5343370000000 1.0
C      1  0.5132050000000  0.5371140000000  0.4936830000000 1.0
C      1  0.4253600000000  0.4648420000000  0.5240480000000 1.0
C      1  0.5083220000000  0.5087110000000  0.4345290000000 1.0
C      1  0.5047230000000  0.4956110000000  0.4641650000000 1.0
C      1  0.5419560000000  0.4806700000000  0.5051770000000 1.0
C      1  0.4673470000000  0.5202790000000  0.5768110000000 1.0
C      1  0.5643490000000  0.4863140000000  0.5560080000000 1.0
C      1  0.4991820000000  0.4168210000000  0.4688150000000 1.0
C      1  0.5663210000000  0.4833860000000  0.4612240000000 1.0
C      1  0.4593980000000  0.4286530000000  0.5251870000000 1.0
C      1  0.4684040000000  0.4620340000000  0.4759170000000 1.0
C      1  0.5697390000000  0.5156140000000  0.5157400000000 1.0
C      1  0.5298580000000  0.5139010000000  0.5405580000000 1.0
C      1  0.5239190000000  0.4007190000000  0.4796730000000 1.0
C      1  0.5442380000000  0.5256680000000  0.4391150000000 1.0
C      1  0.4231860000000  0.5096760000000  0.4948740000000 1.0
C      1  0.4813920000000  0.4851550000000  0.5053330000000 1.0
C      1  0.4922830000000  0.5091670000000  0.5826690000000 1.0
C      1  0.4128270000000  0.4950550000000  0.5196620000000 1.0
C      1  0.5091100000000  0.4352090000000  0.5214940000000 1.0
C      1  0.4889660000000  0.4412210000000  0.4474000000000 1.0
C      1  0.4600370000000  0.5437550000000  0.4529330000000 1.0
C      1  0.5099130000000  0.4800570000000  0.4195160000000 1.0
C      1  0.5835820000000  0.5203090000000  0.4786240000000 1.0
C      1  0.5825500000000  0.4700380000000  0.4882300000000 1.0
C      1  0.5557950000000  0.5026750000000  0.4871680000000 1.0
C      1  0.4243760000000  0.4890540000000  0.4675610000000 1.0
C      1  0.5476760000000  0.5083660000000  0.5665970000000 1.0
C      1  0.4773450000000  0.5056760000000  0.4816340000000 1.0
C      1  0.4812210000000  0.6099700000000  0.4686410000000 1.0
C      1  0.5341690000000  0.5036580000000  0.4151300000000 1.0
C      1  0.4516920000000  0.4863030000000  0.5222660000000 1.0
C      1  0.4854190000000  0.5802500000000  0.4763120000000 1.0
C      1  0.4830480000000  0.4144640000000  0.5124590000000 1.0
C      1  0.4423250000000  0.4752810000000  0.5717600000000 1.0
C      1  0.5663450000000  0.5035760000000  0.4382930000000 1.0
END
