TITL C-2847957-7266-704 -929.095878038509 125000 -254.353213203717 0 0 47 (C1) n - 1
REM
REM in /home/bkarasulu/work/CARBON/AIRSS/Generating-Clusters/AIREBO/with-SteepDescent/Only-C1/SD-CG-opt/Try1-1.4A-POS3A/HFTN-CG
REM
REM
REM
REM
REM
REM ./C.cell (11c1c37f851c82e70ff6c80c92926a4b)
REM
REM compiler GCC version 9.2.1 20190827 (Red Hat 9.2.1-1)
REM options -cpp -mtune=generic -march=x86-64 -g -O0 -fpre-include=/usr/include/finclude/math-vector-fortran.h
REM seed 384807932 1508142040 -1975044813 1408390137 1525480597 -1874774803 -1911189503 -1517330284 -1817680029 337281902 1005535623 -442320977 -384811503 -1920788998 307844833 -1469500235 -481210785 1697591762 -685490608 761484145 -2060434855 1066955683 194967978 -797115769 -659826676 -1000647866 -2143676875 2087203469 132229318 1545530832 -663499704 1075518684 14116795
REM
CELL 1.54180   50.00000   50.00000   50.00000   90.00000   90.00000   90.00000
LATT -1
SFAC C  
C      1  0.5118510000000  0.4485560000000  0.4854420000000 1.0
C      1  0.4897970000000  0.5275980000000  0.4853520000000 1.0
C      1  0.4666480000000  0.5620470000000  0.5198570000000 1.0
C      1  0.4579340000000  0.5462770000000  0.5395980000000 1.0
C      1  0.5016790000000  0.4863710000000  0.4955940000000 1.0
C      1  0.5506500000000  0.4880730000000  0.5443130000000 1.0
C      1  0.5378350000000  0.5284990000000  0.4595060000000 1.0
C      1  0.5218680000000  0.5703970000000  0.4919350000000 1.0
C      1  0.5675350000000  0.4998480000000  0.5195500000000 1.0
C      1  0.5209460000000  0.5386560000000  0.4823630000000 1.0
C      1  0.4692020000000  0.4762970000000  0.4940570000000 1.0
C      1  0.4686370000000  0.4580520000000  0.4666760000000 1.0
C      1  0.4869350000000  0.5008390000000  0.4679760000000 1.0
C      1  0.5056270000000  0.4959700000000  0.4421200000000 1.0
C      1  0.4497240000000  0.4711450000000  0.4416330000000 1.0
C      1  0.5185180000000  0.4619170000000  0.5123070000000 1.0
C      1  0.5319050000000  0.4411400000000  0.5294060000000 1.0
C      1  0.5254270000000  0.4475310000000  0.4621570000000 1.0
C      1  0.4290640000000  0.5144600000000  0.4675790000000 1.0
C      1  0.4830230000000  0.4729260000000  0.4396980000000 1.0
C      1  0.4571640000000  0.4962530000000  0.4616690000000 1.0
C      1  0.5527730000000  0.5060220000000  0.4965470000000 1.0
C      1  0.5248370000000  0.4787540000000  0.5395800000000 1.0
C      1  0.4317880000000  0.4599680000000  0.5281230000000 1.0
C      1  0.4592300000000  0.4650330000000  0.5239840000000 1.0
C      1  0.4738010000000  0.4390680000000  0.5104990000000 1.0
C      1  0.4779450000000  0.5225740000000  0.5143630000000 1.0
C      1  0.5403350000000  0.5370790000000  0.5343860000000 1.0
C      1  0.5820960000000  0.5078600000000  0.4576750000000 1.0
C      1  0.5174230000000  0.5575470000000  0.5224160000000 1.0
C      1  0.5594100000000  0.5139890000000  0.4705990000000 1.0
C      1  0.5238270000000  0.5201820000000  0.4378410000000 1.0
C      1  0.4673050000000  0.5156550000000  0.5522660000000 1.0
C      1  0.4915150000000  0.5575820000000  0.5013680000000 1.0
C      1  0.4714010000000  0.4826830000000  0.5450370000000 1.0
C      1  0.4441590000000  0.4976550000000  0.4930530000000 1.0
C      1  0.5228620000000  0.4705180000000  0.4402030000000 1.0
C      1  0.5217800000000  0.5119850000000  0.5034390000000 1.0
C      1  0.5591160000000  0.5195570000000  0.5433490000000 1.0
C      1  0.4853330000000  0.4407890000000  0.4857720000000 1.0
C      1  0.4951510000000  0.5217560000000  0.5681970000000 1.0
C      1  0.4509900000000  0.5150610000000  0.5157920000000 1.0
C      1  0.4357120000000  0.5226340000000  0.5418130000000 1.0
C      1  0.5047450000000  0.5197080000000  0.5299010000000 1.0
C      1  0.5123950000000  0.5440930000000  0.5523380000000 1.0
C      1  0.5411780000000  0.4450210000000  0.4339340000000 1.0
C      1  0.5009210000000  0.4943750000000  0.5487360000000 1.0
END
