TITL C-2847959-7740-643 -0.000297430691433834 125000 -1092.5382530903 0 0 199 (C1) n - 1
REM
REM in /home/bkarasulu/work/CARBON/AIRSS/Generating-Clusters/AIREBO/with-SteepDescent/Only-C1/SD-CG-opt/Try1-1.4A-POS3A/HFTN-CG
REM
REM
REM
REM
REM
REM ./C.cell (11c1c37f851c82e70ff6c80c92926a4b)
REM
REM compiler GCC version 9.2.1 20190827 (Red Hat 9.2.1-1)
REM options -cpp -mtune=generic -march=x86-64 -g -O0 -fpre-include=/usr/include/finclude/math-vector-fortran.h
REM seed 1661554224 -800194792 -1049262541 1448741717 719883442 -575523660 1732399310 370368264 1534018890 -725661416 494943047 1774599747 1566740841 568148213 -1879451462 38213116 30456960 1203986537 1748318466 1626361029 -1832544706 665731896 1486147472 1964797892 730025536 -793899887 -1332769061 -875889589 1282379746 -1221281533 1294970022 1951741241 -1460706262
REM
CELL 1.54180   50.00000   50.00000   50.00000   90.00000   90.00000   90.00000
LATT -1
SFAC C  
C      1  0.4750240000000  0.4231610000000  0.5816690000000 1.0
C      1  0.5099610000000  0.5898810000000  0.4587130000000 1.0
C      1  0.5259160000000  0.3982550000000  0.4745290000000 1.0
C      1  0.5649310000000  0.4402490000000  0.5303970000000 1.0
C      1  0.5057760000000  0.4774370000000  0.4395610000000 1.0
C      1  0.5782470000000  0.5839580000000  0.5009690000000 1.0
C      1  0.5513670000000  0.5392080000000  0.5137130000000 1.0
C      1  0.5853930000000  0.4840860000000  0.5784690000000 1.0
C      1  0.5000330000000  0.4093650000000  0.5932420000000 1.0
C      1  0.4448030000000  0.4293940000000  0.5737020000000 1.0
C      1  0.5087170000000  0.4670570000000  0.5853640000000 1.0
C      1  0.4823040000000  0.4806560000000  0.6019180000000 1.0
C      1  0.5075120000000  0.5088060000000  0.5892510000000 1.0
C      1  0.5376190000000  0.5346940000000  0.4656600000000 1.0
C      1  0.5307750000000  0.4147070000000  0.4451710000000 1.0
C      1  0.5104020000000  0.5617320000000  0.5366200000000 1.0
C      1  0.4926150000000  0.5382680000000  0.4858330000000 1.0
C      1  0.4569130000000  0.4278730000000  0.4301390000000 1.0
C      1  0.6012120000000  0.4453690000000  0.5144570000000 1.0
C      1  0.4968200000000  0.4348280000000  0.5283330000000 1.0
C      1  0.5123070000000  0.4814360000000  0.5107990000000 1.0
C      1  0.5533450000000  0.5708830000000  0.4339150000000 1.0
C      1  0.5525610000000  0.5360220000000  0.5478660000000 1.0
C      1  0.5179890000000  0.4743500000000  0.4825500000000 1.0
C      1  0.4245810000000  0.5630430000000  0.5859140000000 1.0
C      1  0.4514070000000  0.5220290000000  0.4684590000000 1.0
C      1  0.5778670000000  0.4971260000000  0.4118280000000 1.0
C      1  0.4215010000000  0.5018620000000  0.4310510000000 1.0
C      1  0.5454130000000  0.5676870000000  0.5906910000000 1.0
C      1  0.4452890000000  0.6059960000000  0.4909560000000 1.0
C      1  0.5041190000000  0.5854990000000  0.5723300000000 1.0
C      1  0.5470120000000  0.4052150000000  0.5275500000000 1.0
C      1  0.5375900000000  0.5996100000000  0.4760610000000 1.0
C      1  0.4694020000000  0.6245960000000  0.4599210000000 1.0
C      1  0.4897870000000  0.5328030000000  0.6038130000000 1.0
C      1  0.4708860000000  0.5070670000000  0.6047990000000 1.0
C      1  0.5558080000000  0.4809040000000  0.5342680000000 1.0
C      1  0.4871400000000  0.3949910000000  0.5007040000000 1.0
C      1  0.5113420000000  0.5114650000000  0.5158800000000 1.0
C      1  0.5654610000000  0.4635400000000  0.4591080000000 1.0
C      1  0.5195960000000  0.4079740000000  0.5734170000000 1.0
C      1  0.4786760000000  0.5970660000000  0.4695240000000 1.0
C      1  0.4539600000000  0.4980720000000  0.5210810000000 1.0
C      1  0.5378680000000  0.4701500000000  0.4404550000000 1.0
C      1  0.4942070000000  0.4660920000000  0.5333340000000 1.0
C      1  0.4665460000000  0.5961210000000  0.5107280000000 1.0
C      1  0.6108790000000  0.5008250000000  0.5082190000000 1.0
C      1  0.5649850000000  0.5143320000000  0.4642380000000 1.0
C      1  0.4615740000000  0.4691870000000  0.3869710000000 1.0
C      1  0.4167030000000  0.5152030000000  0.5842570000000 1.0
C      1  0.5575070000000  0.4024380000000  0.4622320000000 1.0
C      1  0.4860740000000  0.4993890000000  0.5668520000000 1.0
C      1  0.4086300000000  0.4613500000000  0.5236120000000 1.0
C      1  0.4375970000000  0.4910310000000  0.4662810000000 1.0
C      1  0.4753800000000  0.5440080000000  0.5685410000000 1.0
C      1  0.4257990000000  0.4286820000000  0.4854000000000 1.0
C      1  0.5139990000000  0.5283810000000  0.4454360000000 1.0
C      1  0.5468350000000  0.4273910000000  0.5789060000000 1.0
C      1  0.5635520000000  0.5732360000000  0.5556220000000 1.0
C      1  0.5378990000000  0.5656730000000  0.4739450000000 1.0
C      1  0.4480810000000  0.4126020000000  0.5286730000000 1.0
C      1  0.4516610000000  0.5058290000000  0.3994150000000 1.0
C      1  0.5726730000000  0.4897410000000  0.5101860000000 1.0
C      1  0.5372540000000  0.4533310000000  0.5957310000000 1.0
C      1  0.4465240000000  0.5196630000000  0.4361950000000 1.0
C      1  0.5300080000000  0.5191880000000  0.3966730000000 1.0
C      1  0.5360720000000  0.5924090000000  0.4370750000000 1.0
C      1  0.4711290000000  0.4544630000000  0.4409250000000 1.0
C      1  0.6118200000000  0.4884340000000  0.4827960000000 1.0
C      1  0.4159730000000  0.4993450000000  0.5580060000000 1.0
C      1  0.4068290000000  0.5682160000000  0.5402960000000 1.0
C      1  0.4830710000000  0.4269730000000  0.5005330000000 1.0
C      1  0.4357600000000  0.5618490000000  0.5011780000000 1.0
C      1  0.4698790000000  0.5501420000000  0.4634220000000 1.0
C      1  0.4431280000000  0.5117690000000  0.5941790000000 1.0
C      1  0.5783390000000  0.4130360000000  0.4869260000000 1.0
C      1  0.4075280000000  0.5415380000000  0.5797020000000 1.0
C      1  0.5598860000000  0.5245010000000  0.4049290000000 1.0
C      1  0.5984090000000  0.4818910000000  0.5305250000000 1.0
C      1  0.4756380000000  0.4182850000000  0.5478060000000 1.0
C      1  0.4077150000000  0.5181080000000  0.5147810000000 1.0
C      1  0.4560580000000  0.3977070000000  0.5030560000000 1.0
C      1  0.4882230000000  0.5839680000000  0.5426840000000 1.0
C      1  0.5202920000000  0.4409970000000  0.5045020000000 1.0
C      1  0.5266800000000  0.5189620000000  0.5558130000000 1.0
C      1  0.5522840000000  0.5923960000000  0.5034950000000 1.0
C      1  0.4520990000000  0.5766130000000  0.4752490000000 1.0
C      1  0.3952100000000  0.5454350000000  0.5538760000000 1.0
C      1  0.5813100000000  0.5506000000000  0.5374940000000 1.0
C      1  0.4078460000000  0.5694740000000  0.5121130000000 1.0
C      1  0.3999450000000  0.5734630000000  0.4613360000000 1.0
C      1  0.5477710000000  0.4871990000000  0.4127020000000 1.0
C      1  0.4948480000000  0.5020360000000  0.3975790000000 1.0
C      1  0.4980480000000  0.4170700000000  0.4530050000000 1.0
C      1  0.5361000000000  0.5861510000000  0.5710660000000 1.0
C      1  0.4747130000000  0.5560640000000  0.4300500000000 1.0
C      1  0.4668220000000  0.5361690000000  0.4033990000000 1.0
C      1  0.5777730000000  0.4119120000000  0.5173210000000 1.0
C      1  0.4687680000000  0.5363350000000  0.5299360000000 1.0
C      1  0.4743560000000  0.5038570000000  0.4246690000000 1.0
C      1  0.5925450000000  0.5507260000000  0.4381230000000 1.0
C      1  0.5471630000000  0.5417080000000  0.5810220000000 1.0
C      1  0.4653630000000  0.4082440000000  0.4565970000000 1.0
C      1  0.5175000000000  0.4549420000000  0.5556850000000 1.0
C      1  0.5173360000000  0.6004090000000  0.5208760000000 1.0
C      1  0.5648500000000  0.5148860000000  0.4975940000000 1.0
C      1  0.4996420000000  0.4371390000000  0.4767470000000 1.0
C      1  0.5841620000000  0.5484560000000  0.5688280000000 1.0
C      1  0.5274690000000  0.4078900000000  0.5031300000000 1.0
C      1  0.5180410000000  0.5440020000000  0.5086260000000 1.0
C      1  0.5052630000000  0.4016390000000  0.5488110000000 1.0
C      1  0.4517520000000  0.4636640000000  0.4612720000000 1.0
C      1  0.5163000000000  0.5141230000000  0.4823470000000 1.0
C      1  0.5360090000000  0.5046940000000  0.6074940000000 1.0
C      1  0.4561680000000  0.5686970000000  0.5770230000000 1.0
C      1  0.4494340000000  0.5768680000000  0.4268560000000 1.0
C      1  0.5709680000000  0.5291840000000  0.4347220000000 1.0
C      1  0.5895780000000  0.4607100000000  0.5541310000000 1.0
C      1  0.4358880000000  0.5477120000000  0.4318650000000 1.0
C      1  0.4275420000000  0.5734600000000  0.4519420000000 1.0
C      1  0.5974270000000  0.5043630000000  0.4620040000000 1.0
C      1  0.5829220000000  0.4858740000000  0.4426490000000 1.0
C      1  0.5328640000000  0.4880130000000  0.5802810000000 1.0
C      1  0.3920570000000  0.4884880000000  0.5364110000000 1.0
C      1  0.5436170000000  0.5512360000000  0.4161190000000 1.0
C      1  0.5397420000000  0.5784420000000  0.5318760000000 1.0
C      1  0.6126030000000  0.5317260000000  0.4523910000000 1.0
C      1  0.5373270000000  0.4945540000000  0.4641450000000 1.0
C      1  0.4913850000000  0.4652000000000  0.4661740000000 1.0
C      1  0.4691640000000  0.4731410000000  0.5636800000000 1.0
C      1  0.5770840000000  0.5158430000000  0.5756220000000 1.0
C      1  0.4366630000000  0.5338480000000  0.5183910000000 1.0
C      1  0.4645220000000  0.4726980000000  0.5314050000000 1.0
C      1  0.4455200000000  0.4091620000000  0.4792360000000 1.0
C      1  0.4408400000000  0.4557690000000  0.5664530000000 1.0
C      1  0.5566680000000  0.5224820000000  0.6008550000000 1.0
C      1  0.5176030000000  0.3589880000000  0.5238580000000 1.0
C      1  0.5118680000000  0.4366040000000  0.4077550000000 1.0
C      1  0.5366190000000  0.4391080000000  0.4265830000000 1.0
C      1  0.4338550000000  0.4534850000000  0.4268150000000 1.0
C      1  0.4723790000000  0.4529170000000  0.5904590000000 1.0
C      1  0.3895550000000  0.5223090000000  0.5388740000000 1.0
C      1  0.5329170000000  0.4635610000000  0.5266280000000 1.0
C      1  0.4663230000000  0.4723010000000  0.4879180000000 1.0
C      1  0.3847800000000  0.5458330000000  0.4664200000000 1.0
C      1  0.5014940000000  0.5740380000000  0.4295990000000 1.0
C      1  0.4204740000000  0.4561800000000  0.4579740000000 1.0
C      1  0.4603730000000  0.5182300000000  0.5678650000000 1.0
C      1  0.5722410000000  0.4575670000000  0.5020020000000 1.0
C      1  0.5401100000000  0.4307780000000  0.5478530000000 1.0
C      1  0.5532200000000  0.4979800000000  0.5592050000000 1.0
C      1  0.4563110000000  0.5884810000000  0.5423020000000 1.0
C      1  0.5813870000000  0.5534730000000  0.5064790000000 1.0
C      1  0.5953140000000  0.4296880000000  0.5414170000000 1.0
C      1  0.4354650000000  0.4956030000000  0.4978020000000 1.0
C      1  0.4945060000000  0.5970670000000  0.4977170000000 1.0
C      1  0.4085260000000  0.4577240000000  0.4897810000000 1.0
C      1  0.5075100000000  0.4535770000000  0.3856450000000 1.0
C      1  0.4305970000000  0.5820450000000  0.5585380000000 1.0
C      1  0.5143710000000  0.5464100000000  0.4214140000000 1.0
C      1  0.4614320000000  0.5649130000000  0.5199710000000 1.0
C      1  0.3962400000000  0.5177200000000  0.4651250000000 1.0
C      1  0.5058730000000  0.6114280000000  0.5496880000000 1.0
C      1  0.5651800000000  0.4568200000000  0.5778140000000 1.0
C      1  0.5679460000000  0.4394510000000  0.4261180000000 1.0
C      1  0.5184100000000  0.4982610000000  0.4197650000000 1.0
C      1  0.6145630000000  0.4617240000000  0.4771330000000 1.0
C      1  0.4189300000000  0.4679060000000  0.5548110000000 1.0
C      1  0.4935850000000  0.3881340000000  0.4695900000000 1.0
C      1  0.4773510000000  0.5014430000000  0.4755830000000 1.0
C      1  0.5684880000000  0.5595400000000  0.4605000000000 1.0
C      1  0.4354920000000  0.4759540000000  0.4047140000000 1.0
C      1  0.5877540000000  0.4435260000000  0.4751840000000 1.0
C      1  0.4206870000000  0.5227830000000  0.4836980000000 1.0
C      1  0.4862800000000  0.5647630000000  0.5926040000000 1.0
C      1  0.5794800000000  0.4633910000000  0.4176090000000 1.0
C      1  0.4019610000000  0.4899300000000  0.4965600000000 1.0
C      1  0.5171720000000  0.5744310000000  0.4977270000000 1.0
C      1  0.4995940000000  0.5347250000000  0.3956760000000 1.0
C      1  0.5919670000000  0.5410430000000  0.4767100000000 1.0
C      1  0.4070180000000  0.4874950000000  0.4537750000000 1.0
C      1  0.3768060000000  0.4944460000000  0.4788740000000 1.0
C      1  0.4349030000000  0.4101760000000  0.5572140000000 1.0
C      1  0.5782540000000  0.4249370000000  0.4482940000000 1.0
C      1  0.5165840000000  0.6006180000000  0.4147030000000 1.0
C      1  0.6035570000000  0.5276770000000  0.5064410000000 1.0
C      1  0.5097220000000  0.3881750000000  0.5222240000000 1.0
C      1  0.5029580000000  0.5391780000000  0.5553940000000 1.0
C      1  0.4402430000000  0.5129730000000  0.5450020000000 1.0
C      1  0.5437830000000  0.4550070000000  0.4842770000000 1.0
C      1  0.3893400000000  0.5671920000000  0.4911410000000 1.0
C      1  0.4724720000000  0.4721230000000  0.4181900000000 1.0
C      1  0.4911810000000  0.5144310000000  0.5382030000000 1.0
C      1  0.4896990000000  0.4251000000000  0.4215340000000 1.0
C      1  0.4903950000000  0.4759260000000  0.3828570000000 1.0
C      1  0.4622200000000  0.4498390000000  0.5097810000000 1.0
C      1  0.4325510000000  0.4390710000000  0.5155080000000 1.0
C      1  0.4938540000000  0.5060380000000  0.4502710000000 1.0
C      1  0.4729600000000  0.5183430000000  0.5029350000000 1.0
END
