TITL C-2847945-6269-6 0.00219220972855486 125000 -608.000700925547 0 0 110 (C1) n - 1
REM
REM in /home/bkarasulu/work/CARBON/AIRSS/Generating-Clusters/AIREBO/with-SteepDescent/Only-C1/SD-CG-opt/Try1-1.4A-POS3A/HFTN-CG
REM
REM
REM
REM
REM
REM ./C.cell (11c1c37f851c82e70ff6c80c92926a4b)
REM
REM compiler GCC version 9.2.1 20190827 (Red Hat 9.2.1-1)
REM options -cpp -mtune=generic -march=x86-64 -g -O0 -fpre-include=/usr/include/finclude/math-vector-fortran.h
REM seed 1255545815 -1473625639 -700466505 1445479422 1065171233 -820926429 -914746127 2128259489 -458932652 -267877203 -195565658 814991637 -795535351 1077222956 -1941284547 -2010414039 1167533143 1946728229 2072741726 594810337 -1879605421 591683663 1522916103 -308705068 1173390400 -7189680 -93539099 -222228578 -2098728126 293202611 -2086194021 -718835332 -795208474
REM
CELL 1.54180   50.00000   50.00000   50.00000   90.00000   90.00000   90.00000
LATT -1
SFAC C  
C      1  0.5231210000000  0.5526730000000  0.4894340000000 1.0
C      1  0.4373880000000  0.4839840000000  0.4320160000000 1.0
C      1  0.5094850000000  0.5284200000000  0.3947960000000 1.0
C      1  0.5369030000000  0.5399960000000  0.5246450000000 1.0
C      1  0.5157220000000  0.4089480000000  0.5545320000000 1.0
C      1  0.5276290000000  0.4309350000000  0.5643730000000 1.0
C      1  0.4937740000000  0.5119600000000  0.4691280000000 1.0
C      1  0.5471070000000  0.5711300000000  0.5154060000000 1.0
C      1  0.4877420000000  0.4647080000000  0.5393730000000 1.0
C      1  0.5776990000000  0.5394370000000  0.5079630000000 1.0
C      1  0.4767800000000  0.5101720000000  0.5684320000000 1.0
C      1  0.5936550000000  0.4847330000000  0.4978630000000 1.0
C      1  0.5500320000000  0.4325310000000  0.4736120000000 1.0
C      1  0.5191300000000  0.5248500000000  0.4788890000000 1.0
C      1  0.4503740000000  0.5264220000000  0.5596820000000 1.0
C      1  0.5038900000000  0.5174470000000  0.5855420000000 1.0
C      1  0.4468220000000  0.4900640000000  0.4869490000000 1.0
C      1  0.4250160000000  0.4416520000000  0.5071660000000 1.0
C      1  0.5124070000000  0.4778220000000  0.4844880000000 1.0
C      1  0.4738210000000  0.4724410000000  0.4926270000000 1.0
C      1  0.4330520000000  0.5055540000000  0.4506980000000 1.0
C      1  0.4960380000000  0.4411090000000  0.4329630000000 1.0
C      1  0.5057870000000  0.6018800000000  0.4923120000000 1.0
C      1  0.5348090000000  0.5149520000000  0.5049080000000 1.0
C      1  0.5595570000000  0.5500940000000  0.4556190000000 1.0
C      1  0.4584210000000  0.5011420000000  0.5156400000000 1.0
C      1  0.5329230000000  0.4181010000000  0.4992120000000 1.0
C      1  0.4058880000000  0.4758710000000  0.4748210000000 1.0
C      1  0.4741530000000  0.5875670000000  0.5285410000000 1.0
C      1  0.5533250000000  0.4888970000000  0.5474270000000 1.0
C      1  0.4890610000000  0.4112810000000  0.4713880000000 1.0
C      1  0.4755220000000  0.4066440000000  0.5016980000000 1.0
C      1  0.4951680000000  0.5773340000000  0.4761110000000 1.0
C      1  0.5026070000000  0.4868010000000  0.4536320000000 1.0
C      1  0.5067250000000  0.4352160000000  0.5125090000000 1.0
C      1  0.4696200000000  0.5567160000000  0.5167720000000 1.0
C      1  0.5010510000000  0.5147820000000  0.5263450000000 1.0
C      1  0.5161040000000  0.5291850000000  0.4340200000000 1.0
C      1  0.5807100000000  0.4916790000000  0.5285390000000 1.0
C      1  0.4196660000000  0.5522430000000  0.5058280000000 1.0
C      1  0.5484650000000  0.4717020000000  0.4376940000000 1.0
C      1  0.4652400000000  0.4549770000000  0.5615300000000 1.0
C      1  0.4657330000000  0.4150280000000  0.5331910000000 1.0
C      1  0.5000410000000  0.5654820000000  0.5076220000000 1.0
C      1  0.4415760000000  0.4347280000000  0.4510660000000 1.0
C      1  0.5647630000000  0.4444090000000  0.5013040000000 1.0
C      1  0.4397970000000  0.4947270000000  0.5664150000000 1.0
C      1  0.4137940000000  0.5334850000000  0.5261930000000 1.0
C      1  0.4738470000000  0.5328190000000  0.5359120000000 1.0
C      1  0.5148320000000  0.5609620000000  0.5362290000000 1.0
C      1  0.4862470000000  0.5359140000000  0.4483270000000 1.0
C      1  0.5519660000000  0.5597830000000  0.4852620000000 1.0
C      1  0.5740220000000  0.4818940000000  0.4785060000000 1.0
C      1  0.5390040000000  0.5250690000000  0.4543120000000 1.0
C      1  0.4961630000000  0.4852360000000  0.5134220000000 1.0
C      1  0.5028240000000  0.4471080000000  0.4819770000000 1.0
C      1  0.4175990000000  0.5024200000000  0.4884190000000 1.0
C      1  0.5412180000000  0.4587430000000  0.5507640000000 1.0
C      1  0.4484280000000  0.5493250000000  0.4912260000000 1.0
C      1  0.4587780000000  0.4761420000000  0.5786880000000 1.0
C      1  0.4142610000000  0.5065560000000  0.5184710000000 1.0
C      1  0.4233990000000  0.5394430000000  0.5520030000000 1.0
C      1  0.5274080000000  0.5942850000000  0.5144200000000 1.0
C      1  0.5786670000000  0.5222620000000  0.4514620000000 1.0
C      1  0.5068980000000  0.4572010000000  0.4098640000000 1.0
C      1  0.5398480000000  0.5506320000000  0.5735280000000 1.0
C      1  0.4191520000000  0.5333050000000  0.4427260000000 1.0
C      1  0.5396410000000  0.5762180000000  0.4510870000000 1.0
C      1  0.4339310000000  0.4867860000000  0.5344620000000 1.0
C      1  0.5881970000000  0.5211640000000  0.5323860000000 1.0
C      1  0.4498200000000  0.4376080000000  0.5453920000000 1.0
C      1  0.5298720000000  0.4431210000000  0.4357130000000 1.0
C      1  0.5818600000000  0.5242970000000  0.4844550000000 1.0
C      1  0.4965260000000  0.4137420000000  0.5346590000000 1.0
C      1  0.4718920000000  0.4936790000000  0.5434180000000 1.0
C      1  0.5716420000000  0.5575030000000  0.5338350000000 1.0
C      1  0.4814460000000  0.5198570000000  0.4990170000000 1.0
C      1  0.5665280000000  0.5512380000000  0.5632530000000 1.0
C      1  0.5124450000000  0.5791400000000  0.4505260000000 1.0
C      1  0.5180190000000  0.5059940000000  0.4114180000000 1.0
C      1  0.4519020000000  0.4298940000000  0.4989170000000 1.0
C      1  0.5892120000000  0.5318460000000  0.5587350000000 1.0
C      1  0.4751880000000  0.4479360000000  0.5125850000000 1.0
C      1  0.4789010000000  0.5475440000000  0.4790540000000 1.0
C      1  0.4361280000000  0.4538500000000  0.4276810000000 1.0
C      1  0.5696280000000  0.4982500000000  0.4402210000000 1.0
C      1  0.5217720000000  0.5691440000000  0.5613490000000 1.0
C      1  0.4582030000000  0.4206670000000  0.4688200000000 1.0
C      1  0.4833820000000  0.4635040000000  0.4611470000000 1.0
C      1  0.5047040000000  0.5526920000000  0.4122150000000 1.0
C      1  0.5264360000000  0.5255910000000  0.5724590000000 1.0
C      1  0.5241580000000  0.4590040000000  0.5241870000000 1.0
C      1  0.4238380000000  0.4580950000000  0.4654520000000 1.0
C      1  0.5352080000000  0.4833890000000  0.5062630000000 1.0
C      1  0.4953840000000  0.6049640000000  0.5214310000000 1.0
C      1  0.5400190000000  0.4885440000000  0.5787410000000 1.0
C      1  0.5002380000000  0.5766040000000  0.4253140000000 1.0
C      1  0.5179670000000  0.4273830000000  0.4634140000000 1.0
C      1  0.5633580000000  0.4603170000000  0.4634520000000 1.0
C      1  0.5139590000000  0.4789710000000  0.5827990000000 1.0
C      1  0.5612850000000  0.4685320000000  0.5139560000000 1.0
C      1  0.4853800000000  0.4901080000000  0.5939930000000 1.0
C      1  0.5192350000000  0.4810150000000  0.4281400000000 1.0
C      1  0.5542170000000  0.5062210000000  0.4783920000000 1.0
C      1  0.4299720000000  0.4538200000000  0.5315440000000 1.0
C      1  0.4532440000000  0.4721400000000  0.4587760000000 1.0
C      1  0.5098060000000  0.4584870000000  0.5613670000000 1.0
C      1  0.5298120000000  0.5132760000000  0.5444460000000 1.0
C      1  0.4288430000000  0.5301770000000  0.4738070000000 1.0
C      1  0.4041500000000  0.5466800000000  0.4252910000000 1.0
END
