TITL C-2847956-8218-207 0.000604123349777283 125000 -708.939138103941 0 0 129 (C1) n - 1
REM
REM in /home/bkarasulu/work/CARBON/AIRSS/Generating-Clusters/AIREBO/with-SteepDescent/Only-C1/SD-CG-opt/Try1-1.4A-POS3A/HFTN-CG
REM
REM
REM
REM
REM
REM ./C.cell (11c1c37f851c82e70ff6c80c92926a4b)
REM
REM compiler GCC version 9.2.1 20190827 (Red Hat 9.2.1-1)
REM options -cpp -mtune=generic -march=x86-64 -g -O0 -fpre-include=/usr/include/finclude/math-vector-fortran.h
REM seed -1478740491 -916349873 -1862056607 814563992 -1730081355 263093673 1792440665 1673897761 1655427593 833559801 1597326642 -405118453 -905347451 1545735946 670641767 1722653712 -1565607361 1306533591 1451403355 38075901 -845278355 1160491147 1034767515 -1391591836 698208904 1487408205 -1022266200 -2041291822 -1056420407 2021619766 -58155884 1974333589 -928191932
REM
CELL 1.54180   50.00000   50.00000   50.00000   90.00000   90.00000   90.00000
LATT -1
SFAC C  
C      1  0.5397900000000  0.4677570000000  0.5157000000000 1.0
C      1  0.5361750000000  0.5265680000000  0.5830060000000 1.0
C      1  0.5096790000000  0.5000140000000  0.3925050000000 1.0
C      1  0.4300900000000  0.4908570000000  0.4141390000000 1.0
C      1  0.5711340000000  0.4469330000000  0.5348170000000 1.0
C      1  0.5471840000000  0.5570750000000  0.5499110000000 1.0
C      1  0.5527960000000  0.5187060000000  0.4194320000000 1.0
C      1  0.4613170000000  0.4281280000000  0.4597240000000 1.0
C      1  0.4168380000000  0.5227370000000  0.4894300000000 1.0
C      1  0.5580480000000  0.5313500000000  0.4447570000000 1.0
C      1  0.5854550000000  0.4655520000000  0.4890750000000 1.0
C      1  0.4649650000000  0.4723710000000  0.5747050000000 1.0
C      1  0.5484970000000  0.4686590000000  0.4192450000000 1.0
C      1  0.5338240000000  0.5387690000000  0.4618490000000 1.0
C      1  0.5641520000000  0.4862160000000  0.4522370000000 1.0
C      1  0.4103490000000  0.5301310000000  0.4639230000000 1.0
C      1  0.4913370000000  0.5938850000000  0.5166830000000 1.0
C      1  0.5973810000000  0.5026190000000  0.5317070000000 1.0
C      1  0.4829100000000  0.4352120000000  0.5634240000000 1.0
C      1  0.4949160000000  0.5848160000000  0.4540280000000 1.0
C      1  0.4982260000000  0.4122280000000  0.4839720000000 1.0
C      1  0.5254930000000  0.5149220000000  0.4162800000000 1.0
C      1  0.5565670000000  0.4495130000000  0.4384870000000 1.0
C      1  0.4788980000000  0.5943430000000  0.5417630000000 1.0
C      1  0.4646000000000  0.5773810000000  0.4629180000000 1.0
C      1  0.5809700000000  0.5412050000000  0.4760090000000 1.0
C      1  0.4556360000000  0.4222330000000  0.5085960000000 1.0
C      1  0.5159530000000  0.5640900000000  0.4478640000000 1.0
C      1  0.4180840000000  0.4915830000000  0.5195860000000 1.0
C      1  0.4405790000000  0.4930850000000  0.5656910000000 1.0
C      1  0.4811360000000  0.5169640000000  0.3919990000000 1.0
C      1  0.4934480000000  0.4637910000000  0.5605160000000 1.0
C      1  0.4757180000000  0.4908820000000  0.5159780000000 1.0
C      1  0.4905590000000  0.5399700000000  0.5928090000000 1.0
C      1  0.4245940000000  0.4209090000000  0.5160150000000 1.0
C      1  0.4869570000000  0.5499110000000  0.4363120000000 1.0
C      1  0.5670060000000  0.4869960000000  0.5681960000000 1.0
C      1  0.4211560000000  0.5236900000000  0.5231860000000 1.0
C      1  0.5976330000000  0.4896470000000  0.5040630000000 1.0
C      1  0.5152650000000  0.5113510000000  0.5099880000000 1.0
C      1  0.5292620000000  0.5377730000000  0.5206420000000 1.0
C      1  0.5349390000000  0.4306760000000  0.4504240000000 1.0
C      1  0.4586130000000  0.5680260000000  0.5188710000000 1.0
C      1  0.4545570000000  0.5175760000000  0.4459120000000 1.0
C      1  0.5656850000000  0.4930540000000  0.4200560000000 1.0
C      1  0.4993950000000  0.4119030000000  0.5355490000000 1.0
C      1  0.4527800000000  0.5391730000000  0.4721980000000 1.0
C      1  0.4878480000000  0.5766900000000  0.5620370000000 1.0
C      1  0.4695060000000  0.4281450000000  0.5359660000000 1.0
C      1  0.4533240000000  0.4564290000000  0.5469830000000 1.0
C      1  0.5269010000000  0.5012840000000  0.5914590000000 1.0
C      1  0.4834820000000  0.5233950000000  0.5115920000000 1.0
C      1  0.5246470000000  0.5130760000000  0.4790310000000 1.0
C      1  0.5342160000000  0.5014570000000  0.5364450000000 1.0
C      1  0.5234690000000  0.4277710000000  0.5518310000000 1.0
C      1  0.4787750000000  0.5301800000000  0.5435490000000 1.0
C      1  0.4218510000000  0.5682120000000  0.5031230000000 1.0
C      1  0.4489770000000  0.5140760000000  0.5402870000000 1.0
C      1  0.4212530000000  0.5541440000000  0.5267980000000 1.0
C      1  0.4171700000000  0.4770790000000  0.5503260000000 1.0
C      1  0.4281740000000  0.5381690000000  0.4415430000000 1.0
C      1  0.5346400000000  0.4523450000000  0.5714120000000 1.0
C      1  0.4952390000000  0.4523350000000  0.4922440000000 1.0
C      1  0.4359230000000  0.4372800000000  0.4685550000000 1.0
C      1  0.5334260000000  0.4857470000000  0.4652870000000 1.0
C      1  0.5779390000000  0.5163860000000  0.4997800000000 1.0
C      1  0.4189350000000  0.4831180000000  0.4591280000000 1.0
C      1  0.4742500000000  0.4836800000000  0.6000320000000 1.0
C      1  0.4757390000000  0.5108970000000  0.5707600000000 1.0
C      1  0.5184100000000  0.5478860000000  0.5871740000000 1.0
C      1  0.5084440000000  0.4363550000000  0.4671850000000 1.0
C      1  0.5418900000000  0.5831190000000  0.4952820000000 1.0
C      1  0.4775970000000  0.5198120000000  0.4232130000000 1.0
C      1  0.5519080000000  0.4363800000000  0.4791030000000 1.0
C      1  0.4539710000000  0.5582320000000  0.4373120000000 1.0
C      1  0.5233290000000  0.4755040000000  0.5492300000000 1.0
C      1  0.4913010000000  0.4683320000000  0.5297920000000 1.0
C      1  0.5518470000000  0.4680760000000  0.4856730000000 1.0
C      1  0.4777620000000  0.5747390000000  0.4941570000000 1.0
C      1  0.5781790000000  0.5135420000000  0.4599990000000 1.0
C      1  0.5433540000000  0.4805150000000  0.5829010000000 1.0
C      1  0.4495640000000  0.4826800000000  0.5283440000000 1.0
C      1  0.4399880000000  0.5685590000000  0.4835680000000 1.0
C      1  0.4460530000000  0.5243680000000  0.5787280000000 1.0
C      1  0.4965280000000  0.5066300000000  0.5958160000000 1.0
C      1  0.5092060000000  0.4253950000000  0.4288240000000 1.0
C      1  0.4319720000000  0.4552300000000  0.4971690000000 1.0
C      1  0.4435920000000  0.5629370000000  0.5489500000000 1.0
C      1  0.5347110000000  0.4370570000000  0.5219130000000 1.0
C      1  0.5231630000000  0.5566570000000  0.4862430000000 1.0
C      1  0.5193460000000  0.5686610000000  0.5646830000000 1.0
C      1  0.4937620000000  0.5106700000000  0.4678000000000 1.0
C      1  0.4826610000000  0.5384020000000  0.4652150000000 1.0
C      1  0.5783890000000  0.5480830000000  0.5081810000000 1.0
C      1  0.5053340000000  0.4783920000000  0.4472330000000 1.0
C      1  0.4678930000000  0.5499740000000  0.5689650000000 1.0
C      1  0.4466640000000  0.5072610000000  0.4945070000000 1.0
C      1  0.4534600000000  0.5384680000000  0.5061880000000 1.0
C      1  0.4596740000000  0.4739580000000  0.4692400000000 1.0
C      1  0.4247530000000  0.4514810000000  0.5292090000000 1.0
C      1  0.4670180000000  0.4613600000000  0.4250200000000 1.0
C      1  0.5151110000000  0.5744170000000  0.5143410000000 1.0
C      1  0.4490430000000  0.5942000000000  0.5391770000000 1.0
C      1  0.4707400000000  0.4123120000000  0.4820180000000 1.0
C      1  0.5226790000000  0.4734760000000  0.4093250000000 1.0
C      1  0.5788900000000  0.4586220000000  0.4578170000000 1.0
C      1  0.4468080000000  0.4849140000000  0.4397290000000 1.0
C      1  0.4652120000000  0.4505240000000  0.4923050000000 1.0
C      1  0.5522960000000  0.5596400000000  0.5167930000000 1.0
C      1  0.5704980000000  0.4743090000000  0.5403970000000 1.0
C      1  0.5799950000000  0.5108520000000  0.5529550000000 1.0
C      1  0.4906660000000  0.4886510000000  0.4183070000000 1.0
C      1  0.5121850000000  0.4780110000000  0.5068900000000 1.0
C      1  0.5715140000000  0.4404210000000  0.5066590000000 1.0
C      1  0.5139430000000  0.5107580000000  0.4413000000000 1.0
C      1  0.5091310000000  0.5527260000000  0.5383950000000 1.0
C      1  0.4942910000000  0.5488560000000  0.4918030000000 1.0
C      1  0.4236360000000  0.4835190000000  0.4874430000000 1.0
C      1  0.5140930000000  0.4055720000000  0.5055470000000 1.0
C      1  0.5436210000000  0.4139990000000  0.5022650000000 1.0
C      1  0.5501500000000  0.5250210000000  0.5551170000000 1.0
C      1  0.5482050000000  0.5764420000000  0.4625430000000 1.0
C      1  0.5569420000000  0.4326060000000  0.5547810000000 1.0
C      1  0.5036750000000  0.4412510000000  0.5199680000000 1.0
C      1  0.4824770000000  0.4542500000000  0.4544590000000 1.0
C      1  0.5604310000000  0.4947550000000  0.5168080000000 1.0
C      1  0.5733540000000  0.5673690000000  0.4596880000000 1.0
C      1  0.4748300000000  0.4957070000000  0.4840930000000 1.0
C      1  0.4876280000000  0.4349850000000  0.4199120000000 1.0
END
