TITL C-2848495-5024-114 0.00135494330216884 125000 -389.148640083162 0 0 76 (C1) n - 1
REM
REM in /home/bkarasulu/work/CARBON/AIRSS/Generating-Clusters/AIREBO/with-SteepDescent/Only-C1/SD-CG-opt/Try1-1.4A-POS3A/HFTN-CG
REM
REM
REM
REM
REM
REM ./C.cell (11c1c37f851c82e70ff6c80c92926a4b)
REM
REM compiler GCC version 9.2.1 20190827 (Red Hat 9.2.1-1)
REM options -cpp -mtune=generic -march=x86-64 -g -O0 -fpre-include=/usr/include/finclude/math-vector-fortran.h
REM seed 829616764 -1505791651 -1215114659 588029460 -1945944748 1426244483 479704401 109107925 958438975 1679773604 -417921778 -887722922 319718917 -631640523 -1738757169 -1232754470 -1806878671 -68428605 -178660239 1946122703 2006855538 -634566384 -111948497 -326910299 -2107769750 -2116409819 2126779610 -786080861 468202986 -1269818830 -749538307 2069455857 976713801
REM
CELL 1.54180   50.00000   50.00000   50.00000   90.00000   90.00000   90.00000
LATT -1
SFAC C  
C      1  0.4122470000000  0.4784930000000  0.5370420000000 1.0
C      1  0.4545490000000  0.5198440000000  0.5132200000000 1.0
C      1  0.4636850000000  0.4784480000000  0.4790120000000 1.0
C      1  0.4860140000000  0.4928380000000  0.5504140000000 1.0
C      1  0.4492710000000  0.5665790000000  0.5080430000000 1.0
C      1  0.5859980000000  0.5014640000000  0.4805520000000 1.0
C      1  0.4287290000000  0.5476360000000  0.5006720000000 1.0
C      1  0.4773040000000  0.4186400000000  0.4786620000000 1.0
C      1  0.5212040000000  0.4863140000000  0.4328420000000 1.0
C      1  0.5228760000000  0.5441560000000  0.4994750000000 1.0
C      1  0.4846470000000  0.5150650000000  0.4578630000000 1.0
C      1  0.5217330000000  0.4914650000000  0.5137100000000 1.0
C      1  0.4355320000000  0.4427930000000  0.5070710000000 1.0
C      1  0.4908330000000  0.4527870000000  0.4634960000000 1.0
C      1  0.4604180000000  0.5820820000000  0.4878750000000 1.0
C      1  0.4234240000000  0.5024300000000  0.5447150000000 1.0
C      1  0.5144440000000  0.4843120000000  0.5429210000000 1.0
C      1  0.4618530000000  0.5498410000000  0.5563050000000 1.0
C      1  0.4549680000000  0.5013040000000  0.5495040000000 1.0
C      1  0.5050050000000  0.4159720000000  0.4769780000000 1.0
C      1  0.4647250000000  0.4331990000000  0.4539690000000 1.0
C      1  0.5432410000000  0.5572070000000  0.5429640000000 1.0
C      1  0.5680710000000  0.4618380000000  0.5098630000000 1.0
C      1  0.4235100000000  0.4663240000000  0.5140590000000 1.0
C      1  0.4716770000000  0.5253360000000  0.5670260000000 1.0
C      1  0.5832580000000  0.4712300000000  0.4876550000000 1.0
C      1  0.4917080000000  0.4784660000000  0.5105610000000 1.0
C      1  0.5159990000000  0.4716760000000  0.4695500000000 1.0
C      1  0.5010370000000  0.4334480000000  0.5267200000000 1.0
C      1  0.5425930000000  0.5512520000000  0.4726860000000 1.0
C      1  0.5117800000000  0.4507970000000  0.5481560000000 1.0
C      1  0.4721990000000  0.5105270000000  0.4873420000000 1.0
C      1  0.5254770000000  0.5115180000000  0.4933380000000 1.0
C      1  0.4535510000000  0.5023990000000  0.4361660000000 1.0
C      1  0.4953970000000  0.4491510000000  0.4970180000000 1.0
C      1  0.5026560000000  0.5344280000000  0.4386440000000 1.0
C      1  0.5266730000000  0.4492190000000  0.4463370000000 1.0
C      1  0.4370110000000  0.4880280000000  0.4965880000000 1.0
C      1  0.5268940000000  0.4388480000000  0.4893770000000 1.0
C      1  0.5096130000000  0.5897280000000  0.5175990000000 1.0
C      1  0.4226780000000  0.5130860000000  0.4889540000000 1.0
C      1  0.5591820000000  0.5174720000000  0.4904310000000 1.0
C      1  0.5458440000000  0.4642390000000  0.4770110000000 1.0
C      1  0.5548160000000  0.4380490000000  0.5057280000000 1.0
C      1  0.5397860000000  0.5175090000000  0.5437850000000 1.0
C      1  0.4346000000000  0.5345820000000  0.4705680000000 1.0
C      1  0.5512640000000  0.4810920000000  0.5277540000000 1.0
C      1  0.4852120000000  0.5706340000000  0.4803070000000 1.0
C      1  0.5285920000000  0.5007430000000  0.5691160000000 1.0
C      1  0.5574190000000  0.5747230000000  0.4747890000000 1.0
C      1  0.5490820000000  0.4692630000000  0.4364250000000 1.0
C      1  0.5272460000000  0.5517460000000  0.5622120000000 1.0
C      1  0.5056210000000  0.5254690000000  0.5626450000000 1.0
C      1  0.5218250000000  0.4224780000000  0.4529860000000 1.0
C      1  0.4534740000000  0.5274670000000  0.4523110000000 1.0
C      1  0.4942430000000  0.4730480000000  0.4363930000000 1.0
C      1  0.5129850000000  0.5327780000000  0.5302480000000 1.0
C      1  0.4619660000000  0.4465850000000  0.4913450000000 1.0
C      1  0.4880290000000  0.4651710000000  0.5658640000000 1.0
C      1  0.4746360000000  0.5521160000000  0.5251450000000 1.0
C      1  0.5411740000000  0.4699610000000  0.5582700000000 1.0
C      1  0.4935050000000  0.5777370000000  0.5361790000000 1.0
C      1  0.5764090000000  0.4782600000000  0.4550860000000 1.0
C      1  0.5538450000000  0.5266800000000  0.4514890000000 1.0
C      1  0.4867680000000  0.5403920000000  0.4956010000000 1.0
C      1  0.5168350000000  0.5046190000000  0.4611770000000 1.0
C      1  0.4252670000000  0.5243060000000  0.5237110000000 1.0
C      1  0.5110160000000  0.5747000000000  0.4940670000000 1.0
C      1  0.4944920000000  0.4087210000000  0.5326440000000 1.0
C      1  0.5270170000000  0.5418320000000  0.4451420000000 1.0
C      1  0.4671820000000  0.4806060000000  0.4475690000000 1.0
C      1  0.5693500000000  0.5070900000000  0.5373380000000 1.0
C      1  0.4626610000000  0.4878830000000  0.5189060000000 1.0
C      1  0.4840490000000  0.5197340000000  0.5296540000000 1.0
C      1  0.5506080000000  0.5360220000000  0.5173990000000 1.0
C      1  0.5495190000000  0.4961230000000  0.4657590000000 1.0
END
