TITL C-2847951-7423-383 -0.00036721539298927 125000 -287.230941782891 0 0 54 (C1) n - 1
REM
REM in /home/bkarasulu/work/CARBON/AIRSS/Generating-Clusters/AIREBO/with-SteepDescent/Only-C1/SD-CG-opt/Try1-1.4A-POS3A/HFTN-CG
REM
REM
REM
REM
REM
REM ./C.cell (11c1c37f851c82e70ff6c80c92926a4b)
REM
REM compiler GCC version 9.2.1 20190827 (Red Hat 9.2.1-1)
REM options -cpp -mtune=generic -march=x86-64 -g -O0 -fpre-include=/usr/include/finclude/math-vector-fortran.h
REM seed 2103867663 -1405307020 -282671915 1226289909 -383020188 -1662891129 1792325890 675256187 -1162425649 -2086098530 -1816449817 1906631660 -719421037 1773550345 -1219675238 1908016429 153055596 1458003031 3577814 1174217861 1838524133 304090107 250544157 -2006480186 -1856503993 -618907129 1206821938 470413422 -1936100611 -1456093474 -1823003722 1884196801 -1953946823
REM
CELL 1.54180   50.00000   50.00000   50.00000   90.00000   90.00000   90.00000
LATT -1
SFAC C  
C      1  0.5128780000000  0.5642250000000  0.4764270000000 1.0
C      1  0.5663450000000  0.4901040000000  0.5173410000000 1.0
C      1  0.4966330000000  0.5078900000000  0.4668920000000 1.0
C      1  0.4924020000000  0.4594300000000  0.4521810000000 1.0
C      1  0.4946740000000  0.5577680000000  0.4968350000000 1.0
C      1  0.4998430000000  0.5550930000000  0.4521850000000 1.0
C      1  0.5414290000000  0.5403910000000  0.5372830000000 1.0
C      1  0.5037140000000  0.4768780000000  0.5609600000000 1.0
C      1  0.4674220000000  0.5214590000000  0.4332660000000 1.0
C      1  0.5458050000000  0.4689740000000  0.4725340000000 1.0
C      1  0.4930670000000  0.4357800000000  0.4658620000000 1.0
C      1  0.4604320000000  0.4986120000000  0.5917560000000 1.0
C      1  0.5024520000000  0.4623700000000  0.4967290000000 1.0
C      1  0.4755660000000  0.5504510000000  0.5197810000000 1.0
C      1  0.4968160000000  0.5265090000000  0.4399780000000 1.0
C      1  0.5357740000000  0.4512300000000  0.5271940000000 1.0
C      1  0.4832960000000  0.5182670000000  0.5176520000000 1.0
C      1  0.5290560000000  0.5172610000000  0.5420390000000 1.0
C      1  0.5523990000000  0.5098950000000  0.4476750000000 1.0
C      1  0.5719880000000  0.5182560000000  0.5215780000000 1.0
C      1  0.5330900000000  0.4910610000000  0.5536970000000 1.0
C      1  0.4349870000000  0.5318360000000  0.5063410000000 1.0
C      1  0.4791620000000  0.5216770000000  0.5863390000000 1.0
C      1  0.4563670000000  0.4963050000000  0.4413370000000 1.0
C      1  0.4793250000000  0.4398940000000  0.5201780000000 1.0
C      1  0.4393580000000  0.5000740000000  0.4640080000000 1.0
C      1  0.5542660000000  0.5343740000000  0.4790770000000 1.0
C      1  0.4804120000000  0.4847220000000  0.4857990000000 1.0
C      1  0.5503850000000  0.4751970000000  0.5369830000000 1.0
C      1  0.4715470000000  0.4720790000000  0.4366360000000 1.0
C      1  0.4898740000000  0.4468840000000  0.5519560000000 1.0
C      1  0.5106120000000  0.5062380000000  0.5201210000000 1.0
C      1  0.4649150000000  0.5001140000000  0.5341700000000 1.0
C      1  0.4675690000000  0.5461070000000  0.4581310000000 1.0
C      1  0.4796380000000  0.4963770000000  0.5636280000000 1.0
C      1  0.5296790000000  0.4284960000000  0.5133830000000 1.0
C      1  0.5015070000000  0.4302090000000  0.4970360000000 1.0
C      1  0.5397420000000  0.5628630000000  0.4847880000000 1.0
C      1  0.4366510000000  0.5035050000000  0.5203170000000 1.0
C      1  0.4787850000000  0.5298040000000  0.4858020000000 1.0
C      1  0.4630040000000  0.4580150000000  0.4977540000000 1.0
C      1  0.5560280000000  0.5458220000000  0.5096410000000 1.0
C      1  0.4486690000000  0.4915220000000  0.4929810000000 1.0
C      1  0.5712910000000  0.5078260000000  0.4727090000000 1.0
C      1  0.5409340000000  0.4830260000000  0.4421710000000 1.0
C      1  0.4472340000000  0.5525720000000  0.5196800000000 1.0
C      1  0.5646030000000  0.4844770000000  0.4886670000000 1.0
C      1  0.5094690000000  0.4718680000000  0.5278180000000 1.0
C      1  0.4142090000000  0.4930780000000  0.5327360000000 1.0
C      1  0.4758350000000  0.4712570000000  0.5328490000000 1.0
C      1  0.5138470000000  0.4789140000000  0.4623150000000 1.0
C      1  0.5295300000000  0.5141450000000  0.4728200000000 1.0
C      1  0.5197670000000  0.4904120000000  0.4940100000000 1.0
C      1  0.4457170000000  0.5284050000000  0.4779760000000 1.0
END
