TITL C-2848497-6229-401 0.000386161487735684 125000 -819.873034719885 0 0 154 (C1) n - 1
REM
REM in /home/bkarasulu/work/CARBON/AIRSS/Generating-Clusters/AIREBO/with-SteepDescent/Only-C1/SD-CG-opt/Try1-1.4A-POS3A/HFTN-CG
REM
REM
REM
REM
REM
REM ./C.cell (11c1c37f851c82e70ff6c80c92926a4b)
REM
REM compiler GCC version 9.2.1 20190827 (Red Hat 9.2.1-1)
REM options -cpp -mtune=generic -march=x86-64 -g -O0 -fpre-include=/usr/include/finclude/math-vector-fortran.h
REM seed 1434661892 -888599540 1087310283 -216708678 -512109411 -584242703 665713951 -495057134 -393498738 954793100 -1018531559 -1934210527 -613607140 253082002 1413168197 774891326 1039011319 -1662642318 651182503 1764891181 -689930100 -1873021625 -568315128 389185710 1433739955 2016943279 -844222957 -1614022556 -1983031594 -622898115 -989385920 -1926928239 964084664
REM
CELL 1.54180   50.00000   50.00000   50.00000   90.00000   90.00000   90.00000
LATT -1
SFAC C  
C      1  0.5447890000000  0.5014050000000  0.4911920000000 1.0
C      1  0.5747540000000  0.5155580000000  0.5875180000000 1.0
C      1  0.5314990000000  0.4746210000000  0.5536230000000 1.0
C      1  0.4195740000000  0.4728370000000  0.5593090000000 1.0
C      1  0.4729360000000  0.5478320000000  0.5440360000000 1.0
C      1  0.4856160000000  0.5345170000000  0.4181520000000 1.0
C      1  0.5498610000000  0.5238930000000  0.4028570000000 1.0
C      1  0.5053910000000  0.5110850000000  0.5394020000000 1.0
C      1  0.4336410000000  0.5629440000000  0.4641910000000 1.0
C      1  0.4881110000000  0.5017220000000  0.4894150000000 1.0
C      1  0.4532110000000  0.4769000000000  0.4658210000000 1.0
C      1  0.3881520000000  0.5119610000000  0.4765720000000 1.0
C      1  0.5525970000000  0.5360510000000  0.5189790000000 1.0
C      1  0.5492690000000  0.4730880000000  0.4038210000000 1.0
C      1  0.4054920000000  0.5303460000000  0.4980970000000 1.0
C      1  0.5850360000000  0.4583490000000  0.5415290000000 1.0
C      1  0.5415790000000  0.4223130000000  0.4578890000000 1.0
C      1  0.3795470000000  0.4622260000000  0.5153190000000 1.0
C      1  0.5257700000000  0.5242210000000  0.6070770000000 1.0
C      1  0.4866160000000  0.5798190000000  0.4956110000000 1.0
C      1  0.5333270000000  0.4633300000000  0.4895310000000 1.0
C      1  0.5293610000000  0.4525740000000  0.4575520000000 1.0
C      1  0.4618370000000  0.4398900000000  0.4781350000000 1.0
C      1  0.4645190000000  0.5641350000000  0.5726670000000 1.0
C      1  0.5564240000000  0.5254420000000  0.4592830000000 1.0
C      1  0.4262400000000  0.4684420000000  0.4504560000000 1.0
C      1  0.5000430000000  0.5331430000000  0.5878910000000 1.0
C      1  0.5064130000000  0.4999780000000  0.5946880000000 1.0
C      1  0.5326450000000  0.5010660000000  0.4594320000000 1.0
C      1  0.5469400000000  0.5121590000000  0.5347900000000 1.0
C      1  0.4714410000000  0.4799430000000  0.5096400000000 1.0
C      1  0.5092180000000  0.4801190000000  0.4972080000000 1.0
C      1  0.5511160000000  0.4567990000000  0.5139660000000 1.0
C      1  0.5538300000000  0.4761820000000  0.4577640000000 1.0
C      1  0.4876860000000  0.4672860000000  0.4290350000000 1.0
C      1  0.5142640000000  0.4670610000000  0.6012470000000 1.0
C      1  0.5055760000000  0.4957110000000  0.3900890000000 1.0
C      1  0.5519550000000  0.4156730000000  0.4830810000000 1.0
C      1  0.4051180000000  0.4723420000000  0.5037070000000 1.0
C      1  0.5307680000000  0.5199960000000  0.5602300000000 1.0
C      1  0.4776000000000  0.4585520000000  0.4556750000000 1.0
C      1  0.6001500000000  0.4966080000000  0.4666130000000 1.0
C      1  0.5371310000000  0.4156690000000  0.5636110000000 1.0
C      1  0.4883780000000  0.3939370000000  0.4996030000000 1.0
C      1  0.5089180000000  0.5581220000000  0.4258080000000 1.0
C      1  0.4458420000000  0.5060920000000  0.4368090000000 1.0
C      1  0.5051630000000  0.4299020000000  0.5028840000000 1.0
C      1  0.5917660000000  0.4538760000000  0.4773850000000 1.0
C      1  0.4556850000000  0.5295370000000  0.5207210000000 1.0
C      1  0.5183470000000  0.6096800000000  0.4571780000000 1.0
C      1  0.4029760000000  0.4933950000000  0.4533560000000 1.0
C      1  0.5151070000000  0.4143120000000  0.4427420000000 1.0
C      1  0.4841270000000  0.5222690000000  0.5634720000000 1.0
C      1  0.4787860000000  0.4316460000000  0.5737620000000 1.0
C      1  0.4382130000000  0.4536200000000  0.5676940000000 1.0
C      1  0.5137190000000  0.3951560000000  0.5557410000000 1.0
C      1  0.4931710000000  0.5202350000000  0.3882320000000 1.0
C      1  0.5093720000000  0.4025910000000  0.4742320000000 1.0
C      1  0.5042370000000  0.5388020000000  0.5197190000000 1.0
C      1  0.4494810000000  0.4550600000000  0.5021730000000 1.0
C      1  0.4685000000000  0.5070570000000  0.4621510000000 1.0
C      1  0.4548340000000  0.4850400000000  0.4149280000000 1.0
C      1  0.5258810000000  0.5400950000000  0.4562820000000 1.0
C      1  0.4146210000000  0.5403480000000  0.4677080000000 1.0
C      1  0.4864550000000  0.4741970000000  0.5850310000000 1.0
C      1  0.5727840000000  0.5547480000000  0.4538500000000 1.0
C      1  0.5011640000000  0.4415820000000  0.4719360000000 1.0
C      1  0.4984100000000  0.5305550000000  0.4740020000000 1.0
C      1  0.4532490000000  0.4570210000000  0.4120660000000 1.0
C      1  0.5692880000000  0.4364550000000  0.4958780000000 1.0
C      1  0.5449960000000  0.5060450000000  0.5857170000000 1.0
C      1  0.5998020000000  0.4871360000000  0.4978960000000 1.0
C      1  0.4832970000000  0.5011250000000  0.4241690000000 1.0
C      1  0.4752400000000  0.5382210000000  0.4503230000000 1.0
C      1  0.4225090000000  0.5492610000000  0.5594910000000 1.0
C      1  0.5909510000000  0.5332470000000  0.5087370000000 1.0
C      1  0.5225020000000  0.5252140000000  0.4950310000000 1.0
C      1  0.4203270000000  0.4380790000000  0.4979450000000 1.0
C      1  0.5315000000000  0.5521040000000  0.5648840000000 1.0
C      1  0.5286970000000  0.4968710000000  0.4113600000000 1.0
C      1  0.4351710000000  0.4846930000000  0.4935720000000 1.0
C      1  0.5600060000000  0.4807940000000  0.5363970000000 1.0
C      1  0.4372600000000  0.5656950000000  0.5770980000000 1.0
C      1  0.4745150000000  0.5758790000000  0.5248580000000 1.0
C      1  0.4788900000000  0.4105370000000  0.5259290000000 1.0
C      1  0.4385080000000  0.4460050000000  0.4330050000000 1.0
C      1  0.5031030000000  0.5939900000000  0.5302610000000 1.0
C      1  0.4028830000000  0.4673220000000  0.4730200000000 1.0
C      1  0.5654450000000  0.5282350000000  0.4901730000000 1.0
C      1  0.5434150000000  0.4019380000000  0.5327660000000 1.0
C      1  0.4917370000000  0.4559850000000  0.5078220000000 1.0
C      1  0.4773310000000  0.5868730000000  0.4574270000000 1.0
C      1  0.5069590000000  0.5779620000000  0.4533720000000 1.0
C      1  0.5995080000000  0.5089610000000  0.5187140000000 1.0
C      1  0.5141970000000  0.5670640000000  0.4847760000000 1.0
C      1  0.5922420000000  0.5047200000000  0.5690970000000 1.0
C      1  0.5306000000000  0.5591890000000  0.5129210000000 1.0
C      1  0.5960760000000  0.4484050000000  0.5625080000000 1.0
C      1  0.4804860000000  0.4161630000000  0.4624660000000 1.0
C      1  0.5244510000000  0.5278400000000  0.4247860000000 1.0
C      1  0.5364820000000  0.5814060000000  0.5481840000000 1.0
C      1  0.5405570000000  0.4334160000000  0.5286290000000 1.0
C      1  0.5738280000000  0.5612440000000  0.5106710000000 1.0
C      1  0.5819490000000  0.5054890000000  0.4518290000000 1.0
C      1  0.5595110000000  0.5809710000000  0.4961790000000 1.0
C      1  0.4309610000000  0.5225860000000  0.5606850000000 1.0
C      1  0.4480070000000  0.5489590000000  0.4879480000000 1.0
C      1  0.4172830000000  0.5199930000000  0.4460430000000 1.0
C      1  0.5049570000000  0.5576870000000  0.5468540000000 1.0
C      1  0.4625720000000  0.4542200000000  0.5827980000000 1.0
C      1  0.5032100000000  0.4423910000000  0.5600300000000 1.0
C      1  0.4174110000000  0.4850000000000  0.5293490000000 1.0
C      1  0.5174980000000  0.4745470000000  0.4344420000000 1.0
C      1  0.4843400000000  0.4451700000000  0.4050520000000 1.0
C      1  0.4344500000000  0.5317880000000  0.4199320000000 1.0
C      1  0.4551080000000  0.5451920000000  0.4078300000000 1.0
C      1  0.4452780000000  0.4980710000000  0.5419730000000 1.0
C      1  0.4452580000000  0.5618620000000  0.5190490000000 1.0
C      1  0.4551070000000  0.5169940000000  0.5756170000000 1.0
C      1  0.4957570000000  0.4706070000000  0.3859760000000 1.0
C      1  0.4560930000000  0.4335740000000  0.5248450000000 1.0
C      1  0.4188890000000  0.5603790000000  0.5337410000000 1.0
C      1  0.5065630000000  0.5869140000000  0.5633690000000 1.0
C      1  0.3981880000000  0.5535670000000  0.5175240000000 1.0
C      1  0.5374360000000  0.5694970000000  0.4437050000000 1.0
C      1  0.4995420000000  0.4975370000000  0.4519110000000 1.0
C      1  0.5282920000000  0.4060100000000  0.5023250000000 1.0
C      1  0.5700570000000  0.5427380000000  0.5954130000000 1.0
C      1  0.5116710000000  0.4319660000000  0.4204140000000 1.0
C      1  0.4809190000000  0.5484640000000  0.4965300000000 1.0
C      1  0.5584890000000  0.4600260000000  0.4312150000000 1.0
C      1  0.5353310000000  0.4453800000000  0.4137020000000 1.0
C      1  0.4510860000000  0.4267890000000  0.4491400000000 1.0
C      1  0.4923440000000  0.5639810000000  0.5841140000000 1.0
C      1  0.5344050000000  0.5916540000000  0.5166200000000 1.0
C      1  0.5264800000000  0.4934910000000  0.5187570000000 1.0
C      1  0.5286340000000  0.4444630000000  0.5796330000000 1.0
C      1  0.4608830000000  0.5652860000000  0.4539340000000 1.0
C      1  0.4397000000000  0.4305340000000  0.5501840000000 1.0
C      1  0.4775990000000  0.6066650000000  0.4809820000000 1.0
C      1  0.5695880000000  0.4785430000000  0.4848830000000 1.0
C      1  0.5431660000000  0.5481540000000  0.5933720000000 1.0
C      1  0.5910000000000  0.4575500000000  0.5113620000000 1.0
C      1  0.5092230000000  0.4223270000000  0.5357900000000 1.0
C      1  0.4986570000000  0.4743390000000  0.5535520000000 1.0
C      1  0.4508000000000  0.5150690000000  0.4900990000000 1.0
C      1  0.5139770000000  0.6232420000000  0.4806350000000 1.0
C      1  0.5876230000000  0.4997730000000  0.5421900000000 1.0
C      1  0.4772060000000  0.4921090000000  0.5376650000000 1.0
C      1  0.5404720000000  0.4760570000000  0.5839140000000 1.0
C      1  0.5595730000000  0.5776460000000  0.4681860000000 1.0
C      1  0.4986010000000  0.6163790000000  0.5054050000000 1.0
C      1  0.4249080000000  0.5150870000000  0.5201410000000 1.0
C      1  0.4649600000000  0.4125450000000  0.5571140000000 1.0
END
