TITL C-2847949-8115-469 0.000335465518707163 125000 -922.829963786578 0 0 168 (C1) n - 1
REM
REM in /home/bkarasulu/work/CARBON/AIRSS/Generating-Clusters/AIREBO/with-SteepDescent/Only-C1/SD-CG-opt/Try1-1.4A-POS3A/HFTN-CG
REM
REM
REM
REM
REM
REM ./C.cell (11c1c37f851c82e70ff6c80c92926a4b)
REM
REM compiler GCC version 9.2.1 20190827 (Red Hat 9.2.1-1)
REM options -cpp -mtune=generic -march=x86-64 -g -O0 -fpre-include=/usr/include/finclude/math-vector-fortran.h
REM seed 1447346624 -1789914001 840307812 -781932830 -424221717 862579708 1512249191 474965724 -1785631024 -2142597216 -1394606546 -1385833723 -155378821 1788755664 1801876598 2112281573 -1688107694 -1891920586 -1369640663 -2117972149 -219194964 803827334 533121136 -1449772690 -171090697 1611550767 -813764733 -1615658826 1725063431 -371920589 1695969381 -146772620 -906874219
REM
CELL 1.54180   50.00000   50.00000   50.00000   90.00000   90.00000   90.00000
LATT -1
SFAC C  
C      1  0.4320670000000  0.4581710000000  0.4794210000000 1.0
C      1  0.5649050000000  0.4324480000000  0.5580180000000 1.0
C      1  0.5823870000000  0.5501640000000  0.5291330000000 1.0
C      1  0.5270020000000  0.4645320000000  0.4117760000000 1.0
C      1  0.4341840000000  0.5675280000000  0.5259400000000 1.0
C      1  0.5225060000000  0.4276840000000  0.4741450000000 1.0
C      1  0.4845840000000  0.5638010000000  0.5718340000000 1.0
C      1  0.4875230000000  0.4803170000000  0.3928480000000 1.0
C      1  0.3800470000000  0.4943860000000  0.5219340000000 1.0
C      1  0.5314050000000  0.5536770000000  0.5455920000000 1.0
C      1  0.4881670000000  0.4721360000000  0.5128440000000 1.0
C      1  0.5269350000000  0.5656660000000  0.5169470000000 1.0
C      1  0.5737520000000  0.5171550000000  0.5089090000000 1.0
C      1  0.4960220000000  0.4099540000000  0.4772670000000 1.0
C      1  0.4763280000000  0.4027160000000  0.5347220000000 1.0
C      1  0.4741200000000  0.5389980000000  0.3927050000000 1.0
C      1  0.5672400000000  0.5362300000000  0.5771060000000 1.0
C      1  0.4953360000000  0.5113380000000  0.5539820000000 1.0
C      1  0.4803490000000  0.4310190000000  0.4556610000000 1.0
C      1  0.5100850000000  0.5514600000000  0.5694740000000 1.0
C      1  0.4631890000000  0.4751300000000  0.4343740000000 1.0
C      1  0.5472770000000  0.4076280000000  0.5186600000000 1.0
C      1  0.4175960000000  0.5122370000000  0.5602800000000 1.0
C      1  0.5074580000000  0.5183890000000  0.4398520000000 1.0
C      1  0.5275660000000  0.5147810000000  0.5156880000000 1.0
C      1  0.4865060000000  0.4255280000000  0.5519980000000 1.0
C      1  0.4506120000000  0.5752830000000  0.5546810000000 1.0
C      1  0.5101780000000  0.4057520000000  0.5051420000000 1.0
C      1  0.5501520000000  0.4584370000000  0.5703460000000 1.0
C      1  0.4406020000000  0.4667240000000  0.5968300000000 1.0
C      1  0.4442350000000  0.4826560000000  0.4769660000000 1.0
C      1  0.3902380000000  0.4737990000000  0.5363310000000 1.0
C      1  0.5153760000000  0.4888940000000  0.5012290000000 1.0
C      1  0.5849560000000  0.4953360000000  0.4853290000000 1.0
C      1  0.5533540000000  0.4419150000000  0.4950060000000 1.0
C      1  0.5185250000000  0.4201320000000  0.5599300000000 1.0
C      1  0.4991510000000  0.4568450000000  0.4071090000000 1.0
C      1  0.4970870000000  0.3891450000000  0.5221350000000 1.0
C      1  0.4261610000000  0.5176170000000  0.5056190000000 1.0
C      1  0.5326570000000  0.4279460000000  0.4267610000000 1.0
C      1  0.5161980000000  0.4523940000000  0.5681580000000 1.0
C      1  0.5541180000000  0.4466560000000  0.5286670000000 1.0
C      1  0.5632520000000  0.5070630000000  0.5950780000000 1.0
C      1  0.4772160000000  0.5009800000000  0.5271380000000 1.0
C      1  0.4627730000000  0.5417000000000  0.4401130000000 1.0
C      1  0.5242140000000  0.4325400000000  0.5207060000000 1.0
C      1  0.4179310000000  0.5470500000000  0.4799130000000 1.0
C      1  0.4906790000000  0.4499760000000  0.4871780000000 1.0
C      1  0.5060900000000  0.5352400000000  0.5323170000000 1.0
C      1  0.5236570000000  0.4578450000000  0.4898070000000 1.0
C      1  0.4641690000000  0.6004180000000  0.4855250000000 1.0
C      1  0.5917100000000  0.4531770000000  0.4569160000000 1.0
C      1  0.5439840000000  0.4131410000000  0.5493730000000 1.0
C      1  0.5764340000000  0.5020990000000  0.4279500000000 1.0
C      1  0.5161430000000  0.4809410000000  0.4494670000000 1.0
C      1  0.5910910000000  0.4924020000000  0.5569440000000 1.0
C      1  0.4674420000000  0.5028430000000  0.5657140000000 1.0
C      1  0.5937950000000  0.4498600000000  0.4967200000000 1.0
C      1  0.4628860000000  0.4453860000000  0.5915400000000 1.0
C      1  0.4778570000000  0.4918160000000  0.6026630000000 1.0
C      1  0.5402200000000  0.5327570000000  0.4220460000000 1.0
C      1  0.6177000000000  0.4960260000000  0.4923630000000 1.0
C      1  0.5806270000000  0.5230820000000  0.5491360000000 1.0
C      1  0.5797540000000  0.4301900000000  0.4770380000000 1.0
C      1  0.5457080000000  0.4107130000000  0.4848340000000 1.0
C      1  0.4584300000000  0.5439960000000  0.5645950000000 1.0
C      1  0.5447260000000  0.5122390000000  0.4747400000000 1.0
C      1  0.4710940000000  0.5789570000000  0.4270310000000 1.0
C      1  0.5894090000000  0.5413340000000  0.4732590000000 1.0
C      1  0.3881570000000  0.4790980000000  0.4747370000000 1.0
C      1  0.4195290000000  0.5540320000000  0.4467310000000 1.0
C      1  0.4561730000000  0.4108370000000  0.5183890000000 1.0
C      1  0.5059440000000  0.5021110000000  0.3934480000000 1.0
C      1  0.4305810000000  0.4839040000000  0.4307750000000 1.0
C      1  0.5347550000000  0.5124160000000  0.5488410000000 1.0
C      1  0.5272260000000  0.6048510000000  0.4798000000000 1.0
C      1  0.5986520000000  0.4780080000000  0.5342570000000 1.0
C      1  0.5297580000000  0.6289900000000  0.4696680000000 1.0
C      1  0.4668010000000  0.4727170000000  0.5623970000000 1.0
C      1  0.5726460000000  0.5584240000000  0.4976190000000 1.0
C      1  0.5725980000000  0.4793220000000  0.4603470000000 1.0
C      1  0.3981230000000  0.5026360000000  0.4980860000000 1.0
C      1  0.4594400000000  0.5451290000000  0.5299980000000 1.0
C      1  0.4966850000000  0.5410620000000  0.4843160000000 1.0
C      1  0.5771630000000  0.5575610000000  0.4480250000000 1.0
C      1  0.4476380000000  0.5131620000000  0.5301080000000 1.0
C      1  0.4543940000000  0.5720220000000  0.4775370000000 1.0
C      1  0.5023590000000  0.4529270000000  0.5370960000000 1.0
C      1  0.5409480000000  0.5326520000000  0.5970600000000 1.0
C      1  0.4646720000000  0.3994770000000  0.4743020000000 1.0
C      1  0.5766340000000  0.4680960000000  0.4299480000000 1.0
C      1  0.4365970000000  0.4834190000000  0.5315910000000 1.0
C      1  0.4734830000000  0.4877340000000  0.4864110000000 1.0
C      1  0.4201870000000  0.4554980000000  0.4413400000000 1.0
C      1  0.5229060000000  0.5562180000000  0.4869700000000 1.0
C      1  0.4951550000000  0.5481350000000  0.4336230000000 1.0
C      1  0.4244430000000  0.4338150000000  0.5260390000000 1.0
C      1  0.4603430000000  0.4631140000000  0.5302870000000 1.0
C      1  0.4638040000000  0.4878560000000  0.4056170000000 1.0
C      1  0.5742030000000  0.4015450000000  0.4984590000000 1.0
C      1  0.5491860000000  0.5638250000000  0.4564810000000 1.0
C      1  0.4899030000000  0.4646940000000  0.5860490000000 1.0
C      1  0.5134810000000  0.4842900000000  0.5441870000000 1.0
C      1  0.5476240000000  0.5354000000000  0.4975440000000 1.0
C      1  0.5122470000000  0.5223700000000  0.5813520000000 1.0
C      1  0.4318770000000  0.4189320000000  0.4997830000000 1.0
C      1  0.4313170000000  0.4992320000000  0.4583670000000 1.0
C      1  0.5863660000000  0.5252210000000  0.4428870000000 1.0
C      1  0.5688760000000  0.5856060000000  0.5411750000000 1.0
C      1  0.4859380000000  0.4879880000000  0.4558340000000 1.0
C      1  0.5756350000000  0.4687100000000  0.5142710000000 1.0
C      1  0.4693910000000  0.5547740000000  0.4989310000000 1.0
C      1  0.5439930000000  0.5355420000000  0.4499420000000 1.0
C      1  0.3850060000000  0.5093780000000  0.4675060000000 1.0
C      1  0.5540060000000  0.4859610000000  0.4944000000000 1.0
C      1  0.5535460000000  0.5086250000000  0.4132160000000 1.0
C      1  0.4990700000000  0.5934050000000  0.5227370000000 1.0
C      1  0.4499190000000  0.4935350000000  0.6002030000000 1.0
C      1  0.5136770000000  0.5186630000000  0.4690580000000 1.0
C      1  0.4489690000000  0.5393630000000  0.4693310000000 1.0
C      1  0.5401800000000  0.4737430000000  0.4658110000000 1.0
C      1  0.5440080000000  0.4746910000000  0.5428430000000 1.0
C      1  0.5013470000000  0.5298940000000  0.3908790000000 1.0
C      1  0.5288210000000  0.4869550000000  0.6091310000000 1.0
C      1  0.4575600000000  0.5172920000000  0.4918340000000 1.0
C      1  0.4350450000000  0.4314680000000  0.5524490000000 1.0
C      1  0.4940340000000  0.5129910000000  0.6054540000000 1.0
C      1  0.5356230000000  0.4981050000000  0.5783220000000 1.0
C      1  0.4422020000000  0.5179650000000  0.5777950000000 1.0
C      1  0.5169910000000  0.5437010000000  0.4106320000000 1.0
C      1  0.4702230000000  0.6040250000000  0.5119360000000 1.0
C      1  0.4878060000000  0.5214280000000  0.5069290000000 1.0
C      1  0.5722200000000  0.4825870000000  0.5763490000000 1.0
C      1  0.4286200000000  0.5135310000000  0.4176140000000 1.0
C      1  0.4156780000000  0.5348290000000  0.4280370000000 1.0
C      1  0.4884390000000  0.5627360000000  0.5322840000000 1.0
C      1  0.6041630000000  0.5263400000000  0.4967800000000 1.0
C      1  0.4646370000000  0.4408890000000  0.5049140000000 1.0
C      1  0.4465350000000  0.5710830000000  0.4455050000000 1.0
C      1  0.4140260000000  0.4812600000000  0.5561160000000 1.0
C      1  0.4709500000000  0.5660620000000  0.4015070000000 1.0
C      1  0.5241140000000  0.4962250000000  0.4201530000000 1.0
C      1  0.4047180000000  0.4588770000000  0.4667280000000 1.0
C      1  0.4144120000000  0.5483770000000  0.5122010000000 1.0
C      1  0.4142040000000  0.4598550000000  0.5225760000000 1.0
C      1  0.4819100000000  0.4500750000000  0.4298450000000 1.0
C      1  0.5233340000000  0.5793260000000  0.4638040000000 1.0
C      1  0.5295920000000  0.5976040000000  0.5091540000000 1.0
C      1  0.5122450000000  0.4259890000000  0.4445660000000 1.0
C      1  0.4984740000000  0.5785550000000  0.4452740000000 1.0
C      1  0.4128800000000  0.5190250000000  0.4647300000000 1.0
C      1  0.5611000000000  0.5858210000000  0.5141910000000 1.0
C      1  0.4379960000000  0.4344830000000  0.4440940000000 1.0
C      1  0.6219530000000  0.4830840000000  0.5204820000000 1.0
C      1  0.4521040000000  0.4310730000000  0.4748560000000 1.0
C      1  0.4361700000000  0.4603630000000  0.5658350000000 1.0
C      1  0.5113110000000  0.4687510000000  0.6121500000000 1.0
C      1  0.4602590000000  0.4286110000000  0.5690900000000 1.0
C      1  0.4814960000000  0.5900820000000  0.5516560000000 1.0
C      1  0.4490890000000  0.5978600000000  0.5295400000000 1.0
C      1  0.5611060000000  0.5011250000000  0.5324260000000 1.0
C      1  0.5607190000000  0.5572430000000  0.5543690000000 1.0
C      1  0.4094490000000  0.5293760000000  0.5399690000000 1.0
C      1  0.5511470000000  0.4513350000000  0.4204850000000 1.0
C      1  0.5348100000000  0.6525700000000  0.4594100000000 1.0
C      1  0.4764440000000  0.5128470000000  0.4345750000000 1.0
C      1  0.4575700000000  0.5186130000000  0.4078710000000 1.0
C      1  0.6131380000000  0.4726210000000  0.4683180000000 1.0
END
