TITL C-2848509-3138-651 -0.0014358427178965 125000 -725.200045432512 0 0 135 (C1) n - 1
REM
REM in /home/bkarasulu/work/CARBON/AIRSS/Generating-Clusters/AIREBO/with-SteepDescent/Only-C1/SD-CG-opt/Try1-1.4A-POS3A/HFTN-CG
REM
REM
REM
REM
REM
REM ./C.cell (11c1c37f851c82e70ff6c80c92926a4b)
REM
REM compiler GCC version 9.2.1 20190827 (Red Hat 9.2.1-1)
REM options -cpp -mtune=generic -march=x86-64 -g -O0 -fpre-include=/usr/include/finclude/math-vector-fortran.h
REM seed 1544090007 150511059 -1317611974 -56698721 -1908565993 -965424380 -2090379274 1575892285 296242796 -482255779 -208361400 1354044031 -2108867324 941289281 -856902074 -2088598596 1472553583 -1902339181 325903588 -661047623 544471649 694240958 1737334865 538092191 -1137164831 -1355081534 1068147224 1859569790 -1478035839 1950821267 1879310656 -348665083 1258730129
REM
CELL 1.54180   50.00000   50.00000   50.00000   90.00000   90.00000   90.00000
LATT -1
SFAC C  
C      1  0.5112450000000  0.5100780000000  0.5896470000000 1.0
C      1  0.4323520000000  0.4343660000000  0.5388950000000 1.0
C      1  0.4332900000000  0.4769650000000  0.4324870000000 1.0
C      1  0.5015400000000  0.5655580000000  0.4330590000000 1.0
C      1  0.4506790000000  0.5884860000000  0.5019270000000 1.0
C      1  0.4903260000000  0.4692600000000  0.5487060000000 1.0
C      1  0.5799500000000  0.5318160000000  0.4322340000000 1.0
C      1  0.5762120000000  0.5103360000000  0.4653160000000 1.0
C      1  0.5549780000000  0.5639420000000  0.5674790000000 1.0
C      1  0.5415430000000  0.4507110000000  0.5411280000000 1.0
C      1  0.5227670000000  0.5002090000000  0.5376050000000 1.0
C      1  0.5930680000000  0.4821430000000  0.4671540000000 1.0
C      1  0.5004140000000  0.5424880000000  0.5349600000000 1.0
C      1  0.5700280000000  0.4562390000000  0.5697440000000 1.0
C      1  0.4561230000000  0.4817590000000  0.4980780000000 1.0
C      1  0.4387930000000  0.4587320000000  0.5617300000000 1.0
C      1  0.5181530000000  0.5137850000000  0.3765160000000 1.0
C      1  0.5231240000000  0.5925610000000  0.4858250000000 1.0
C      1  0.4393230000000  0.4231240000000  0.5097670000000 1.0
C      1  0.4491610000000  0.5544840000000  0.4821850000000 1.0
C      1  0.4844480000000  0.5723090000000  0.5628940000000 1.0
C      1  0.5900500000000  0.5024260000000  0.5147970000000 1.0
C      1  0.5041780000000  0.5410340000000  0.6016390000000 1.0
C      1  0.4644050000000  0.4435710000000  0.5331140000000 1.0
C      1  0.5075630000000  0.5382090000000  0.5019800000000 1.0
C      1  0.5334530000000  0.5772220000000  0.4589130000000 1.0
C      1  0.5217370000000  0.5173910000000  0.4412400000000 1.0
C      1  0.4441660000000  0.4659130000000  0.4747050000000 1.0
C      1  0.4278560000000  0.5392260000000  0.5261650000000 1.0
C      1  0.4286890000000  0.5086240000000  0.5559460000000 1.0
C      1  0.4193390000000  0.5006570000000  0.4250050000000 1.0
C      1  0.5027650000000  0.4943060000000  0.4497940000000 1.0
C      1  0.4899030000000  0.4016330000000  0.5043100000000 1.0
C      1  0.3978700000000  0.4915970000000  0.5269820000000 1.0
C      1  0.4884460000000  0.4615710000000  0.5171230000000 1.0
C      1  0.5319020000000  0.5614750000000  0.4956370000000 1.0
C      1  0.4677400000000  0.5256750000000  0.4166700000000 1.0
C      1  0.5013500000000  0.5062580000000  0.5118850000000 1.0
C      1  0.4813170000000  0.5526460000000  0.4869270000000 1.0
C      1  0.5097670000000  0.5557750000000  0.5715090000000 1.0
C      1  0.4258180000000  0.4835870000000  0.5680200000000 1.0
C      1  0.5452340000000  0.4731010000000  0.5074170000000 1.0
C      1  0.5062250000000  0.4179670000000  0.4549530000000 1.0
C      1  0.5442190000000  0.5179250000000  0.5571650000000 1.0
C      1  0.4681410000000  0.5881310000000  0.4720140000000 1.0
C      1  0.4120330000000  0.4659060000000  0.5129600000000 1.0
C      1  0.5966410000000  0.5184980000000  0.5380130000000 1.0
C      1  0.5361130000000  0.5960140000000  0.5153100000000 1.0
C      1  0.4579740000000  0.4046080000000  0.4946930000000 1.0
C      1  0.5997130000000  0.4815430000000  0.4989820000000 1.0
C      1  0.3983120000000  0.5225720000000  0.5248440000000 1.0
C      1  0.4442670000000  0.5710470000000  0.5435430000000 1.0
C      1  0.5684460000000  0.4171340000000  0.5037850000000 1.0
C      1  0.5519970000000  0.5450240000000  0.4736790000000 1.0
C      1  0.4805720000000  0.5114530000000  0.4611110000000 1.0
C      1  0.4098120000000  0.4511780000000  0.4882250000000 1.0
C      1  0.4750830000000  0.4999710000000  0.4127330000000 1.0
C      1  0.5478290000000  0.5305130000000  0.5262150000000 1.0
C      1  0.4260630000000  0.5615620000000  0.4402740000000 1.0
C      1  0.5169100000000  0.4238500000000  0.4285280000000 1.0
C      1  0.4672110000000  0.5346960000000  0.4462850000000 1.0
C      1  0.4954650000000  0.4666140000000  0.4314390000000 1.0
C      1  0.4457050000000  0.5155870000000  0.4795670000000 1.0
C      1  0.5365510000000  0.4221160000000  0.5056290000000 1.0
C      1  0.5824840000000  0.5428470000000  0.4638840000000 1.0
C      1  0.4743710000000  0.5060760000000  0.4916180000000 1.0
C      1  0.5601650000000  0.4988510000000  0.5239910000000 1.0
C      1  0.4936130000000  0.4882260000000  0.6025630000000 1.0
C      1  0.4781620000000  0.4295260000000  0.5608260000000 1.0
C      1  0.4642300000000  0.4799800000000  0.4333190000000 1.0
C      1  0.5382050000000  0.5403680000000  0.5819950000000 1.0
C      1  0.5266760000000  0.4273290000000  0.5697750000000 1.0
C      1  0.4787950000000  0.4692010000000  0.5968850000000 1.0
C      1  0.4942230000000  0.5986570000000  0.4891830000000 1.0
C      1  0.4360810000000  0.5383580000000  0.4562070000000 1.0
C      1  0.5210680000000  0.4458150000000  0.4636410000000 1.0
C      1  0.4596510000000  0.4220850000000  0.4547460000000 1.0
C      1  0.5254040000000  0.5478310000000  0.4164800000000 1.0
C      1  0.5465560000000  0.4793890000000  0.5471820000000 1.0
C      1  0.4133940000000  0.5161640000000  0.4481540000000 1.0
C      1  0.4837720000000  0.4347350000000  0.4995060000000 1.0
C      1  0.4327260000000  0.5623780000000  0.5063800000000 1.0
C      1  0.4805720000000  0.5762810000000  0.5105050000000 1.0
C      1  0.4942640000000  0.5856660000000  0.5389570000000 1.0
C      1  0.5054600000000  0.4699410000000  0.4716230000000 1.0
C      1  0.4678220000000  0.5525540000000  0.5312610000000 1.0
C      1  0.4810050000000  0.5620630000000  0.4542580000000 1.0
C      1  0.4989940000000  0.4159210000000  0.5700980000000 1.0
C      1  0.4830670000000  0.4035760000000  0.4710570000000 1.0
C      1  0.5234290000000  0.4513140000000  0.4244150000000 1.0
C      1  0.5768530000000  0.4563450000000  0.4593260000000 1.0
C      1  0.5444170000000  0.5238710000000  0.4975230000000 1.0
C      1  0.5465320000000  0.4420700000000  0.4822370000000 1.0
C      1  0.4563550000000  0.5210040000000  0.5298780000000 1.0
C      1  0.4793510000000  0.5328610000000  0.5837060000000 1.0
C      1  0.5119960000000  0.4759380000000  0.5007750000000 1.0
C      1  0.4307870000000  0.4995950000000  0.5232310000000 1.0
C      1  0.4566000000000  0.6069950000000  0.4540700000000 1.0
C      1  0.4725720000000  0.4722720000000  0.4633090000000 1.0
C      1  0.4375270000000  0.5413560000000  0.5586920000000 1.0
C      1  0.4990450000000  0.4881080000000  0.3980310000000 1.0
C      1  0.4727510000000  0.4413240000000  0.4298760000000 1.0
C      1  0.5455190000000  0.4752690000000  0.4750300000000 1.0
C      1  0.5780340000000  0.4307030000000  0.4763330000000 1.0
C      1  0.4232200000000  0.5054980000000  0.4928550000000 1.0
C      1  0.4764970000000  0.4426970000000  0.4726660000000 1.0
C      1  0.5627350000000  0.5758360000000  0.4966940000000 1.0
C      1  0.4641260000000  0.5531590000000  0.5726580000000 1.0
C      1  0.5225810000000  0.5839460000000  0.5355380000000 1.0
C      1  0.5333210000000  0.5482920000000  0.4495430000000 1.0
C      1  0.4377840000000  0.4345930000000  0.4777850000000 1.0
C      1  0.5651390000000  0.4473720000000  0.5173300000000 1.0
C      1  0.4821550000000  0.5010350000000  0.5394650000000 1.0
C      1  0.5190340000000  0.5210140000000  0.4749580000000 1.0
C      1  0.5974150000000  0.5038530000000  0.4408000000000 1.0
C      1  0.5116470000000  0.4429820000000  0.5435990000000 1.0
C      1  0.4075480000000  0.4988090000000  0.4700200000000 1.0
C      1  0.5309630000000  0.5535830000000  0.5450080000000 1.0
C      1  0.5835150000000  0.5667880000000  0.4850920000000 1.0
C      1  0.5432130000000  0.5068650000000  0.5893070000000 1.0
C      1  0.5099890000000  0.4247380000000  0.5177740000000 1.0
C      1  0.4795390000000  0.4603790000000  0.4020420000000 1.0
C      1  0.5129750000000  0.5173060000000  0.4085950000000 1.0
C      1  0.4683390000000  0.4587350000000  0.5698390000000 1.0
C      1  0.4157230000000  0.4704070000000  0.4608760000000 1.0
C      1  0.5568040000000  0.4826050000000  0.5766770000000 1.0
C      1  0.4967120000000  0.5197800000000  0.5602600000000 1.0
C      1  0.5827280000000  0.4567250000000  0.5448940000000 1.0
C      1  0.5589510000000  0.5427430000000  0.4188380000000 1.0
C      1  0.5972710000000  0.4580270000000  0.5140320000000 1.0
C      1  0.5781810000000  0.5190990000000  0.5583790000000 1.0
C      1  0.5485860000000  0.5044400000000  0.4721180000000 1.0
C      1  0.5529220000000  0.4340560000000  0.5756660000000 1.0
C      1  0.4442570000000  0.4686910000000  0.5234520000000 1.0
C      1  0.5472520000000  0.4579470000000  0.4456530000000 1.0
END
