TITL C-2848501-3133-614 -0.000502114396566127 125000 -376.638190178215 0 0 71 (C1) n - 1
REM
REM in /home/bkarasulu/work/CARBON/AIRSS/Generating-Clusters/AIREBO/with-SteepDescent/Only-C1/SD-CG-opt/Try1-1.4A-POS3A/HFTN-CG
REM
REM
REM
REM
REM
REM ./C.cell (11c1c37f851c82e70ff6c80c92926a4b)
REM
REM compiler GCC version 9.2.1 20190827 (Red Hat 9.2.1-1)
REM options -cpp -mtune=generic -march=x86-64 -g -O0 -fpre-include=/usr/include/finclude/math-vector-fortran.h
REM seed -1877012938 463523642 -100244739 -1888766293 -412320712 441985832 28869255 814143996 -1152634666 1799415146 949949502 1431348506 -1209974966 1323857233 -2116523248 -827112987 219609877 856069772 495508655 -1747800449 -1016247391 -316914220 -1183619119 -659612311 -1754246094 -1536011746 -1496024558 -843371835 1569930943 609032305 -1973164750 -1232332666 -830148126
REM
CELL 1.54180   50.00000   50.00000   50.00000   90.00000   90.00000   90.00000
LATT -1
SFAC C  
C      1  0.4665310000000  0.5458730000000  0.4661270000000 1.0
C      1  0.5343460000000  0.5714310000000  0.5191710000000 1.0
C      1  0.5118070000000  0.4786000000000  0.5120530000000 1.0
C      1  0.5110850000000  0.5554430000000  0.5046460000000 1.0
C      1  0.5079340000000  0.5239920000000  0.5769960000000 1.0
C      1  0.5505220000000  0.5556950000000  0.4990280000000 1.0
C      1  0.4979530000000  0.4456560000000  0.5297890000000 1.0
C      1  0.4118150000000  0.5165290000000  0.5084610000000 1.0
C      1  0.5051740000000  0.4976100000000  0.5568650000000 1.0
C      1  0.4767750000000  0.4878320000000  0.5557690000000 1.0
C      1  0.5300400000000  0.4214560000000  0.4890170000000 1.0
C      1  0.4613190000000  0.4504880000000  0.4605010000000 1.0
C      1  0.5096220000000  0.5140420000000  0.4646910000000 1.0
C      1  0.4709800000000  0.5326450000000  0.5544650000000 1.0
C      1  0.4674490000000  0.5172060000000  0.5103620000000 1.0
C      1  0.4520130000000  0.5452580000000  0.5220160000000 1.0
C      1  0.4708190000000  0.4712810000000  0.4415020000000 1.0
C      1  0.5445530000000  0.4490870000000  0.4755140000000 1.0
C      1  0.4211620000000  0.4856600000000  0.4660550000000 1.0
C      1  0.4313380000000  0.5348450000000  0.4990310000000 1.0
C      1  0.5729920000000  0.4944570000000  0.4875070000000 1.0
C      1  0.5037730000000  0.4693740000000  0.4406180000000 1.0
C      1  0.5449010000000  0.5114480000000  0.5471380000000 1.0
C      1  0.5123520000000  0.5078220000000  0.5252330000000 1.0
C      1  0.4854510000000  0.5301660000000  0.4470310000000 1.0
C      1  0.4205570000000  0.4904700000000  0.5150760000000 1.0
C      1  0.4988070000000  0.5018540000000  0.4347270000000 1.0
C      1  0.5265710000000  0.4191920000000  0.4562160000000 1.0
C      1  0.5913850000000  0.5231010000000  0.5264920000000 1.0
C      1  0.5939590000000  0.5177630000000  0.4943830000000 1.0
C      1  0.5468600000000  0.4013230000000  0.5037770000000 1.0
C      1  0.4829730000000  0.5001810000000  0.4733360000000 1.0
C      1  0.4594660000000  0.5087080000000  0.5604620000000 1.0
C      1  0.4687100000000  0.4330840000000  0.5062780000000 1.0
C      1  0.4720600000000  0.5719030000000  0.4844670000000 1.0
C      1  0.4401420000000  0.5321370000000  0.4723930000000 1.0
C      1  0.5333140000000  0.4825820000000  0.4357720000000 1.0
C      1  0.5339210000000  0.5412960000000  0.4491110000000 1.0
C      1  0.5096170000000  0.5534430000000  0.4707330000000 1.0
C      1  0.4638780000000  0.4962600000000  0.4532570000000 1.0
C      1  0.5184650000000  0.5675100000000  0.5451230000000 1.0
C      1  0.5213910000000  0.4539870000000  0.5428640000000 1.0
C      1  0.4608880000000  0.4620060000000  0.5012570000000 1.0
C      1  0.4383380000000  0.4606490000000  0.4794210000000 1.0
C      1  0.5550370000000  0.4654800000000  0.4501980000000 1.0
C      1  0.5086100000000  0.4385400000000  0.4474400000000 1.0
C      1  0.5190300000000  0.5335260000000  0.5462660000000 1.0
C      1  0.4817280000000  0.4876370000000  0.5014430000000 1.0
C      1  0.4149150000000  0.4677600000000  0.5009930000000 1.0
C      1  0.5653220000000  0.4935820000000  0.4564830000000 1.0
C      1  0.4314150000000  0.5022530000000  0.5517260000000 1.0
C      1  0.4737840000000  0.5664080000000  0.5114480000000 1.0
C      1  0.5142510000000  0.4614540000000  0.4844070000000 1.0
C      1  0.5641330000000  0.5283790000000  0.5067600000000 1.0
C      1  0.4912020000000  0.5431840000000  0.5292260000000 1.0
C      1  0.4713350000000  0.4660160000000  0.5333640000000 1.0
C      1  0.4634050000000  0.5627410000000  0.5492520000000 1.0
C      1  0.5384280000000  0.5075120000000  0.5034030000000 1.0
C      1  0.5393410000000  0.4796520000000  0.5320150000000 1.0
C      1  0.5436910000000  0.5127080000000  0.4439510000000 1.0
C      1  0.4905920000000  0.5767490000000  0.5509100000000 1.0
C      1  0.4383990000000  0.5070810000000  0.4592950000000 1.0
C      1  0.5332640000000  0.5315940000000  0.4817020000000 1.0
C      1  0.4877410000000  0.5356170000000  0.4901900000000 1.0
C      1  0.5712180000000  0.5030860000000  0.5368650000000 1.0
C      1  0.4503630000000  0.4919460000000  0.5254380000000 1.0
C      1  0.5008910000000  0.4279080000000  0.5009410000000 1.0
C      1  0.5676210000000  0.4812160000000  0.5162760000000 1.0
C      1  0.5198950000000  0.4717340000000  0.5658880000000 1.0
C      1  0.5417100000000  0.4812000000000  0.4860040000000 1.0
C      1  0.4886700000000  0.4436930000000  0.4733810000000 1.0
END
