TITL C-2847947-6848-394 -3059.02695861498 125000 -1050.63632684424 0 0 196 (C1) n - 1
REM
REM in /home/bkarasulu/work/CARBON/AIRSS/Generating-Clusters/AIREBO/with-SteepDescent/Only-C1/SD-CG-opt/Try1-1.4A-POS3A/HFTN-CG
REM
REM
REM
REM
REM
REM ./C.cell (11c1c37f851c82e70ff6c80c92926a4b)
REM
REM compiler GCC version 9.2.1 20190827 (Red Hat 9.2.1-1)
REM options -cpp -mtune=generic -march=x86-64 -g -O0 -fpre-include=/usr/include/finclude/math-vector-fortran.h
REM seed -1031589967 -195486118 1591312049 -9626602 1821868910 -1752852532 -1682674069 -27140488 -1122981767 1107908153 373969574 46575592 658196234 -1526486424 -1237082219 -1807931108 1339141182 -856148481 1461042863 -582668008 1161955517 1845685965 -1976729214 478182233 1148147689 -1407748900 858773104 -623045863 452608004 -319691513 -1996352354 -424853696 -728850006
REM
CELL 1.54180   50.00000   50.00000   50.00000   90.00000   90.00000   90.00000
LATT -1
SFAC C  
C      1  0.4566940000000  0.4684180000000  0.4584030000000 1.0
C      1  0.4791840000000  0.5824500000000  0.5073660000000 1.0
C      1  0.4512760000000  0.5238490000000  0.4406390000000 1.0
C      1  0.5311980000000  0.5217610000000  0.5193560000000 1.0
C      1  0.4524590000000  0.5027840000000  0.5308990000000 1.0
C      1  0.5101510000000  0.4624290000000  0.3981000000000 1.0
C      1  0.5710590000000  0.5271480000000  0.4868850000000 1.0
C      1  0.4027780000000  0.4977690000000  0.5085100000000 1.0
C      1  0.4411740000000  0.5558150000000  0.4838160000000 1.0
C      1  0.4285930000000  0.5431700000000  0.5260010000000 1.0
C      1  0.5835750000000  0.4258780000000  0.4739240000000 1.0
C      1  0.5167940000000  0.4181310000000  0.5450080000000 1.0
C      1  0.4558030000000  0.6066860000000  0.5048710000000 1.0
C      1  0.4224370000000  0.5220990000000  0.5485920000000 1.0
C      1  0.5795140000000  0.5751840000000  0.4923500000000 1.0
C      1  0.4356500000000  0.5660480000000  0.4217720000000 1.0
C      1  0.4534220000000  0.5573710000000  0.5691660000000 1.0
C      1  0.4293740000000  0.5974290000000  0.5213050000000 1.0
C      1  0.4222080000000  0.5692910000000  0.5674170000000 1.0
C      1  0.5639620000000  0.4354000000000  0.4112020000000 1.0
C      1  0.5100840000000  0.5433200000000  0.4484100000000 1.0
C      1  0.5771840000000  0.5241460000000  0.5442990000000 1.0
C      1  0.4252160000000  0.5179070000000  0.5029390000000 1.0
C      1  0.4390040000000  0.4253400000000  0.5571370000000 1.0
C      1  0.4637300000000  0.5995190000000  0.4651510000000 1.0
C      1  0.4862470000000  0.5438440000000  0.5361670000000 1.0
C      1  0.5079300000000  0.4529270000000  0.4433380000000 1.0
C      1  0.5880190000000  0.4872100000000  0.5762600000000 1.0
C      1  0.5307970000000  0.4419410000000  0.4073780000000 1.0
C      1  0.4675670000000  0.5702510000000  0.5343410000000 1.0
C      1  0.5927870000000  0.5509490000000  0.4821880000000 1.0
C      1  0.4825240000000  0.5219700000000  0.3828120000000 1.0
C      1  0.4109980000000  0.4570930000000  0.5550010000000 1.0
C      1  0.5070690000000  0.4603930000000  0.5741160000000 1.0
C      1  0.5337590000000  0.4488730000000  0.4801010000000 1.0
C      1  0.4319320000000  0.4712680000000  0.4892620000000 1.0
C      1  0.5439100000000  0.4765160000000  0.4698950000000 1.0
C      1  0.4893770000000  0.4356550000000  0.4223990000000 1.0
C      1  0.5555200000000  0.5266900000000  0.5676560000000 1.0
C      1  0.5141530000000  0.5286610000000  0.5431900000000 1.0
C      1  0.5679120000000  0.4766640000000  0.5074460000000 1.0
C      1  0.4539790000000  0.5349580000000  0.5074210000000 1.0
C      1  0.3456980000000  0.5396630000000  0.4365990000000 1.0
C      1  0.4220480000000  0.4371870000000  0.5322960000000 1.0
C      1  0.5059140000000  0.6077970000000  0.5314680000000 1.0
C      1  0.4694100000000  0.5109810000000  0.4795080000000 1.0
C      1  0.4541130000000  0.4434260000000  0.5731040000000 1.0
C      1  0.5399770000000  0.4152980000000  0.5074390000000 1.0
C      1  0.5819070000000  0.5811290000000  0.5236190000000 1.0
C      1  0.4131970000000  0.4238160000000  0.5047570000000 1.0
C      1  0.5666020000000  0.4312110000000  0.4448750000000 1.0
C      1  0.5324550000000  0.5469250000000  0.5597460000000 1.0
C      1  0.5497500000000  0.4478790000000  0.5077030000000 1.0
C      1  0.4336320000000  0.4838610000000  0.4126430000000 1.0
C      1  0.4375590000000  0.5777710000000  0.4508440000000 1.0
C      1  0.4363170000000  0.5896870000000  0.4827140000000 1.0
C      1  0.4975950000000  0.4753790000000  0.4224510000000 1.0
C      1  0.5541620000000  0.4591780000000  0.5520580000000 1.0
C      1  0.4486140000000  0.5483650000000  0.4091620000000 1.0
C      1  0.4831790000000  0.6199480000000  0.5200720000000 1.0
C      1  0.5033870000000  0.5957220000000  0.5627320000000 1.0
C      1  0.4824100000000  0.5308570000000  0.6132590000000 1.0
C      1  0.5386880000000  0.5607700000000  0.4543370000000 1.0
C      1  0.5761440000000  0.4373840000000  0.5430490000000 1.0
C      1  0.5164850000000  0.4939810000000  0.4710230000000 1.0
C      1  0.5414140000000  0.5132620000000  0.4324350000000 1.0
C      1  0.4352050000000  0.4220780000000  0.4624310000000 1.0
C      1  0.4943040000000  0.5026530000000  0.6125900000000 1.0
C      1  0.5071690000000  0.4225760000000  0.5126940000000 1.0
C      1  0.4838230000000  0.5800810000000  0.4212420000000 1.0
C      1  0.5775660000000  0.4743390000000  0.4749200000000 1.0
C      1  0.3719940000000  0.4615350000000  0.5225120000000 1.0
C      1  0.5525840000000  0.4821000000000  0.4392710000000 1.0
C      1  0.5410790000000  0.4527240000000  0.4379490000000 1.0
C      1  0.4981130000000  0.4849000000000  0.5439230000000 1.0
C      1  0.5005130000000  0.3831520000000  0.5121940000000 1.0
C      1  0.4963240000000  0.5516100000000  0.4201610000000 1.0
C      1  0.4806910000000  0.4064920000000  0.4489880000000 1.0
C      1  0.6070540000000  0.4853120000000  0.4329680000000 1.0
C      1  0.4576930000000  0.4112620000000  0.5324540000000 1.0
C      1  0.4681830000000  0.5654250000000  0.4448610000000 1.0
C      1  0.4461160000000  0.4515530000000  0.5130490000000 1.0
C      1  0.3791360000000  0.5076320000000  0.4614170000000 1.0
C      1  0.4952250000000  0.5469830000000  0.4852050000000 1.0
C      1  0.5603090000000  0.4256560000000  0.5726470000000 1.0
C      1  0.4607630000000  0.4996100000000  0.3992220000000 1.0
C      1  0.4842210000000  0.4846740000000  0.4699330000000 1.0
C      1  0.3959430000000  0.5055130000000  0.5409290000000 1.0
C      1  0.5452720000000  0.4942730000000  0.5194690000000 1.0
C      1  0.4298890000000  0.5438380000000  0.5873100000000 1.0
C      1  0.5891290000000  0.4485360000000  0.4885480000000 1.0
C      1  0.4813920000000  0.4694400000000  0.5186560000000 1.0
C      1  0.4236270000000  0.4642590000000  0.4320330000000 1.0
C      1  0.5365790000000  0.5297630000000  0.6054230000000 1.0
C      1  0.5897710000000  0.4952090000000  0.5500210000000 1.0
C      1  0.5059260000000  0.5684390000000  0.5233360000000 1.0
C      1  0.4758930000000  0.3949500000000  0.5543300000000 1.0
C      1  0.4097450000000  0.5012570000000  0.5720920000000 1.0
C      1  0.5941790000000  0.4479160000000  0.5162200000000 1.0
C      1  0.4457190000000  0.4669220000000  0.5854610000000 1.0
C      1  0.5273290000000  0.4778340000000  0.5598770000000 1.0
C      1  0.4598310000000  0.4872440000000  0.5015640000000 1.0
C      1  0.4884990000000  0.5612610000000  0.6107590000000 1.0
C      1  0.3987920000000  0.4691100000000  0.5263770000000 1.0
C      1  0.5204730000000  0.4770230000000  0.5205490000000 1.0
C      1  0.4193450000000  0.4407430000000  0.4805380000000 1.0
C      1  0.4780510000000  0.4059680000000  0.5068600000000 1.0
C      1  0.5067160000000  0.4548150000000  0.4998590000000 1.0
C      1  0.5901190000000  0.4747440000000  0.5322680000000 1.0
C      1  0.4626550000000  0.4155650000000  0.4259370000000 1.0
C      1  0.4639210000000  0.4119530000000  0.4765070000000 1.0
C      1  0.4680330000000  0.4606260000000  0.3999240000000 1.0
C      1  0.4739050000000  0.5264910000000  0.4153960000000 1.0
C      1  0.5522260000000  0.5859540000000  0.5699100000000 1.0
C      1  0.4959330000000  0.4101080000000  0.5651880000000 1.0
C      1  0.5784150000000  0.4995300000000  0.4289060000000 1.0
C      1  0.5465670000000  0.6091540000000  0.4798080000000 1.0
C      1  0.5575460000000  0.5843570000000  0.4707270000000 1.0
C      1  0.5582320000000  0.5426750000000  0.4357320000000 1.0
C      1  0.6107680000000  0.5247020000000  0.4696800000000 1.0
C      1  0.5873600000000  0.5036270000000  0.5003120000000 1.0
C      1  0.6030680000000  0.5691690000000  0.5371930000000 1.0
C      1  0.3621470000000  0.5243330000000  0.4500620000000 1.0
C      1  0.5246350000000  0.3871080000000  0.5186830000000 1.0
C      1  0.5488450000000  0.4453990000000  0.5892260000000 1.0
C      1  0.4388370000000  0.5239450000000  0.4721980000000 1.0
C      1  0.6185200000000  0.5010390000000  0.4918330000000 1.0
C      1  0.5687880000000  0.4097580000000  0.5246260000000 1.0
C      1  0.5470110000000  0.3949110000000  0.4809220000000 1.0
C      1  0.4906140000000  0.4515800000000  0.4708410000000 1.0
C      1  0.5659870000000  0.5312290000000  0.5996070000000 1.0
C      1  0.4002650000000  0.4908330000000  0.4752990000000 1.0
C      1  0.4941330000000  0.5021920000000  0.4279180000000 1.0
C      1  0.5080500000000  0.4063170000000  0.4418300000000 1.0
C      1  0.5212530000000  0.4478460000000  0.5975930000000 1.0
C      1  0.5221470000000  0.5028860000000  0.6078870000000 1.0
C      1  0.4542410000000  0.5262430000000  0.5554930000000 1.0
C      1  0.4822240000000  0.6044550000000  0.4428120000000 1.0
C      1  0.5549620000000  0.4013250000000  0.4483580000000 1.0
C      1  0.5030620000000  0.4994180000000  0.5017980000000 1.0
C      1  0.4296940000000  0.5119080000000  0.4209740000000 1.0
C      1  0.5161590000000  0.6041140000000  0.4797760000000 1.0
C      1  0.5596200000000  0.5881590000000  0.5376740000000 1.0
C      1  0.5303180000000  0.4190300000000  0.4637160000000 1.0
C      1  0.5489280000000  0.6187120000000  0.5084180000000 1.0
C      1  0.5472620000000  0.4110300000000  0.5499610000000 1.0
C      1  0.4201670000000  0.4732460000000  0.5756530000000 1.0
C      1  0.4324860000000  0.5160500000000  0.5871670000000 1.0
C      1  0.5200290000000  0.5436670000000  0.5868580000000 1.0
C      1  0.5325630000000  0.5255490000000  0.3943970000000 1.0
C      1  0.5828600000000  0.5589890000000  0.4238040000000 1.0
C      1  0.5104420000000  0.5901020000000  0.4493160000000 1.0
C      1  0.4795070000000  0.5182850000000  0.5173210000000 1.0
C      1  0.4871460000000  0.4836620000000  0.3848280000000 1.0
C      1  0.5750660000000  0.4049650000000  0.4915560000000 1.0
C      1  0.5025140000000  0.4208390000000  0.4791720000000 1.0
C      1  0.5280850000000  0.5782440000000  0.5472230000000 1.0
C      1  0.4950900000000  0.5314230000000  0.5850100000000 1.0
C      1  0.5265790000000  0.5917820000000  0.5097120000000 1.0
C      1  0.5096280000000  0.5729200000000  0.4785770000000 1.0
C      1  0.4701070000000  0.5689490000000  0.4786240000000 1.0
C      1  0.4783180000000  0.5357220000000  0.4579400000000 1.0
C      1  0.4880060000000  0.4281960000000  0.5878230000000 1.0
C      1  0.5278130000000  0.5755080000000  0.4256860000000 1.0
C      1  0.4634390000000  0.5038460000000  0.5793840000000 1.0
C      1  0.5605020000000  0.4740200000000  0.5818010000000 1.0
C      1  0.5149470000000  0.5129210000000  0.4465660000000 1.0
C      1  0.5744990000000  0.5206260000000  0.4534630000000 1.0
C      1  0.4071520000000  0.4624620000000  0.4586410000000 1.0
C      1  0.5413450000000  0.5431790000000  0.4828360000000 1.0
C      1  0.4303120000000  0.4019270000000  0.5155190000000 1.0
C      1  0.5493800000000  0.5666400000000  0.5055870000000 1.0
C      1  0.4748430000000  0.5792710000000  0.5642240000000 1.0
C      1  0.5245830000000  0.5507560000000  0.4048370000000 1.0
C      1  0.5163520000000  0.5277740000000  0.4921230000000 1.0
C      1  0.5302810000000  0.4474170000000  0.5341130000000 1.0
C      1  0.4823510000000  0.4474120000000  0.5610280000000 1.0
C      1  0.4902070000000  0.5107110000000  0.5594620000000 1.0
C      1  0.4704290000000  0.4427900000000  0.5331260000000 1.0
C      1  0.4605280000000  0.4443980000000  0.4830710000000 1.0
C      1  0.4327180000000  0.4916650000000  0.4651550000000 1.0
C      1  0.5142090000000  0.4152780000000  0.4132890000000 1.0
C      1  0.4719230000000  0.4804160000000  0.6025690000000 1.0
C      1  0.4623200000000  0.4551200000000  0.4291510000000 1.0
C      1  0.4372200000000  0.4335870000000  0.4337430000000 1.0
C      1  0.4343600000000  0.5705110000000  0.5366870000000 1.0
C      1  0.5955860000000  0.5469330000000  0.4490170000000 1.0
C      1  0.5405120000000  0.4990840000000  0.5802010000000 1.0
C      1  0.5594350000000  0.5357420000000  0.5176790000000 1.0
C      1  0.4891540000000  0.4516270000000  0.6083720000000 1.0
C      1  0.4957530000000  0.5752910000000  0.5890090000000 1.0
C      1  0.6005190000000  0.4923820000000  0.4643150000000 1.0
C      1  0.5596700000000  0.5133080000000  0.4038300000000 1.0
C      1  0.5117180000000  0.5069280000000  0.3895380000000 1.0
C      1  0.6015460000000  0.5438050000000  0.5466280000000 1.0
C      1  0.4315250000000  0.4783090000000  0.5281500000000 1.0
END
