TITL C-2847949-8115-504 0.00022775830594299 125000 -699.392467517175 0 0 138 (C1) n - 1
REM
REM in /home/bkarasulu/work/CARBON/AIRSS/Generating-Clusters/AIREBO/with-SteepDescent/Only-C1/SD-CG-opt/Try1-1.4A-POS3A/HFTN-CG
REM
REM
REM
REM
REM
REM ./C.cell (11c1c37f851c82e70ff6c80c92926a4b)
REM
REM compiler GCC version 9.2.1 20190827 (Red Hat 9.2.1-1)
REM options -cpp -mtune=generic -march=x86-64 -g -O0 -fpre-include=/usr/include/finclude/math-vector-fortran.h
REM seed 1221064734 544123089 701566109 1236195666 17358290 640927659 -927293053 -157807276 -849578540 -36384193 -1488530866 1184320847 582068168 674155578 1174546720 432793370 -599475070 422264551 -543658177 -1346483324 658468899 254943437 -568454355 -270207671 -729370154 -632363101 2052539983 1739688487 -2108129998 -1726901778 -194013678 -164428076 -505535534
REM
CELL 1.54180   50.00000   50.00000   50.00000   90.00000   90.00000   90.00000
LATT -1
SFAC C  
C      1  0.5909810000000  0.4178830000000  0.5001000000000 1.0
C      1  0.4434940000000  0.4867500000000  0.5649970000000 1.0
C      1  0.5194390000000  0.4900010000000  0.4182630000000 1.0
C      1  0.5703180000000  0.4426860000000  0.4585960000000 1.0
C      1  0.4243540000000  0.5374360000000  0.4903630000000 1.0
C      1  0.5584170000000  0.5850300000000  0.5257300000000 1.0
C      1  0.5512110000000  0.5339030000000  0.5171570000000 1.0
C      1  0.4548490000000  0.5684390000000  0.5581070000000 1.0
C      1  0.4387030000000  0.5632210000000  0.4518570000000 1.0
C      1  0.5706570000000  0.5588940000000  0.5077430000000 1.0
C      1  0.4784160000000  0.4350300000000  0.5600190000000 1.0
C      1  0.5720220000000  0.4725870000000  0.4729410000000 1.0
C      1  0.5051790000000  0.4624400000000  0.4810470000000 1.0
C      1  0.4463860000000  0.4650370000000  0.4198620000000 1.0
C      1  0.5278880000000  0.5884140000000  0.5413190000000 1.0
C      1  0.4783860000000  0.5676390000000  0.5729030000000 1.0
C      1  0.4561310000000  0.5589600000000  0.4283350000000 1.0
C      1  0.4806570000000  0.5167040000000  0.4111900000000 1.0
C      1  0.4624430000000  0.4485580000000  0.5055300000000 1.0
C      1  0.5700110000000  0.4879570000000  0.5634000000000 1.0
C      1  0.4507510000000  0.4346310000000  0.5540390000000 1.0
C      1  0.5605540000000  0.5540590000000  0.5504200000000 1.0
C      1  0.4818080000000  0.5726890000000  0.4294460000000 1.0
C      1  0.5328180000000  0.5284350000000  0.5947910000000 1.0
C      1  0.4948390000000  0.4803520000000  0.4540600000000 1.0
C      1  0.4516170000000  0.5819600000000  0.5285350000000 1.0
C      1  0.4963860000000  0.4732570000000  0.5306020000000 1.0
C      1  0.4056230000000  0.4660240000000  0.4965180000000 1.0
C      1  0.4990600000000  0.4660060000000  0.4119700000000 1.0
C      1  0.5036620000000  0.4453420000000  0.4373610000000 1.0
C      1  0.5799430000000  0.5471890000000  0.4499960000000 1.0
C      1  0.4600290000000  0.4890140000000  0.5384360000000 1.0
C      1  0.5081450000000  0.5573160000000  0.4285340000000 1.0
C      1  0.5490070000000  0.5529020000000  0.4551550000000 1.0
C      1  0.4531170000000  0.5674920000000  0.4787500000000 1.0
C      1  0.4852700000000  0.4658510000000  0.5587080000000 1.0
C      1  0.5058960000000  0.4234740000000  0.5334890000000 1.0
C      1  0.5350270000000  0.3838270000000  0.5174140000000 1.0
C      1  0.4941320000000  0.5360930000000  0.5172810000000 1.0
C      1  0.5497010000000  0.4600710000000  0.4953310000000 1.0
C      1  0.4287810000000  0.4509200000000  0.4586390000000 1.0
C      1  0.5648770000000  0.4615480000000  0.5341810000000 1.0
C      1  0.5258390000000  0.5563900000000  0.5814370000000 1.0
C      1  0.4611730000000  0.4984400000000  0.4053130000000 1.0
C      1  0.5277640000000  0.4667680000000  0.5204590000000 1.0
C      1  0.4747180000000  0.4211680000000  0.5201040000000 1.0
C      1  0.4957530000000  0.4866910000000  0.5821370000000 1.0
C      1  0.4579150000000  0.5529520000000  0.5156860000000 1.0
C      1  0.5856830000000  0.5108700000000  0.5244220000000 1.0
C      1  0.5829950000000  0.5219080000000  0.4961990000000 1.0
C      1  0.4034450000000  0.4914210000000  0.4756440000000 1.0
C      1  0.4724620000000  0.4585030000000  0.4406870000000 1.0
C      1  0.5373660000000  0.4957990000000  0.5888230000000 1.0
C      1  0.5178700000000  0.4571760000000  0.6078490000000 1.0
C      1  0.5162750000000  0.5436410000000  0.4577150000000 1.0
C      1  0.5348700000000  0.4595750000000  0.4647270000000 1.0
C      1  0.5072790000000  0.5652190000000  0.5273950000000 1.0
C      1  0.4722980000000  0.4188690000000  0.4806010000000 1.0
C      1  0.5263940000000  0.5319690000000  0.3968190000000 1.0
C      1  0.4348960000000  0.4694680000000  0.4851000000000 1.0
C      1  0.5218740000000  0.5198120000000  0.5119260000000 1.0
C      1  0.4791700000000  0.5521980000000  0.4932330000000 1.0
C      1  0.5097770000000  0.5332290000000  0.5624960000000 1.0
C      1  0.5857950000000  0.5436770000000  0.5341580000000 1.0
C      1  0.5924700000000  0.4693960000000  0.4981530000000 1.0
C      1  0.5015160000000  0.4311230000000  0.4681940000000 1.0
C      1  0.5630380000000  0.5010040000000  0.4585060000000 1.0
C      1  0.4555290000000  0.4804450000000  0.4604040000000 1.0
C      1  0.5749460000000  0.4861530000000  0.4303330000000 1.0
C      1  0.5854690000000  0.4802390000000  0.5230290000000 1.0
C      1  0.5059250000000  0.5730170000000  0.5622250000000 1.0
C      1  0.5367210000000  0.5106450000000  0.4390610000000 1.0
C      1  0.5351410000000  0.6046750000000  0.5123510000000 1.0
C      1  0.4821230000000  0.4719340000000  0.5041780000000 1.0
C      1  0.4388920000000  0.5169950000000  0.5759890000000 1.0
C      1  0.5507610000000  0.4476920000000  0.5798320000000 1.0
C      1  0.4859310000000  0.3961850000000  0.5005960000000 1.0
C      1  0.5121160000000  0.4379140000000  0.5636670000000 1.0
C      1  0.4730260000000  0.4701270000000  0.4024260000000 1.0
C      1  0.4309600000000  0.5677080000000  0.5045640000000 1.0
C      1  0.4411530000000  0.4215010000000  0.4671720000000 1.0
C      1  0.4336710000000  0.4961370000000  0.4255490000000 1.0
C      1  0.4454480000000  0.4128750000000  0.5006230000000 1.0
C      1  0.5065900000000  0.5111790000000  0.4548050000000 1.0
C      1  0.5370140000000  0.4371730000000  0.5326060000000 1.0
C      1  0.4636120000000  0.4257060000000  0.4422980000000 1.0
C      1  0.5401950000000  0.4791610000000  0.5495980000000 1.0
C      1  0.4058030000000  0.5079150000000  0.5442570000000 1.0
C      1  0.4991910000000  0.5865370000000  0.4905590000000 1.0
C      1  0.4797080000000  0.5467030000000  0.5911970000000 1.0
C      1  0.4519550000000  0.5254280000000  0.4814470000000 1.0
C      1  0.4672990000000  0.5225980000000  0.5586290000000 1.0
C      1  0.5232090000000  0.4673740000000  0.5766240000000 1.0
C      1  0.5284350000000  0.5853960000000  0.4638590000000 1.0
C      1  0.4519700000000  0.4874700000000  0.5066980000000 1.0
C      1  0.5550410000000  0.5726380000000  0.4807940000000 1.0
C      1  0.4883920000000  0.4095780000000  0.4453480000000 1.0
C      1  0.5784050000000  0.4418370000000  0.4976400000000 1.0
C      1  0.4516340000000  0.5285750000000  0.5324390000000 1.0
C      1  0.4414110000000  0.5285470000000  0.4325280000000 1.0
C      1  0.5281800000000  0.5727100000000  0.5016400000000 1.0
C      1  0.5588700000000  0.4382420000000  0.5555760000000 1.0
C      1  0.4907300000000  0.5024760000000  0.5444600000000 1.0
C      1  0.4803290000000  0.5246820000000  0.4403620000000 1.0
C      1  0.4817770000000  0.5850080000000  0.5158890000000 1.0
C      1  0.4203260000000  0.5397720000000  0.4573950000000 1.0
C      1  0.5468860000000  0.4288610000000  0.4706860000000 1.0
C      1  0.5768200000000  0.5181030000000  0.5547030000000 1.0
C      1  0.5612100000000  0.4665030000000  0.4217600000000 1.0
C      1  0.4953420000000  0.5776060000000  0.4602630000000 1.0
C      1  0.4691440000000  0.5158690000000  0.5061930000000 1.0
C      1  0.4945600000000  0.5082410000000  0.4853050000000 1.0
C      1  0.5270760000000  0.5421260000000  0.4867940000000 1.0
C      1  0.4374340000000  0.4373120000000  0.5228690000000 1.0
C      1  0.4648530000000  0.4739060000000  0.5842090000000 1.0
C      1  0.4909270000000  0.5164250000000  0.5818660000000 1.0
C      1  0.5231480000000  0.4075000000000  0.5096920000000 1.0
C      1  0.5322590000000  0.4634210000000  0.4335400000000 1.0
C      1  0.5520220000000  0.5190450000000  0.4857370000000 1.0
C      1  0.5183510000000  0.4894790000000  0.4969720000000 1.0
C      1  0.5241720000000  0.5086250000000  0.5439570000000 1.0
C      1  0.4368730000000  0.5479440000000  0.5641630000000 1.0
C      1  0.5071480000000  0.5128770000000  0.4016220000000 1.0
C      1  0.5324900000000  0.5476630000000  0.5419860000000 1.0
C      1  0.4308610000000  0.4624970000000  0.5447670000000 1.0
C      1  0.5986810000000  0.5513120000000  0.4900320000000 1.0
C      1  0.5471830000000  0.5198120000000  0.5663630000000 1.0
C      1  0.4768510000000  0.5490780000000  0.4609990000000 1.0
C      1  0.5250500000000  0.4158680000000  0.4830240000000 1.0
C      1  0.4558470000000  0.5098410000000  0.4562010000000 1.0
C      1  0.4675900000000  0.4512970000000  0.4735580000000 1.0
C      1  0.4233780000000  0.5046220000000  0.4999150000000 1.0
C      1  0.4169000000000  0.4807850000000  0.4508850000000 1.0
C      1  0.4172840000000  0.4880360000000  0.5286210000000 1.0
C      1  0.5382010000000  0.5418200000000  0.4249580000000 1.0
C      1  0.4204610000000  0.5314400000000  0.5437610000000 1.0
C      1  0.5877230000000  0.5238210000000  0.4625830000000 1.0
C      1  0.4057660000000  0.4440320000000  0.5124670000000 1.0
END
