TITL C-2847953-8112-433 0.00117680049837099 125000 -239.32322668048 0 0 43 (C1) n - 1
REM
REM in /home/bkarasulu/work/CARBON/AIRSS/Generating-Clusters/AIREBO/with-SteepDescent/Only-C1/SD-CG-opt/Try1-1.4A-POS3A/HFTN-CG
REM
REM
REM
REM
REM
REM ./C.cell (11c1c37f851c82e70ff6c80c92926a4b)
REM
REM compiler GCC version 9.2.1 20190827 (Red Hat 9.2.1-1)
REM options -cpp -mtune=generic -march=x86-64 -g -O0 -fpre-include=/usr/include/finclude/math-vector-fortran.h
REM seed -1012294326 -93556801 827156361 1007525117 783619727 599721169 65156166 581814331 -279314168 1753488236 -268646616 2097521275 -716488913 1194960647 1212029275 671873274 1741439144 -975999983 -1616243592 183699917 1432625205 -692659437 -202745532 142528162 1173820877 1155816385 -43535525 -2075576618 -935994057 496233436 94690456 -1588323128 -135160620
REM
CELL 1.54180   50.00000   50.00000   50.00000   90.00000   90.00000   90.00000
LATT -1
SFAC C  
C      1  0.5271380000000  0.5595480000000  0.5190510000000 1.0
C      1  0.5624440000000  0.5157680000000  0.5162240000000 1.0
C      1  0.4349080000000  0.4710460000000  0.4894740000000 1.0
C      1  0.4758370000000  0.5676300000000  0.4853120000000 1.0
C      1  0.4601380000000  0.4629650000000  0.4991570000000 1.0
C      1  0.5055340000000  0.5128300000000  0.4440830000000 1.0
C      1  0.4771720000000  0.5401810000000  0.4745270000000 1.0
C      1  0.4308140000000  0.4975260000000  0.4878470000000 1.0
C      1  0.5275730000000  0.5463520000000  0.5429380000000 1.0
C      1  0.4843130000000  0.4604970000000  0.5424810000000 1.0
C      1  0.5377140000000  0.5124020000000  0.4550540000000 1.0
C      1  0.4591510000000  0.5156750000000  0.4829470000000 1.0
C      1  0.5099870000000  0.4992160000000  0.4929620000000 1.0
C      1  0.5139780000000  0.4423020000000  0.4855300000000 1.0
C      1  0.5058990000000  0.5271480000000  0.4742050000000 1.0
C      1  0.5060860000000  0.4713810000000  0.5564180000000 1.0
C      1  0.4353490000000  0.5150460000000  0.5375990000000 1.0
C      1  0.4854610000000  0.5318420000000  0.5233080000000 1.0
C      1  0.4878700000000  0.4341970000000  0.5329260000000 1.0
C      1  0.5316070000000  0.4561140000000  0.5516000000000 1.0
C      1  0.4678180000000  0.4788070000000  0.5250180000000 1.0
C      1  0.5342970000000  0.4497030000000  0.5190490000000 1.0
C      1  0.5074710000000  0.5259870000000  0.5444410000000 1.0
C      1  0.5192280000000  0.4841090000000  0.4497200000000 1.0
C      1  0.4820530000000  0.4538530000000  0.4852690000000 1.0
C      1  0.5481060000000  0.4912960000000  0.4761260000000 1.0
C      1  0.4436920000000  0.4896680000000  0.5416940000000 1.0
C      1  0.4981610000000  0.5550070000000  0.5049970000000 1.0
C      1  0.4560450000000  0.5376300000000  0.5295890000000 1.0
C      1  0.4341010000000  0.5258350000000  0.5064050000000 1.0
C      1  0.5128650000000  0.4995130000000  0.5484630000000 1.0
C      1  0.5461800000000  0.4463560000000  0.4891720000000 1.0
C      1  0.5072200000000  0.4732690000000  0.4752030000000 1.0
C      1  0.5417480000000  0.5008330000000  0.5050700000000 1.0
C      1  0.4768420000000  0.5121740000000  0.4343310000000 1.0
C      1  0.5579660000000  0.4661060000000  0.4749470000000 1.0
C      1  0.5266700000000  0.5497610000000  0.4866290000000 1.0
C      1  0.5441300000000  0.5407760000000  0.4623430000000 1.0
C      1  0.5079230000000  0.4302500000000  0.5154830000000 1.0
C      1  0.4581820000000  0.5065220000000  0.4505180000000 1.0
C      1  0.5604490000000  0.5564830000000  0.4494980000000 1.0
C      1  0.5290320000000  0.4820180000000  0.5256170000000 1.0
C      1  0.4808490000000  0.5043790000000  0.5067760000000 1.0
END
