TITL C-2847944-5688-647 -0.000481881386151426 125000 -540.993640046859 0 0 102 (C1) n - 1
REM
REM in /home/bkarasulu/work/CARBON/AIRSS/Generating-Clusters/AIREBO/with-SteepDescent/Only-C1/SD-CG-opt/Try1-1.4A-POS3A/HFTN-CG
REM
REM
REM
REM
REM
REM ./C.cell (11c1c37f851c82e70ff6c80c92926a4b)
REM
REM compiler GCC version 9.2.1 20190827 (Red Hat 9.2.1-1)
REM options -cpp -mtune=generic -march=x86-64 -g -O0 -fpre-include=/usr/include/finclude/math-vector-fortran.h
REM seed -2101869745 116199373 -209682090 567304779 -1428072275 -1532917546 2049641347 689847751 -417590969 -1673470423 1988694881 -595207716 -1354908540 -1471054564 943168429 -656472291 894525173 699489758 376970473 -848009675 319485740 594042449 -1283031900 1403283643 -934482664 532328689 -1752395903 200974420 -1011203392 -692761216 -1765429572 -1032553830 1215041536
REM
CELL 1.54180   50.00000   50.00000   50.00000   90.00000   90.00000   90.00000
LATT -1
SFAC C  
C      1  0.5016270000000  0.5546460000000  0.4869460000000 1.0
C      1  0.4035270000000  0.5119630000000  0.5685330000000 1.0
C      1  0.5574910000000  0.4741290000000  0.4480230000000 1.0
C      1  0.5362400000000  0.4566130000000  0.5096880000000 1.0
C      1  0.5215810000000  0.5870690000000  0.4750830000000 1.0
C      1  0.4828000000000  0.4320870000000  0.5288850000000 1.0
C      1  0.4996750000000  0.4845660000000  0.4142360000000 1.0
C      1  0.4630160000000  0.4422880000000  0.4764630000000 1.0
C      1  0.5604750000000  0.4978380000000  0.5239540000000 1.0
C      1  0.5049950000000  0.5158080000000  0.4736350000000 1.0
C      1  0.4828350000000  0.5888130000000  0.5196970000000 1.0
C      1  0.4920690000000  0.4313710000000  0.4718500000000 1.0
C      1  0.5780500000000  0.5531360000000  0.5132800000000 1.0
C      1  0.5549870000000  0.5460630000000  0.4893150000000 1.0
C      1  0.5268210000000  0.5077220000000  0.4322340000000 1.0
C      1  0.5327520000000  0.5042200000000  0.4895070000000 1.0
C      1  0.4851930000000  0.4607040000000  0.4219720000000 1.0
C      1  0.5211310000000  0.4286330000000  0.5064160000000 1.0
C      1  0.4281490000000  0.5540780000000  0.4603960000000 1.0
C      1  0.4591370000000  0.4690440000000  0.4302260000000 1.0
C      1  0.4577920000000  0.4695780000000  0.4605120000000 1.0
C      1  0.5720240000000  0.4313170000000  0.4952220000000 1.0
C      1  0.4814880000000  0.4387430000000  0.5631730000000 1.0
C      1  0.4918930000000  0.5859500000000  0.4916290000000 1.0
C      1  0.5972470000000  0.4953040000000  0.4826020000000 1.0
C      1  0.5279650000000  0.4863360000000  0.4091860000000 1.0
C      1  0.5228830000000  0.4394810000000  0.4763120000000 1.0
C      1  0.5185610000000  0.4803310000000  0.5068150000000 1.0
C      1  0.4824270000000  0.5224720000000  0.5637480000000 1.0
C      1  0.5493060000000  0.5450530000000  0.5284680000000 1.0
C      1  0.5093060000000  0.5136300000000  0.5448680000000 1.0
C      1  0.4567190000000  0.4057720000000  0.4943120000000 1.0
C      1  0.4727640000000  0.5314920000000  0.4352520000000 1.0
C      1  0.4517050000000  0.5320670000000  0.4966220000000 1.0
C      1  0.4316990000000  0.5719970000000  0.4808730000000 1.0
C      1  0.5109680000000  0.5525710000000  0.5360820000000 1.0
C      1  0.4846940000000  0.4892440000000  0.4673400000000 1.0
C      1  0.5159860000000  0.4817340000000  0.5842790000000 1.0
C      1  0.5397410000000  0.4677560000000  0.5643660000000 1.0
C      1  0.5457770000000  0.5344790000000  0.4329510000000 1.0
C      1  0.5966630000000  0.5328400000000  0.5297550000000 1.0
C      1  0.4281080000000  0.4691740000000  0.4741850000000 1.0
C      1  0.5347840000000  0.5159410000000  0.5224680000000 1.0
C      1  0.5648860000000  0.4933430000000  0.4919710000000 1.0
C      1  0.5377320000000  0.4471430000000  0.4401340000000 1.0
C      1  0.5616030000000  0.5754890000000  0.5331860000000 1.0
C      1  0.4825050000000  0.5009460000000  0.4354870000000 1.0
C      1  0.4249130000000  0.4973970000000  0.5589520000000 1.0
C      1  0.4816160000000  0.4171890000000  0.5010360000000 1.0
C      1  0.4920950000000  0.5449170000000  0.4139820000000 1.0
C      1  0.4779580000000  0.5445030000000  0.5382170000000 1.0
C      1  0.5003180000000  0.5036170000000  0.5856880000000 1.0
C      1  0.5534260000000  0.4398720000000  0.4680740000000 1.0
C      1  0.5674280000000  0.4849970000000  0.5544360000000 1.0
C      1  0.5215510000000  0.5395660000000  0.4557980000000 1.0
C      1  0.4644270000000  0.4563300000000  0.5031440000000 1.0
C      1  0.4440030000000  0.5611290000000  0.5030140000000 1.0
C      1  0.4168620000000  0.4998030000000  0.4760540000000 1.0
C      1  0.4588630000000  0.5702680000000  0.5279600000000 1.0
C      1  0.4560910000000  0.5069790000000  0.5645760000000 1.0
C      1  0.5602800000000  0.4633940000000  0.4891670000000 1.0
C      1  0.4800950000000  0.5480510000000  0.5870780000000 1.0
C      1  0.5781110000000  0.4971270000000  0.4545540000000 1.0
C      1  0.4738560000000  0.4849800000000  0.4970720000000 1.0
C      1  0.5190580000000  0.4160150000000  0.5329290000000 1.0
C      1  0.4922940000000  0.4969610000000  0.5205810000000 1.0
C      1  0.4856820000000  0.5787020000000  0.4595640000000 1.0
C      1  0.4805820000000  0.5305060000000  0.4874370000000 1.0
C      1  0.4467220000000  0.4790360000000  0.5766420000000 1.0
C      1  0.4906090000000  0.5493070000000  0.4537110000000 1.0
C      1  0.5117950000000  0.4504490000000  0.5731980000000 1.0
C      1  0.5648090000000  0.5220260000000  0.4735440000000 1.0
C      1  0.4324000000000  0.5235400000000  0.4729590000000 1.0
C      1  0.4527870000000  0.4873890000000  0.5246650000000 1.0
C      1  0.4572970000000  0.4561900000000  0.5667590000000 1.0
C      1  0.4423440000000  0.5808700000000  0.5480950000000 1.0
C      1  0.4426610000000  0.5290840000000  0.4425640000000 1.0
C      1  0.5310470000000  0.4892890000000  0.4589950000000 1.0
C      1  0.4178060000000  0.4396620000000  0.4722380000000 1.0
C      1  0.5840890000000  0.5114100000000  0.5409240000000 1.0
C      1  0.5661350000000  0.4523520000000  0.5500050000000 1.0
C      1  0.4661540000000  0.5185950000000  0.5227620000000 1.0
C      1  0.5267900000000  0.5381520000000  0.5606560000000 1.0
C      1  0.5732410000000  0.5278350000000  0.4419320000000 1.0
C      1  0.5250080000000  0.5500120000000  0.5052030000000 1.0
C      1  0.4040480000000  0.4556930000000  0.5401520000000 1.0
C      1  0.4205940000000  0.4803320000000  0.5330290000000 1.0
C      1  0.5034930000000  0.5836600000000  0.5381680000000 1.0
C      1  0.5092410000000  0.4675370000000  0.4641680000000 1.0
C      1  0.5364250000000  0.5643350000000  0.4698330000000 1.0
C      1  0.4190430000000  0.4846810000000  0.5031240000000 1.0
C      1  0.5173920000000  0.5362540000000  0.4162100000000 1.0
C      1  0.5397030000000  0.5445360000000  0.5818940000000 1.0
C      1  0.4497510000000  0.5004260000000  0.4256940000000 1.0
C      1  0.5060970000000  0.4788660000000  0.5458560000000 1.0
C      1  0.5473560000000  0.4670780000000  0.4163430000000 1.0
C      1  0.5107770000000  0.4483810000000  0.5392750000000 1.0
C      1  0.4892910000000  0.5251200000000  0.6030230000000 1.0
C      1  0.5038720000000  0.4427250000000  0.4415510000000 1.0
C      1  0.5641220000000  0.4441400000000  0.5236550000000 1.0
C      1  0.4589900000000  0.4555800000000  0.5350160000000 1.0
C      1  0.4388300000000  0.4221860000000  0.4767080000000 1.0
END
