TITL C-2848502-4955-536 -5.28724292274962e-05 125000 -379.338421665529 0 0 68 (C1) n - 1
REM
REM in /home/bkarasulu/work/CARBON/AIRSS/Generating-Clusters/AIREBO/with-SteepDescent/Only-C1/SD-CG-opt/Try1-1.4A-POS3A/HFTN-CG
REM
REM
REM
REM
REM
REM ./C.cell (11c1c37f851c82e70ff6c80c92926a4b)
REM
REM compiler GCC version 9.2.1 20190827 (Red Hat 9.2.1-1)
REM options -cpp -mtune=generic -march=x86-64 -g -O0 -fpre-include=/usr/include/finclude/math-vector-fortran.h
REM seed 1142027805 -197721816 -613587802 -382655259 109432598 -1303948662 154322898 -506157381 -2031615275 852155290 267715852 126533647 1403518031 2081347649 -1985679558 -1903840366 585447143 -1436374448 658369028 -1773083224 -1599899003 -733848292 -2138377773 -1439012544 114581250 -350155410 -1550853842 1645898872 310902939 -1463350643 -911286194 -1321535934 853039303
REM
CELL 1.54180   50.00000   50.00000   50.00000   90.00000   90.00000   90.00000
LATT -1
SFAC C  
C      1  0.4548310000000  0.5511670000000  0.4167180000000 1.0
C      1  0.4398140000000  0.5412180000000  0.5140740000000 1.0
C      1  0.5113530000000  0.5125190000000  0.5621540000000 1.0
C      1  0.5254310000000  0.5627060000000  0.4976530000000 1.0
C      1  0.4050470000000  0.4808230000000  0.4754910000000 1.0
C      1  0.4151140000000  0.4840120000000  0.5310100000000 1.0
C      1  0.4783130000000  0.5604980000000  0.4947030000000 1.0
C      1  0.4503720000000  0.5127270000000  0.4687450000000 1.0
C      1  0.4840580000000  0.5313090000000  0.5668770000000 1.0
C      1  0.5594940000000  0.5324930000000  0.4782380000000 1.0
C      1  0.4518760000000  0.4676860000000  0.4463090000000 1.0
C      1  0.5216690000000  0.5314680000000  0.5105580000000 1.0
C      1  0.5000400000000  0.4547030000000  0.5000110000000 1.0
C      1  0.5308790000000  0.5545470000000  0.5448640000000 1.0
C      1  0.5020280000000  0.4691680000000  0.4255210000000 1.0
C      1  0.5346690000000  0.5252140000000  0.4652640000000 1.0
C      1  0.4573870000000  0.5412450000000  0.4417100000000 1.0
C      1  0.4957100000000  0.5100060000000  0.5038010000000 1.0
C      1  0.4862860000000  0.4817670000000  0.5607770000000 1.0
C      1  0.5543810000000  0.5428990000000  0.5303720000000 1.0
C      1  0.5476170000000  0.4921440000000  0.4174470000000 1.0
C      1  0.5303600000000  0.4712380000000  0.4259270000000 1.0
C      1  0.5336970000000  0.4288690000000  0.4474470000000 1.0
C      1  0.4801760000000  0.4725930000000  0.4430710000000 1.0
C      1  0.5074440000000  0.4307600000000  0.4861510000000 1.0
C      1  0.4365230000000  0.4981380000000  0.5533320000000 1.0
C      1  0.5191450000000  0.5073780000000  0.4792940000000 1.0
C      1  0.5025420000000  0.5728660000000  0.4799680000000 1.0
C      1  0.4688650000000  0.4572700000000  0.5502270000000 1.0
C      1  0.4841100000000  0.4797840000000  0.4934000000000 1.0
C      1  0.5551390000000  0.5505030000000  0.5007820000000 1.0
C      1  0.4876550000000  0.4392130000000  0.5390950000000 1.0
C      1  0.4859350000000  0.4911570000000  0.4638810000000 1.0
C      1  0.5148790000000  0.4537200000000  0.5284600000000 1.0
C      1  0.5673230000000  0.4979990000000  0.5070920000000 1.0
C      1  0.5116660000000  0.4744460000000  0.5740400000000 1.0
C      1  0.4744860000000  0.5423080000000  0.5399560000000 1.0
C      1  0.5583300000000  0.4650750000000  0.4658740000000 1.0
C      1  0.4565400000000  0.4808260000000  0.5731780000000 1.0
C      1  0.4283640000000  0.4801070000000  0.5002260000000 1.0
C      1  0.4469740000000  0.4721420000000  0.5345560000000 1.0
C      1  0.5362490000000  0.4938060000000  0.5651370000000 1.0
C      1  0.5437410000000  0.4535270000000  0.4437930000000 1.0
C      1  0.5753830000000  0.5085330000000  0.4809940000000 1.0
C      1  0.4696550000000  0.3938850000000  0.4763010000000 1.0
C      1  0.5724470000000  0.4894890000000  0.4600980000000 1.0
C      1  0.5645470000000  0.5172480000000  0.5349630000000 1.0
C      1  0.5162590000000  0.5438250000000  0.5666720000000 1.0
C      1  0.4378360000000  0.4861270000000  0.4681280000000 1.0
C      1  0.4799180000000  0.5216250000000  0.4544610000000 1.0
C      1  0.4607190000000  0.5181140000000  0.5239870000000 1.0
C      1  0.5026910000000  0.5919300000000  0.4624410000000 1.0
C      1  0.5359920000000  0.4285580000000  0.4873550000000 1.0
C      1  0.4863080000000  0.5620740000000  0.5244930000000 1.0
C      1  0.5138230000000  0.5672370000000  0.5264020000000 1.0
C      1  0.5609650000000  0.4843330000000  0.5374810000000 1.0
C      1  0.5702230000000  0.4977050000000  0.4328400000000 1.0
C      1  0.4881750000000  0.4114130000000  0.4823500000000 1.0
C      1  0.4473380000000  0.5561120000000  0.4920310000000 1.0
C      1  0.5339760000000  0.4998620000000  0.5081080000000 1.0
C      1  0.4894660000000  0.5053750000000  0.5369520000000 1.0
C      1  0.4755580000000  0.5283800000000  0.4869450000000 1.0
C      1  0.5506790000000  0.4530880000000  0.4903390000000 1.0
C      1  0.5412000000000  0.4687490000000  0.5146360000000 1.0
C      1  0.4414580000000  0.5446000000000  0.4675360000000 1.0
C      1  0.4573120000000  0.5150800000000  0.5742430000000 1.0
C      1  0.5326570000000  0.4629440000000  0.5531670000000 1.0
C      1  0.4589020000000  0.4896730000000  0.5098920000000 1.0
END
