TITL C-2847957-7266-295 -0.00394237382779241 125000 -761.667304672384 0 0 138 (C1) n - 1
REM
REM in /home/bkarasulu/work/CARBON/AIRSS/Generating-Clusters/AIREBO/with-SteepDescent/Only-C1/SD-CG-opt/Try1-1.4A-POS3A/HFTN-CG
REM
REM
REM
REM
REM
REM ./C.cell (11c1c37f851c82e70ff6c80c92926a4b)
REM
REM compiler GCC version 9.2.1 20190827 (Red Hat 9.2.1-1)
REM options -cpp -mtune=generic -march=x86-64 -g -O0 -fpre-include=/usr/include/finclude/math-vector-fortran.h
REM seed 1781218344 -531897638 1497779364 -1048600774 235185865 2096049025 -1011040811 -796632634 1307081534 808485833 1685080476 1615468109 748688353 609017269 482035387 2118926330 -1580728136 647084080 -1267433783 -1629182660 -372469344 697093166 362960324 -516825157 -166639901 -777100526 -678563522 530860844 -1688050165 1269093499 121192454 -199325376 395076906
REM
CELL 1.54180   50.00000   50.00000   50.00000   90.00000   90.00000   90.00000
LATT -1
SFAC C  
C      1  0.4881700000000  0.5876180000000  0.4506190000000 1.0
C      1  0.4514330000000  0.5463110000000  0.5077980000000 1.0
C      1  0.5060740000000  0.5364810000000  0.6002370000000 1.0
C      1  0.4627950000000  0.4317180000000  0.5097820000000 1.0
C      1  0.5068120000000  0.5345110000000  0.4058440000000 1.0
C      1  0.5328890000000  0.5952930000000  0.5526970000000 1.0
C      1  0.4567690000000  0.5167560000000  0.4232160000000 1.0
C      1  0.5822260000000  0.4779150000000  0.5058630000000 1.0
C      1  0.5898140000000  0.4418660000000  0.5078320000000 1.0
C      1  0.4431890000000  0.4267160000000  0.4370870000000 1.0
C      1  0.4666950000000  0.5351140000000  0.4795160000000 1.0
C      1  0.5512740000000  0.5283920000000  0.5097770000000 1.0
C      1  0.5451940000000  0.4160990000000  0.5123490000000 1.0
C      1  0.5366620000000  0.4790080000000  0.4719280000000 1.0
C      1  0.5150780000000  0.5196940000000  0.5332950000000 1.0
C      1  0.4696140000000  0.4379950000000  0.4287030000000 1.0
C      1  0.4813560000000  0.5737500000000  0.5344320000000 1.0
C      1  0.4264010000000  0.5160920000000  0.4634520000000 1.0
C      1  0.5323490000000  0.5486890000000  0.4901270000000 1.0
C      1  0.5422280000000  0.4438190000000  0.5708830000000 1.0
C      1  0.5025960000000  0.4411220000000  0.5283090000000 1.0
C      1  0.5339310000000  0.5007830000000  0.5143730000000 1.0
C      1  0.5865690000000  0.5310790000000  0.5282770000000 1.0
C      1  0.4696140000000  0.5952600000000  0.5115640000000 1.0
C      1  0.4261600000000  0.4514170000000  0.5397060000000 1.0
C      1  0.4112230000000  0.4680520000000  0.4634120000000 1.0
C      1  0.4055490000000  0.5558360000000  0.4947910000000 1.0
C      1  0.5493520000000  0.5245170000000  0.5729840000000 1.0
C      1  0.4622110000000  0.5062210000000  0.6018150000000 1.0
C      1  0.4801050000000  0.4628090000000  0.5419560000000 1.0
C      1  0.4741690000000  0.4987100000000  0.4002000000000 1.0
C      1  0.4971480000000  0.5575790000000  0.5778040000000 1.0
C      1  0.5003600000000  0.6014590000000  0.5128920000000 1.0
C      1  0.4532400000000  0.4764600000000  0.4632700000000 1.0
C      1  0.5096790000000  0.5019330000000  0.4905180000000 1.0
C      1  0.4122570000000  0.5217470000000  0.5363860000000 1.0
C      1  0.4282370000000  0.5655620000000  0.5078790000000 1.0
C      1  0.5319300000000  0.4587790000000  0.4979810000000 1.0
C      1  0.4134210000000  0.4690290000000  0.4918990000000 1.0
C      1  0.4520960000000  0.5044880000000  0.4824840000000 1.0
C      1  0.5149710000000  0.5507530000000  0.5192950000000 1.0
C      1  0.4827210000000  0.5432200000000  0.5207460000000 1.0
C      1  0.5635230000000  0.5086300000000  0.4728100000000 1.0
C      1  0.5085800000000  0.4801710000000  0.5730350000000 1.0
C      1  0.4526020000000  0.5773020000000  0.4646390000000 1.0
C      1  0.4334660000000  0.4280750000000  0.4985780000000 1.0
C      1  0.4508060000000  0.5991300000000  0.4833990000000 1.0
C      1  0.4760940000000  0.5112680000000  0.5303060000000 1.0
C      1  0.5905630000000  0.5292160000000  0.4680220000000 1.0
C      1  0.4935610000000  0.5754770000000  0.4268330000000 1.0
C      1  0.5160660000000  0.5402660000000  0.5577890000000 1.0
C      1  0.5335760000000  0.4913780000000  0.5876110000000 1.0
C      1  0.5306360000000  0.4829950000000  0.4094980000000 1.0
C      1  0.4544130000000  0.4323900000000  0.5402570000000 1.0
C      1  0.4862500000000  0.5233380000000  0.5604420000000 1.0
C      1  0.4971170000000  0.4374990000000  0.4406640000000 1.0
C      1  0.4113280000000  0.4929380000000  0.4497520000000 1.0
C      1  0.4366250000000  0.5918420000000  0.5099110000000 1.0
C      1  0.5843360000000  0.4889410000000  0.5546230000000 1.0
C      1  0.3897540000000  0.5318730000000  0.5426840000000 1.0
C      1  0.5290530000000  0.4378020000000  0.4717180000000 1.0
C      1  0.5815590000000  0.5207870000000  0.4989520000000 1.0
C      1  0.5376990000000  0.4107870000000  0.5396310000000 1.0
C      1  0.5355670000000  0.4107420000000  0.4876010000000 1.0
C      1  0.5037620000000  0.3883280000000  0.4298300000000 1.0
C      1  0.5079410000000  0.4041330000000  0.4758710000000 1.0
C      1  0.5634020000000  0.5479740000000  0.4762240000000 1.0
C      1  0.5900060000000  0.4725480000000  0.4568470000000 1.0
C      1  0.5578980000000  0.4887420000000  0.4956120000000 1.0
C      1  0.5159340000000  0.5091750000000  0.4352540000000 1.0
C      1  0.5041170000000  0.4768250000000  0.4716450000000 1.0
C      1  0.4737490000000  0.3782300000000  0.5048290000000 1.0
C      1  0.5545000000000  0.4674490000000  0.5907560000000 1.0
C      1  0.5080980000000  0.4704390000000  0.5148770000000 1.0
C      1  0.5302860000000  0.5226690000000  0.5968840000000 1.0
C      1  0.5529260000000  0.5782320000000  0.4689360000000 1.0
C      1  0.4062520000000  0.5334860000000  0.4794450000000 1.0
C      1  0.5416380000000  0.4461220000000  0.4457610000000 1.0
C      1  0.5168510000000  0.5256420000000  0.4721810000000 1.0
C      1  0.4789360000000  0.5735620000000  0.5654160000000 1.0
C      1  0.4834030000000  0.5090190000000  0.4376230000000 1.0
C      1  0.5011590000000  0.4255430000000  0.5014030000000 1.0
C      1  0.5974990000000  0.4628250000000  0.4821860000000 1.0
C      1  0.4873350000000  0.4673360000000  0.5949430000000 1.0
C      1  0.4392920000000  0.5334240000000  0.4410540000000 1.0
C      1  0.4402340000000  0.5062590000000  0.5589510000000 1.0
C      1  0.4813080000000  0.5226980000000  0.5890530000000 1.0
C      1  0.4270360000000  0.4495110000000  0.4497310000000 1.0
C      1  0.5721670000000  0.4583720000000  0.5634440000000 1.0
C      1  0.4460780000000  0.4929210000000  0.5856480000000 1.0
C      1  0.5890230000000  0.4630810000000  0.5344690000000 1.0
C      1  0.4810280000000  0.5657420000000  0.4756520000000 1.0
C      1  0.4523230000000  0.4720110000000  0.5430940000000 1.0
C      1  0.5524900000000  0.5418810000000  0.4137810000000 1.0
C      1  0.5651990000000  0.4637990000000  0.4466220000000 1.0
C      1  0.4163480000000  0.4468460000000  0.5093250000000 1.0
C      1  0.5389180000000  0.5280390000000  0.4484370000000 1.0
C      1  0.5389670000000  0.4791200000000  0.5382850000000 1.0
C      1  0.4916530000000  0.5327600000000  0.4565280000000 1.0
C      1  0.5030560000000  0.4076970000000  0.4491640000000 1.0
C      1  0.5475610000000  0.5511590000000  0.5561890000000 1.0
C      1  0.4278020000000  0.4905940000000  0.5014020000000 1.0
C      1  0.5350220000000  0.4453120000000  0.5376860000000 1.0
C      1  0.5396320000000  0.4857870000000  0.4421680000000 1.0
C      1  0.4769840000000  0.4444880000000  0.5907710000000 1.0
C      1  0.5585170000000  0.4444830000000  0.5131150000000 1.0
C      1  0.4515270000000  0.4651660000000  0.4320450000000 1.0
C      1  0.5490460000000  0.5590250000000  0.4411510000000 1.0
C      1  0.4459590000000  0.5271970000000  0.5328910000000 1.0
C      1  0.5953470000000  0.5001030000000  0.4506470000000 1.0
C      1  0.5625880000000  0.5526670000000  0.5294460000000 1.0
C      1  0.4279850000000  0.4921690000000  0.5305330000000 1.0
C      1  0.4815920000000  0.4837430000000  0.4528810000000 1.0
C      1  0.4146510000000  0.4920200000000  0.4222850000000 1.0
C      1  0.5003180000000  0.4901600000000  0.5414740000000 1.0
C      1  0.4800560000000  0.4594860000000  0.5001960000000 1.0
C      1  0.5100740000000  0.4475510000000  0.5687010000000 1.0
C      1  0.5486930000000  0.5116950000000  0.4127120000000 1.0
C      1  0.4448330000000  0.4875850000000  0.4130150000000 1.0
C      1  0.5117490000000  0.5730970000000  0.4792700000000 1.0
C      1  0.4784350000000  0.4934970000000  0.5010880000000 1.0
C      1  0.4625990000000  0.4450270000000  0.4674430000000 1.0
C      1  0.4958340000000  0.4447940000000  0.4738690000000 1.0
C      1  0.5216920000000  0.4542060000000  0.4255640000000 1.0
C      1  0.4959340000000  0.5475960000000  0.4269000000000 1.0
C      1  0.4799040000000  0.4343080000000  0.5604930000000 1.0
C      1  0.5540500000000  0.4938480000000  0.5607550000000 1.0
C      1  0.5978850000000  0.5151090000000  0.5474480000000 1.0
C      1  0.5474050000000  0.5799510000000  0.5666550000000 1.0
C      1  0.4267240000000  0.4732950000000  0.5657390000000 1.0
C      1  0.5039240000000  0.5025430000000  0.4040440000000 1.0
C      1  0.5639980000000  0.5705490000000  0.5004760000000 1.0
C      1  0.4592580000000  0.5883480000000  0.5773490000000 1.0
C      1  0.5137990000000  0.5985110000000  0.4891780000000 1.0
C      1  0.5135980000000  0.5818150000000  0.5333770000000 1.0
C      1  0.5677530000000  0.5137080000000  0.4394500000000 1.0
C      1  0.4777710000000  0.4033590000000  0.5032880000000 1.0
C      1  0.4409580000000  0.5601110000000  0.4458140000000 1.0
END
