TITL C-2847955-7945-624 -0.00623615036224382 125000 -670.989916749503 0 0 123 (C1) n - 1
REM
REM in /home/bkarasulu/work/CARBON/AIRSS/Generating-Clusters/AIREBO/with-SteepDescent/Only-C1/SD-CG-opt/Try1-1.4A-POS3A/HFTN-CG
REM
REM
REM
REM
REM
REM ./C.cell (11c1c37f851c82e70ff6c80c92926a4b)
REM
REM compiler GCC version 9.2.1 20190827 (Red Hat 9.2.1-1)
REM options -cpp -mtune=generic -march=x86-64 -g -O0 -fpre-include=/usr/include/finclude/math-vector-fortran.h
REM seed -1826257557 415389780 -688116063 626974674 1566252476 -925388737 549142587 -480556385 -2016048166 924399007 1156599134 -1892756350 1822034165 -356195692 456143918 1702612059 1011224779 -1819560402 -1632578740 -1341565390 1489000204 -1732590520 1056729617 524324710 -1698496805 496289661 -1914868001 -1155084509 2017612073 668843966 1578521352 455623070 310941634
REM
CELL 1.54180   50.00000   50.00000   50.00000   90.00000   90.00000   90.00000
LATT -1
SFAC C  
C      1  0.4401440000000  0.5110320000000  0.4838610000000 1.0
C      1  0.5501020000000  0.3916000000000  0.4987820000000 1.0
C      1  0.4532150000000  0.4662230000000  0.5487270000000 1.0
C      1  0.4532450000000  0.5367140000000  0.4720850000000 1.0
C      1  0.4206890000000  0.4610870000000  0.4439320000000 1.0
C      1  0.4743880000000  0.4181250000000  0.5648150000000 1.0
C      1  0.4419000000000  0.4352310000000  0.4756880000000 1.0
C      1  0.4735780000000  0.5421860000000  0.5093260000000 1.0
C      1  0.5213030000000  0.4715630000000  0.5407240000000 1.0
C      1  0.4391530000000  0.4457150000000  0.5292070000000 1.0
C      1  0.4350960000000  0.4373090000000  0.4477530000000 1.0
C      1  0.4947570000000  0.4030520000000  0.5451020000000 1.0
C      1  0.4918530000000  0.5496790000000  0.5374090000000 1.0
C      1  0.4902870000000  0.4546090000000  0.4950450000000 1.0
C      1  0.5691990000000  0.5505440000000  0.4618490000000 1.0
C      1  0.5153930000000  0.5776800000000  0.4685430000000 1.0
C      1  0.4686490000000  0.5734630000000  0.4319960000000 1.0
C      1  0.4505420000000  0.4788320000000  0.5794720000000 1.0
C      1  0.4370970000000  0.4639240000000  0.4874190000000 1.0
C      1  0.4817590000000  0.4165440000000  0.4522740000000 1.0
C      1  0.5426180000000  0.4185170000000  0.5170430000000 1.0
C      1  0.4952140000000  0.5162220000000  0.5420680000000 1.0
C      1  0.5224430000000  0.4910560000000  0.4373500000000 1.0
C      1  0.5393580000000  0.5525870000000  0.5421680000000 1.0
C      1  0.5717840000000  0.5296840000000  0.4199960000000 1.0
C      1  0.5163000000000  0.5293860000000  0.4588820000000 1.0
C      1  0.4038100000000  0.4876530000000  0.5180660000000 1.0
C      1  0.4867650000000  0.5165530000000  0.3795880000000 1.0
C      1  0.5236610000000  0.4540940000000  0.4731750000000 1.0
C      1  0.5660290000000  0.5242060000000  0.4479780000000 1.0
C      1  0.5988710000000  0.4983500000000  0.5570150000000 1.0
C      1  0.4641440000000  0.5315720000000  0.4430860000000 1.0
C      1  0.4776200000000  0.4988110000000  0.4796440000000 1.0
C      1  0.5427530000000  0.5751330000000  0.5184710000000 1.0
C      1  0.5132110000000  0.5487740000000  0.4345290000000 1.0
C      1  0.5178620000000  0.4382410000000  0.5660450000000 1.0
C      1  0.4614680000000  0.5174390000000  0.5379530000000 1.0
C      1  0.4005450000000  0.5063810000000  0.5400300000000 1.0
C      1  0.4362080000000  0.4857990000000  0.4613910000000 1.0
C      1  0.4499470000000  0.5654230000000  0.4761330000000 1.0
C      1  0.4493260000000  0.5711720000000  0.5333450000000 1.0
C      1  0.5485830000000  0.4747720000000  0.5608070000000 1.0
C      1  0.5462290000000  0.4795490000000  0.4727070000000 1.0
C      1  0.4974280000000  0.5604030000000  0.4996500000000 1.0
C      1  0.5611870000000  0.4507890000000  0.4495730000000 1.0
C      1  0.5904970000000  0.5018650000000  0.5001950000000 1.0
C      1  0.5204960000000  0.4949300000000  0.5160350000000 1.0
C      1  0.5748620000000  0.4635530000000  0.4732250000000 1.0
C      1  0.5038310000000  0.4357080000000  0.5379250000000 1.0
C      1  0.5303560000000  0.4470840000000  0.5189310000000 1.0
C      1  0.5617510000000  0.4324330000000  0.5385790000000 1.0
C      1  0.5739700000000  0.5554230000000  0.4885070000000 1.0
C      1  0.5469300000000  0.5036310000000  0.5728420000000 1.0
C      1  0.4664690000000  0.5935690000000  0.5271790000000 1.0
C      1  0.4668440000000  0.5804330000000  0.4595590000000 1.0
C      1  0.5451710000000  0.4436780000000  0.5611460000000 1.0
C      1  0.4724750000000  0.5082700000000  0.5071100000000 1.0
C      1  0.4614130000000  0.4788530000000  0.4396370000000 1.0
C      1  0.4849750000000  0.5469700000000  0.4231110000000 1.0
C      1  0.5663970000000  0.5063140000000  0.5441640000000 1.0
C      1  0.4021060000000  0.5063200000000  0.4951490000000 1.0
C      1  0.5285640000000  0.5722940000000  0.4424280000000 1.0
C      1  0.4714020000000  0.4218880000000  0.4822280000000 1.0
C      1  0.4341420000000  0.5153550000000  0.4446930000000 1.0
C      1  0.4920130000000  0.4647800000000  0.5248380000000 1.0
C      1  0.5643840000000  0.5461600000000  0.5725080000000 1.0
C      1  0.5648140000000  0.3697950000000  0.4949620000000 1.0
C      1  0.5442350000000  0.5320610000000  0.5018850000000 1.0
C      1  0.5216790000000  0.5472710000000  0.4838090000000 1.0
C      1  0.5180410000000  0.5366900000000  0.5889240000000 1.0
C      1  0.4393640000000  0.5052700000000  0.5142770000000 1.0
C      1  0.4423970000000  0.5543680000000  0.5060500000000 1.0
C      1  0.5301170000000  0.4621460000000  0.4407780000000 1.0
C      1  0.5693940000000  0.5384260000000  0.5400970000000 1.0
C      1  0.4158490000000  0.5365350000000  0.5025320000000 1.0
C      1  0.4519720000000  0.5032580000000  0.4182200000000 1.0
C      1  0.5112070000000  0.4803430000000  0.4908410000000 1.0
C      1  0.4608890000000  0.4331200000000  0.4335090000000 1.0
C      1  0.5227050000000  0.5271270000000  0.5268370000000 1.0
C      1  0.4983090000000  0.4816110000000  0.4593740000000 1.0
C      1  0.5641060000000  0.5777340000000  0.5028640000000 1.0
C      1  0.4833450000000  0.4508800000000  0.3840360000000 1.0
C      1  0.4927960000000  0.4961910000000  0.5839040000000 1.0
C      1  0.4796880000000  0.5183390000000  0.4088700000000 1.0
C      1  0.5443330000000  0.5286220000000  0.5838450000000 1.0
C      1  0.5111830000000  0.5747600000000  0.5249350000000 1.0
C      1  0.5763620000000  0.4578050000000  0.5219920000000 1.0
C      1  0.4146770000000  0.5305570000000  0.5359980000000 1.0
C      1  0.4613690000000  0.5305860000000  0.5756060000000 1.0
C      1  0.4854570000000  0.4549480000000  0.4422720000000 1.0
C      1  0.4700720000000  0.4327830000000  0.5350030000000 1.0
C      1  0.4709620000000  0.4838750000000  0.5307820000000 1.0
C      1  0.5082790000000  0.4288650000000  0.4431870000000 1.0
C      1  0.4892140000000  0.5434460000000  0.5707430000000 1.0
C      1  0.5254900000000  0.5766300000000  0.5619500000000 1.0
C      1  0.4539860000000  0.4222320000000  0.5093370000000 1.0
C      1  0.5673850000000  0.5574990000000  0.4154350000000 1.0
C      1  0.4431020000000  0.5415400000000  0.5490600000000 1.0
C      1  0.4647980000000  0.5029150000000  0.5836560000000 1.0
C      1  0.5220140000000  0.4058200000000  0.4950020000000 1.0
C      1  0.4135450000000  0.5261680000000  0.4700190000000 1.0
C      1  0.5048950000000  0.4276460000000  0.4837700000000 1.0
C      1  0.4876740000000  0.5200690000000  0.4608830000000 1.0
C      1  0.4893630000000  0.4954340000000  0.4296090000000 1.0
C      1  0.5038000000000  0.4937750000000  0.5593180000000 1.0
C      1  0.5087230000000  0.5969810000000  0.5474130000000 1.0
C      1  0.5412500000000  0.5085380000000  0.4556490000000 1.0
C      1  0.4677780000000  0.4499190000000  0.5742420000000 1.0
C      1  0.5110270000000  0.5655470000000  0.5827940000000 1.0
C      1  0.5776810000000  0.5309110000000  0.5079700000000 1.0
C      1  0.5375990000000  0.4297560000000  0.4389200000000 1.0
C      1  0.4897950000000  0.5897730000000  0.4737950000000 1.0
C      1  0.5571480000000  0.5689610000000  0.4406260000000 1.0
C      1  0.4775600000000  0.4492170000000  0.4086290000000 1.0
C      1  0.5781590000000  0.4745630000000  0.5473170000000 1.0
C      1  0.5881810000000  0.4744240000000  0.4961390000000 1.0
C      1  0.4822090000000  0.6067840000000  0.5471610000000 1.0
C      1  0.4674920000000  0.4698270000000  0.4818470000000 1.0
C      1  0.5495840000000  0.4699970000000  0.5050560000000 1.0
C      1  0.4817760000000  0.5904040000000  0.5030100000000 1.0
C      1  0.4202210000000  0.4654170000000  0.5134260000000 1.0
C      1  0.5517110000000  0.5019630000000  0.5161070000000 1.0
C      1  0.4984790000000  0.4426910000000  0.5850340000000 1.0
END
