TITL C-2847944-5688-91 0.00138709478498485 125000 -769.72588846659 0 0 141 (C1) n - 1
REM
REM in /home/bkarasulu/work/CARBON/AIRSS/Generating-Clusters/AIREBO/with-SteepDescent/Only-C1/SD-CG-opt/Try1-1.4A-POS3A/HFTN-CG
REM
REM
REM
REM
REM
REM ./C.cell (11c1c37f851c82e70ff6c80c92926a4b)
REM
REM compiler GCC version 9.2.1 20190827 (Red Hat 9.2.1-1)
REM options -cpp -mtune=generic -march=x86-64 -g -O0 -fpre-include=/usr/include/finclude/math-vector-fortran.h
REM seed -324944022 635504878 -444361526 -731419573 1875223409 -2025570661 -1235676450 -1399351002 -1452146108 1695892257 2108771672 843143085 -1147032270 1038206852 -883496523 2046008004 1547967928 -1231030448 1114483688 -77729812 -2119514269 -686256443 -1670126850 1507218817 2125632155 -645066674 -693030746 1950121013 888319337 1719112224 1092162864 2034649464 1185739338
REM
CELL 1.54180   50.00000   50.00000   50.00000   90.00000   90.00000   90.00000
LATT -1
SFAC C  
C      1  0.4994570000000  0.4760910000000  0.4811510000000 1.0
C      1  0.4103380000000  0.5416390000000  0.4858760000000 1.0
C      1  0.5623030000000  0.5273080000000  0.5079120000000 1.0
C      1  0.5029110000000  0.4737880000000  0.5566670000000 1.0
C      1  0.4200660000000  0.5111330000000  0.4923640000000 1.0
C      1  0.4556290000000  0.4886840000000  0.4625690000000 1.0
C      1  0.5390060000000  0.4648730000000  0.5926660000000 1.0
C      1  0.5581480000000  0.5411130000000  0.5355190000000 1.0
C      1  0.4869000000000  0.4228640000000  0.5068540000000 1.0
C      1  0.4915360000000  0.5908370000000  0.4957490000000 1.0
C      1  0.4894950000000  0.4706170000000  0.4132340000000 1.0
C      1  0.4532100000000  0.4133740000000  0.4877270000000 1.0
C      1  0.4842940000000  0.4018120000000  0.4801290000000 1.0
C      1  0.4204250000000  0.5220510000000  0.4425700000000 1.0
C      1  0.5443440000000  0.5847020000000  0.4832950000000 1.0
C      1  0.4649250000000  0.5455110000000  0.4678980000000 1.0
C      1  0.4935850000000  0.4917010000000  0.5230310000000 1.0
C      1  0.4456010000000  0.5536500000000  0.5449220000000 1.0
C      1  0.4255720000000  0.4995020000000  0.4628220000000 1.0
C      1  0.5670200000000  0.4109600000000  0.4899920000000 1.0
C      1  0.5355230000000  0.5208670000000  0.5859740000000 1.0
C      1  0.5484610000000  0.5366370000000  0.4783810000000 1.0
C      1  0.5344220000000  0.5214290000000  0.4511430000000 1.0
C      1  0.4721140000000  0.5099740000000  0.5893730000000 1.0
C      1  0.4924220000000  0.5434170000000  0.5775320000000 1.0
C      1  0.5336240000000  0.4318960000000  0.4839030000000 1.0
C      1  0.5860190000000  0.4793710000000  0.4493230000000 1.0
C      1  0.5324540000000  0.5662070000000  0.5696030000000 1.0
C      1  0.5610500000000  0.4341340000000  0.5140180000000 1.0
C      1  0.5197470000000  0.4974630000000  0.5732910000000 1.0
C      1  0.4154120000000  0.5641810000000  0.5002260000000 1.0
C      1  0.4055430000000  0.4779880000000  0.4755600000000 1.0
C      1  0.4442680000000  0.4859590000000  0.5637370000000 1.0
C      1  0.5070960000000  0.4917440000000  0.4009680000000 1.0
C      1  0.5104760000000  0.4734960000000  0.5956780000000 1.0
C      1  0.4487200000000  0.4679090000000  0.5092610000000 1.0
C      1  0.5817070000000  0.5502730000000  0.4954950000000 1.0
C      1  0.5611380000000  0.5685870000000  0.4584020000000 1.0
C      1  0.4114690000000  0.4625160000000  0.5316620000000 1.0
C      1  0.5455520000000  0.4344490000000  0.4388040000000 1.0
C      1  0.4850250000000  0.4474030000000  0.5621510000000 1.0
C      1  0.5303670000000  0.4711600000000  0.5403490000000 1.0
C      1  0.5327960000000  0.5794200000000  0.5148390000000 1.0
C      1  0.4682840000000  0.5355630000000  0.5271800000000 1.0
C      1  0.5589670000000  0.4527730000000  0.5408480000000 1.0
C      1  0.5579020000000  0.5718040000000  0.5302280000000 1.0
C      1  0.5878040000000  0.4444920000000  0.4957670000000 1.0
C      1  0.5216200000000  0.5522470000000  0.4887360000000 1.0
C      1  0.4308450000000  0.4594350000000  0.5546560000000 1.0
C      1  0.4206570000000  0.4858770000000  0.5137780000000 1.0
C      1  0.5464810000000  0.4710070000000  0.4185040000000 1.0
C      1  0.6004540000000  0.4692170000000  0.4851460000000 1.0
C      1  0.4674690000000  0.4676620000000  0.4830870000000 1.0
C      1  0.5867310000000  0.4372430000000  0.5444690000000 1.0
C      1  0.4603740000000  0.5386290000000  0.5878290000000 1.0
C      1  0.4940450000000  0.4186910000000  0.5562600000000 1.0
C      1  0.4361810000000  0.5636050000000  0.4647780000000 1.0
C      1  0.5005490000000  0.5715000000000  0.5221970000000 1.0
C      1  0.4238590000000  0.4372710000000  0.5221960000000 1.0
C      1  0.4970980000000  0.5911780000000  0.5497270000000 1.0
C      1  0.5135620000000  0.5110160000000  0.5426990000000 1.0
C      1  0.5612320000000  0.4414680000000  0.4748160000000 1.0
C      1  0.5571680000000  0.4737490000000  0.5748520000000 1.0
C      1  0.5113450000000  0.5222320000000  0.4261780000000 1.0
C      1  0.4729670000000  0.5873090000000  0.5643150000000 1.0
C      1  0.5357070000000  0.4197590000000  0.5315310000000 1.0
C      1  0.4383160000000  0.5375100000000  0.5670530000000 1.0
C      1  0.4359660000000  0.4407860000000  0.4931620000000 1.0
C      1  0.4656290000000  0.4575900000000  0.5368980000000 1.0
C      1  0.4661620000000  0.4970910000000  0.5101260000000 1.0
C      1  0.4662040000000  0.6014780000000  0.4941490000000 1.0
C      1  0.4642150000000  0.5462470000000  0.4338930000000 1.0
C      1  0.5192080000000  0.4203180000000  0.4486310000000 1.0
C      1  0.5135060000000  0.5874800000000  0.4719730000000 1.0
C      1  0.4136030000000  0.5458620000000  0.4564750000000 1.0
C      1  0.5283890000000  0.5413650000000  0.5466090000000 1.0
C      1  0.5188790000000  0.5187750000000  0.5099580000000 1.0
C      1  0.4817610000000  0.4991530000000  0.5625860000000 1.0
C      1  0.4598770000000  0.4986490000000  0.4242370000000 1.0
C      1  0.5998890000000  0.4325770000000  0.5232330000000 1.0
C      1  0.5352350000000  0.4928820000000  0.4951820000000 1.0
C      1  0.5422790000000  0.3998660000000  0.5057190000000 1.0
C      1  0.4464010000000  0.4309310000000  0.5444490000000 1.0
C      1  0.4947440000000  0.5462950000000  0.5456650000000 1.0
C      1  0.4462370000000  0.4701230000000  0.4286620000000 1.0
C      1  0.5823640000000  0.5110350000000  0.4589290000000 1.0
C      1  0.4869860000000  0.5044750000000  0.4340320000000 1.0
C      1  0.3864890000000  0.4894430000000  0.4931120000000 1.0
C      1  0.4931480000000  0.5193090000000  0.3976050000000 1.0
C      1  0.5109910000000  0.4465420000000  0.4686600000000 1.0
C      1  0.4746320000000  0.5695370000000  0.5868040000000 1.0
C      1  0.4676580000000  0.5300940000000  0.4010270000000 1.0
C      1  0.4752760000000  0.4679400000000  0.4440250000000 1.0
C      1  0.5574610000000  0.4644550000000  0.4500170000000 1.0
C      1  0.5768780000000  0.5275340000000  0.5548380000000 1.0
C      1  0.4740770000000  0.4186420000000  0.5341670000000 1.0
C      1  0.5158570000000  0.4367040000000  0.5103100000000 1.0
C      1  0.5214000000000  0.5444360000000  0.5858550000000 1.0
C      1  0.5705460000000  0.5755580000000  0.5027550000000 1.0
C      1  0.5528610000000  0.5173270000000  0.4159300000000 1.0
C      1  0.4431510000000  0.5247450000000  0.4239830000000 1.0
C      1  0.4848020000000  0.5640100000000  0.4227250000000 1.0
C      1  0.6109600000000  0.4666570000000  0.4573900000000 1.0
C      1  0.4843180000000  0.4631820000000  0.5902800000000 1.0
C      1  0.5437350000000  0.5452850000000  0.4285530000000 1.0
C      1  0.5584920000000  0.5062400000000  0.5700000000000 1.0
C      1  0.4185040000000  0.4531500000000  0.4692270000000 1.0
C      1  0.5775030000000  0.5104960000000  0.4262280000000 1.0
C      1  0.5632370000000  0.4963170000000  0.5094170000000 1.0
C      1  0.4938950000000  0.5598600000000  0.4705650000000 1.0
C      1  0.5916390000000  0.5007920000000  0.5483640000000 1.0
C      1  0.4621450000000  0.4808940000000  0.5919510000000 1.0
C      1  0.4263010000000  0.5128660000000  0.5598320000000 1.0
C      1  0.5078040000000  0.5296150000000  0.4684980000000 1.0
C      1  0.4149510000000  0.5137310000000  0.5317310000000 1.0
C      1  0.4939710000000  0.4388410000000  0.4244680000000 1.0
C      1  0.4852990000000  0.4212630000000  0.4522520000000 1.0
C      1  0.5065780000000  0.4805630000000  0.4481990000000 1.0
C      1  0.4805740000000  0.4410290000000  0.4793660000000 1.0
C      1  0.5364130000000  0.4953200000000  0.4080460000000 1.0
C      1  0.5157960000000  0.4693780000000  0.5102120000000 1.0
C      1  0.5111450000000  0.5547840000000  0.4266340000000 1.0
C      1  0.4538520000000  0.5533060000000  0.4990870000000 1.0
C      1  0.5216670000000  0.5913560000000  0.5638890000000 1.0
C      1  0.5793300000000  0.5416960000000  0.4650020000000 1.0
C      1  0.4421210000000  0.5829570000000  0.4920970000000 1.0
C      1  0.4606500000000  0.5054110000000  0.5409570000000 1.0
C      1  0.5193020000000  0.4097180000000  0.5548540000000 1.0
C      1  0.4271180000000  0.4537100000000  0.4417190000000 1.0
C      1  0.4660400000000  0.5141880000000  0.4813190000000 1.0
C      1  0.4969950000000  0.5074400000000  0.4865340000000 1.0
C      1  0.5287020000000  0.5656940000000  0.4518400000000 1.0
C      1  0.5366250000000  0.4890350000000  0.4616960000000 1.0
C      1  0.4943500000000  0.5420670000000  0.5063140000000 1.0
C      1  0.3858920000000  0.5049530000000  0.5163970000000 1.0
C      1  0.5164530000000  0.4029580000000  0.4888720000000 1.0
C      1  0.5214740000000  0.4560280000000  0.4313630000000 1.0
C      1  0.4499690000000  0.5811870000000  0.5489760000000 1.0
C      1  0.4381810000000  0.5294990000000  0.5125350000000 1.0
C      1  0.5605120000000  0.4868160000000  0.5421490000000 1.0
C      1  0.5849650000000  0.4925380000000  0.4873600000000 1.0
END
