TITL C-2848506-1665-35 0.000189462231625056 125000 -92.0480674204613 0 0 18 (C1) n - 1
REM
REM in /home/bkarasulu/work/CARBON/AIRSS/Generating-Clusters/AIREBO/with-SteepDescent/Only-C1/SD-CG-opt/Try1-1.4A-POS3A/HFTN-CG
REM
REM
REM
REM
REM
REM ./C.cell (11c1c37f851c82e70ff6c80c92926a4b)
REM
REM compiler GCC version 9.2.1 20190827 (Red Hat 9.2.1-1)
REM options -cpp -mtune=generic -march=x86-64 -g -O0 -fpre-include=/usr/include/finclude/math-vector-fortran.h
REM seed 1859057583 -885052361 647157719 -1385089870 -898323249 -1789618508 -426382397 -1850724837 -244599996 2059312775 -1662472410 763687483 -1325175948 -1832483481 1584811365 -2097471569 302574937 -357656923 400642264 1672536975 1877426699 -1496687045 1314303612 -1383234158 -398923196 1177428621 -464703350 1277730432 -1039068857 344472586 311437066 1446907655 -1434310220
REM
CELL 1.54180   50.00000   50.00000   50.00000   90.00000   90.00000   90.00000
LATT -1
SFAC C  
C      1  0.5069270000000  0.4386220000000  0.5746890000000 1.0
C      1  0.4247030000000  0.5294500000000  0.5223730000000 1.0
C      1  0.4974030000000  0.5143880000000  0.4441580000000 1.0
C      1  0.6059360000000  0.5151490000000  0.4354250000000 1.0
C      1  0.4858110000000  0.4854320000000  0.5473110000000 1.0
C      1  0.5288750000000  0.5139630000000  0.4545190000000 1.0
C      1  0.4738860000000  0.5048630000000  0.5228290000000 1.0
C      1  0.4870070000000  0.5391440000000  0.4366390000000 1.0
C      1  0.4480210000000  0.5191080000000  0.5232650000000 1.0
C      1  0.5545860000000  0.5134000000000  0.4475320000000 1.0
C      1  0.4969410000000  0.4584720000000  0.5616270000000 1.0
C      1  0.4458030000000  0.4624090000000  0.5828080000000 1.0
C      1  0.4639960000000  0.4733700000000  0.5681940000000 1.0
C      1  0.4876590000000  0.4919170000000  0.4308400000000 1.0
C      1  0.5069400000000  0.5050770000000  0.5308360000000 1.0
C      1  0.4987600000000  0.5095410000000  0.5001290000000 1.0
C      1  0.5064390000000  0.5102410000000  0.4759080000000 1.0
C      1  0.5803080000000  0.5154530000000  0.4409170000000 1.0
END
