TITL C-2848503-6230-236 0.00330539217435288 125000 -649.114567252478 0 0 120 (C1) n - 1
REM
REM in /home/bkarasulu/work/CARBON/AIRSS/Generating-Clusters/AIREBO/with-SteepDescent/Only-C1/SD-CG-opt/Try1-1.4A-POS3A/HFTN-CG
REM
REM
REM
REM
REM
REM ./C.cell (11c1c37f851c82e70ff6c80c92926a4b)
REM
REM compiler GCC version 9.2.1 20190827 (Red Hat 9.2.1-1)
REM options -cpp -mtune=generic -march=x86-64 -g -O0 -fpre-include=/usr/include/finclude/math-vector-fortran.h
REM seed -1405212621 509378271 -632705309 -1608412404 -184899728 -1721067864 1327777034 -347008223 -328394193 -288780466 -636480227 -1581379306 964936082 1853495116 1474083255 -194619627 -1398183928 -690189497 -1561677783 1865725671 -803340186 1855485465 -818693148 -2066081391 -1735802063 860176129 -1187167320 1041646417 1092813924 -29753122 -250439744 -521406687 -873561431
REM
CELL 1.54180   50.00000   50.00000   50.00000   90.00000   90.00000   90.00000
LATT -1
SFAC C  
C      1  0.5822780000000  0.4884610000000  0.5337150000000 1.0
C      1  0.5067870000000  0.5125460000000  0.4178150000000 1.0
C      1  0.5765930000000  0.4402670000000  0.5124630000000 1.0
C      1  0.5086000000000  0.4655060000000  0.5390090000000 1.0
C      1  0.4872300000000  0.4400830000000  0.5452710000000 1.0
C      1  0.5512560000000  0.4481460000000  0.5322240000000 1.0
C      1  0.5074430000000  0.4668640000000  0.5845960000000 1.0
C      1  0.4920530000000  0.4449200000000  0.5059730000000 1.0
C      1  0.5420830000000  0.4252200000000  0.4477360000000 1.0
C      1  0.5340870000000  0.5119280000000  0.4842250000000 1.0
C      1  0.5638700000000  0.5406410000000  0.4406810000000 1.0
C      1  0.4799700000000  0.5942170000000  0.4901980000000 1.0
C      1  0.5631490000000  0.4235500000000  0.4714520000000 1.0
C      1  0.5237010000000  0.5536120000000  0.4741950000000 1.0
C      1  0.5583620000000  0.4753270000000  0.5172410000000 1.0
C      1  0.5130050000000  0.5589320000000  0.4282350000000 1.0
C      1  0.5113080000000  0.4259570000000  0.5572690000000 1.0
C      1  0.5276430000000  0.4035990000000  0.5066010000000 1.0
C      1  0.4259480000000  0.5343620000000  0.5428770000000 1.0
C      1  0.5186470000000  0.5359630000000  0.5214540000000 1.0
C      1  0.4873930000000  0.4631910000000  0.4088250000000 1.0
C      1  0.4653210000000  0.4293490000000  0.4517140000000 1.0
C      1  0.4517850000000  0.4262900000000  0.4812780000000 1.0
C      1  0.4259690000000  0.4819630000000  0.5099210000000 1.0
C      1  0.4879530000000  0.4888000000000  0.4952390000000 1.0
C      1  0.5187180000000  0.5112650000000  0.3871070000000 1.0
C      1  0.5178630000000  0.4623620000000  0.4249180000000 1.0
C      1  0.4849730000000  0.4923460000000  0.5826500000000 1.0
C      1  0.5548160000000  0.5638640000000  0.5358060000000 1.0
C      1  0.4597490000000  0.4838750000000  0.5136200000000 1.0
C      1  0.5435510000000  0.4486670000000  0.4325820000000 1.0
C      1  0.4778960000000  0.5791790000000  0.5595780000000 1.0
C      1  0.5241680000000  0.5226660000000  0.5880040000000 1.0
C      1  0.5215720000000  0.5297430000000  0.5547590000000 1.0
C      1  0.4578100000000  0.5772980000000  0.5315930000000 1.0
C      1  0.5251080000000  0.4103440000000  0.5349400000000 1.0
C      1  0.4536060000000  0.4649950000000  0.4721870000000 1.0
C      1  0.5632010000000  0.5447390000000  0.4873420000000 1.0
C      1  0.4075240000000  0.4735860000000  0.4599420000000 1.0
C      1  0.5235330000000  0.4931630000000  0.5731760000000 1.0
C      1  0.5515790000000  0.5291160000000  0.5164860000000 1.0
C      1  0.5556980000000  0.5071680000000  0.5406400000000 1.0
C      1  0.5042010000000  0.5262270000000  0.4792940000000 1.0
C      1  0.5742960000000  0.4937220000000  0.4256220000000 1.0
C      1  0.4835500000000  0.5798890000000  0.4626660000000 1.0
C      1  0.5116740000000  0.4434480000000  0.4712130000000 1.0
C      1  0.4485990000000  0.4695670000000  0.5631010000000 1.0
C      1  0.5400780000000  0.5793240000000  0.4605440000000 1.0
C      1  0.4749900000000  0.5485460000000  0.5345170000000 1.0
C      1  0.5665330000000  0.5062530000000  0.4770540000000 1.0
C      1  0.4688100000000  0.4665960000000  0.5414810000000 1.0
C      1  0.5611390000000  0.5576420000000  0.4615170000000 1.0
C      1  0.4592480000000  0.5379410000000  0.4335800000000 1.0
C      1  0.4888790000000  0.5472020000000  0.4576220000000 1.0
C      1  0.5121490000000  0.5805410000000  0.4470360000000 1.0
C      1  0.5136830000000  0.4672560000000  0.4931380000000 1.0
C      1  0.5320360000000  0.4180410000000  0.4795330000000 1.0
C      1  0.4446050000000  0.4965230000000  0.4445130000000 1.0
C      1  0.5670790000000  0.4719110000000  0.4728170000000 1.0
C      1  0.4564670000000  0.5832550000000  0.5023300000000 1.0
C      1  0.4414170000000  0.4380130000000  0.5292050000000 1.0
C      1  0.5146230000000  0.5040370000000  0.5103730000000 1.0
C      1  0.5746620000000  0.4443330000000  0.4855210000000 1.0
C      1  0.5238710000000  0.4439470000000  0.5747370000000 1.0
C      1  0.4280830000000  0.4480110000000  0.4574820000000 1.0
C      1  0.4976040000000  0.5517440000000  0.5557040000000 1.0
C      1  0.5806380000000  0.4682530000000  0.5587580000000 1.0
C      1  0.4784270000000  0.5076730000000  0.5291950000000 1.0
C      1  0.4323890000000  0.5388690000000  0.4542030000000 1.0
C      1  0.5017970000000  0.5615920000000  0.4955220000000 1.0
C      1  0.4874690000000  0.5328510000000  0.5081630000000 1.0
C      1  0.4976000000000  0.4935570000000  0.5511190000000 1.0
C      1  0.5244940000000  0.5691210000000  0.5269970000000 1.0
C      1  0.5655930000000  0.4665710000000  0.4422030000000 1.0
C      1  0.4665330000000  0.4769550000000  0.4318940000000 1.0
C      1  0.5566760000000  0.5103190000000  0.4450190000000 1.0
C      1  0.4748460000000  0.4443940000000  0.4322080000000 1.0
C      1  0.5562350000000  0.4848780000000  0.5736920000000 1.0
C      1  0.5045640000000  0.5896610000000  0.5086050000000 1.0
C      1  0.4477600000000  0.5537200000000  0.5542090000000 1.0
C      1  0.4630080000000  0.5329720000000  0.4845450000000 1.0
C      1  0.6008730000000  0.5052710000000  0.5160890000000 1.0
C      1  0.3998620000000  0.5190950000000  0.5281210000000 1.0
C      1  0.4234020000000  0.4626260000000  0.4876590000000 1.0
C      1  0.5086270000000  0.4728880000000  0.4539710000000 1.0
C      1  0.5866680000000  0.5229520000000  0.4987780000000 1.0
C      1  0.5770650000000  0.5516170000000  0.5157620000000 1.0
C      1  0.5302830000000  0.4874300000000  0.5293500000000 1.0
C      1  0.4683920000000  0.5210540000000  0.5917050000000 1.0
C      1  0.5054350000000  0.5894520000000  0.5465140000000 1.0
C      1  0.4674140000000  0.5540590000000  0.5817110000000 1.0
C      1  0.4531750000000  0.4975810000000  0.5736630000000 1.0
C      1  0.5245540000000  0.5345440000000  0.4460250000000 1.0
C      1  0.4468590000000  0.5608510000000  0.4841410000000 1.0
C      1  0.4650480000000  0.5163540000000  0.4592010000000 1.0
C      1  0.5940930000000  0.4691320000000  0.4235670000000 1.0
C      1  0.4078140000000  0.5060630000000  0.5039380000000 1.0
C      1  0.4963220000000  0.5363760000000  0.5844830000000 1.0
C      1  0.5217920000000  0.4402460000000  0.5214880000000 1.0
C      1  0.4668700000000  0.4236250000000  0.5304090000000 1.0
C      1  0.4758410000000  0.4152570000000  0.5023040000000 1.0
C      1  0.5245710000000  0.5010580000000  0.4430500000000 1.0
C      1  0.4882390000000  0.4235230000000  0.4724030000000 1.0
C      1  0.4179320000000  0.4985980000000  0.4528190000000 1.0
C      1  0.5548210000000  0.5175650000000  0.5730500000000 1.0
C      1  0.5104080000000  0.4840180000000  0.4009690000000 1.0
C      1  0.4482450000000  0.5145450000000  0.5044640000000 1.0
C      1  0.4288500000000  0.4542040000000  0.5485970000000 1.0
C      1  0.4541440000000  0.5657690000000  0.4524370000000 1.0
C      1  0.5507670000000  0.5439210000000  0.5549530000000 1.0
C      1  0.4171000000000  0.5512230000000  0.4886060000000 1.0
C      1  0.4132500000000  0.5206890000000  0.4756340000000 1.0
C      1  0.4780220000000  0.4847220000000  0.4629510000000 1.0
C      1  0.5403030000000  0.4800920000000  0.4913280000000 1.0
C      1  0.4107010000000  0.4712100000000  0.5353760000000 1.0
C      1  0.4519360000000  0.5146680000000  0.5477540000000 1.0
C      1  0.4315490000000  0.5370040000000  0.5122540000000 1.0
C      1  0.4586260000000  0.4515470000000  0.5030140000000 1.0
C      1  0.5497900000000  0.4540310000000  0.5633410000000 1.0
C      1  0.4902570000000  0.5357170000000  0.4256470000000 1.0
END
