TITL C-2848508-1660-424 4.76806246726954e-05 125000 -753.615825073148 0 0 140 (C1) n - 1
REM
REM in /home/bkarasulu/work/CARBON/AIRSS/Generating-Clusters/AIREBO/with-SteepDescent/Only-C1/SD-CG-opt/Try1-1.4A-POS3A/HFTN-CG
REM
REM
REM
REM
REM
REM ./C.cell (11c1c37f851c82e70ff6c80c92926a4b)
REM
REM compiler GCC version 9.2.1 20190827 (Red Hat 9.2.1-1)
REM options -cpp -mtune=generic -march=x86-64 -g -O0 -fpre-include=/usr/include/finclude/math-vector-fortran.h
REM seed -179581244 -2798286 1326157027 379481317 -860135258 -340283453 -420124552 2088930168 1699186758 1888840114 -1295474873 609556074 1287597548 1201064000 1352418998 -1142558467 1407312088 313801633 635928076 783320981 1142856739 -1077876167 1605115802 1035696583 -889738800 -1631750661 1846879351 -641531534 -340221178 534039610 865899317 -2101942690 482129434
REM
CELL 1.54180   50.00000   50.00000   50.00000   90.00000   90.00000   90.00000
LATT -1
SFAC C  
C      1  0.5262860000000  0.4905210000000  0.5430620000000 1.0
C      1  0.4779850000000  0.5695260000000  0.5472520000000 1.0
C      1  0.5226650000000  0.5563450000000  0.5707190000000 1.0
C      1  0.4606390000000  0.4837040000000  0.5033140000000 1.0
C      1  0.4832110000000  0.5556070000000  0.4231760000000 1.0
C      1  0.4706080000000  0.4881820000000  0.5989990000000 1.0
C      1  0.5311220000000  0.5747400000000  0.4362730000000 1.0
C      1  0.5104330000000  0.4547120000000  0.4527860000000 1.0
C      1  0.4434950000000  0.4940180000000  0.4360490000000 1.0
C      1  0.4714700000000  0.5567730000000  0.5168590000000 1.0
C      1  0.4299840000000  0.5559330000000  0.4741910000000 1.0
C      1  0.4482150000000  0.4096180000000  0.5161410000000 1.0
C      1  0.5610810000000  0.5711300000000  0.5122060000000 1.0
C      1  0.4788460000000  0.5353870000000  0.5498470000000 1.0
C      1  0.5571940000000  0.4518300000000  0.4474790000000 1.0
C      1  0.5942010000000  0.4591260000000  0.4819430000000 1.0
C      1  0.5122610000000  0.5656120000000  0.4970290000000 1.0
C      1  0.5625820000000  0.4738210000000  0.4294770000000 1.0
C      1  0.5700090000000  0.4373660000000  0.5237840000000 1.0
C      1  0.4843340000000  0.5253300000000  0.5810420000000 1.0
C      1  0.5320100000000  0.5427620000000  0.5999070000000 1.0
C      1  0.5074340000000  0.4671710000000  0.5270810000000 1.0
C      1  0.4535400000000  0.5136960000000  0.5717640000000 1.0
C      1  0.5048580000000  0.5784380000000  0.5639310000000 1.0
C      1  0.5396120000000  0.5952800000000  0.4621160000000 1.0
C      1  0.3982970000000  0.4834600000000  0.4670390000000 1.0
C      1  0.4560990000000  0.4850580000000  0.4057640000000 1.0
C      1  0.4532020000000  0.4558070000000  0.4196630000000 1.0
C      1  0.4415060000000  0.4483630000000  0.5652030000000 1.0
C      1  0.5629100000000  0.5266540000000  0.5357880000000 1.0
C      1  0.5271240000000  0.4321900000000  0.5769230000000 1.0
C      1  0.4545130000000  0.5647490000000  0.4392540000000 1.0
C      1  0.4623540000000  0.4037140000000  0.4856760000000 1.0
C      1  0.4734240000000  0.4464490000000  0.5250340000000 1.0
C      1  0.4707200000000  0.4716540000000  0.4728150000000 1.0
C      1  0.5125370000000  0.5614540000000  0.4151180000000 1.0
C      1  0.5820880000000  0.5024920000000  0.4954920000000 1.0
C      1  0.4925980000000  0.4457810000000  0.4757760000000 1.0
C      1  0.4933040000000  0.5939990000000  0.5291340000000 1.0
C      1  0.5817290000000  0.5470280000000  0.4540290000000 1.0
C      1  0.5016980000000  0.4623250000000  0.5731270000000 1.0
C      1  0.4767290000000  0.4341620000000  0.4312390000000 1.0
C      1  0.5320290000000  0.4604510000000  0.5578650000000 1.0
C      1  0.4898350000000  0.4649550000000  0.4303560000000 1.0
C      1  0.4912590000000  0.5184820000000  0.4436420000000 1.0
C      1  0.4965110000000  0.4787150000000  0.5967810000000 1.0
C      1  0.4472460000000  0.5174500000000  0.4606380000000 1.0
C      1  0.4310010000000  0.4829610000000  0.4723210000000 1.0
C      1  0.4546500000000  0.4381430000000  0.5033260000000 1.0
C      1  0.5654170000000  0.5749760000000  0.5651270000000 1.0
C      1  0.4930730000000  0.5888810000000  0.5022680000000 1.0
C      1  0.5502040000000  0.5654040000000  0.5862270000000 1.0
C      1  0.4611050000000  0.4206680000000  0.4562120000000 1.0
C      1  0.4757760000000  0.4892820000000  0.4441760000000 1.0
C      1  0.4373710000000  0.4636500000000  0.4938260000000 1.0
C      1  0.4512360000000  0.4799560000000  0.5755890000000 1.0
C      1  0.5320830000000  0.5021000000000  0.4749700000000 1.0
C      1  0.5562930000000  0.4872890000000  0.4898760000000 1.0
C      1  0.5859970000000  0.5280340000000  0.4769090000000 1.0
C      1  0.4828510000000  0.5247430000000  0.5177900000000 1.0
C      1  0.4676650000000  0.5152790000000  0.6089200000000 1.0
C      1  0.4682450000000  0.4042210000000  0.5408470000000 1.0
C      1  0.4032150000000  0.4830210000000  0.5006980000000 1.0
C      1  0.5165150000000  0.3916590000000  0.5128170000000 1.0
C      1  0.4923680000000  0.5425770000000  0.4818730000000 1.0
C      1  0.4407500000000  0.5153310000000  0.4096920000000 1.0
C      1  0.6088110000000  0.4806320000000  0.4727900000000 1.0
C      1  0.4652070000000  0.5258460000000  0.4887120000000 1.0
C      1  0.5621290000000  0.4563700000000  0.4782850000000 1.0
C      1  0.4156650000000  0.5123550000000  0.4721700000000 1.0
C      1  0.4590010000000  0.4789020000000  0.5429690000000 1.0
C      1  0.5240860000000  0.5432020000000  0.3970430000000 1.0
C      1  0.5216890000000  0.5935410000000  0.5422400000000 1.0
C      1  0.5335620000000  0.5421010000000  0.5418240000000 1.0
C      1  0.4098560000000  0.4931610000000  0.5524530000000 1.0
C      1  0.5318390000000  0.5121370000000  0.4073250000000 1.0
C      1  0.5190190000000  0.4629580000000  0.4135740000000 1.0
C      1  0.4489720000000  0.5237760000000  0.5408630000000 1.0
C      1  0.5138740000000  0.5204120000000  0.5855750000000 1.0
C      1  0.4910740000000  0.4126360000000  0.4809460000000 1.0
C      1  0.5165990000000  0.5401970000000  0.4502480000000 1.0
C      1  0.4567570000000  0.5755210000000  0.4714280000000 1.0
C      1  0.5175500000000  0.4957920000000  0.6019990000000 1.0
C      1  0.4790190000000  0.4556170000000  0.5542270000000 1.0
C      1  0.5395990000000  0.5781190000000  0.4895700000000 1.0
C      1  0.5668330000000  0.5371490000000  0.4318840000000 1.0
C      1  0.5062770000000  0.5718010000000  0.4574940000000 1.0
C      1  0.4795690000000  0.5075290000000  0.4042150000000 1.0
C      1  0.5579810000000  0.5677720000000  0.4559230000000 1.0
C      1  0.4772320000000  0.5448410000000  0.4548640000000 1.0
C      1  0.5061110000000  0.5001420000000  0.4205750000000 1.0
C      1  0.5207130000000  0.4718070000000  0.4974930000000 1.0
C      1  0.4171960000000  0.5145710000000  0.5356250000000 1.0
C      1  0.4215680000000  0.4696470000000  0.4450720000000 1.0
C      1  0.4495980000000  0.4526080000000  0.4541160000000 1.0
C      1  0.4667790000000  0.4257020000000  0.5620790000000 1.0
C      1  0.5515860000000  0.5476500000000  0.4822310000000 1.0
C      1  0.5018060000000  0.4846270000000  0.4775380000000 1.0
C      1  0.5533950000000  0.4817120000000  0.5736240000000 1.0
C      1  0.5454920000000  0.4776780000000  0.5196270000000 1.0
C      1  0.5401590000000  0.4806810000000  0.4132950000000 1.0
C      1  0.5308060000000  0.4418800000000  0.5294030000000 1.0
C      1  0.5245150000000  0.5308540000000  0.4819760000000 1.0
C      1  0.4322460000000  0.5319780000000  0.4944460000000 1.0
C      1  0.5197640000000  0.4203720000000  0.4976010000000 1.0
C      1  0.4954580000000  0.4294870000000  0.5793640000000 1.0
C      1  0.5442240000000  0.4865990000000  0.6000820000000 1.0
C      1  0.5163840000000  0.4879570000000  0.4487680000000 1.0
C      1  0.6239650000000  0.4901540000000  0.5252270000000 1.0
C      1  0.6036710000000  0.4955530000000  0.5095110000000 1.0
C      1  0.5682330000000  0.4625800000000  0.5335280000000 1.0
C      1  0.5834960000000  0.4918120000000  0.4351590000000 1.0
C      1  0.5683350000000  0.5055670000000  0.5545420000000 1.0
C      1  0.5216870000000  0.4132050000000  0.5368310000000 1.0
C      1  0.4288160000000  0.5436290000000  0.5236220000000 1.0
C      1  0.4472540000000  0.5682930000000  0.5567410000000 1.0
C      1  0.4430370000000  0.5460570000000  0.5733340000000 1.0
C      1  0.4974740000000  0.4413350000000  0.5073410000000 1.0
C      1  0.5406270000000  0.5314700000000  0.4312460000000 1.0
C      1  0.4261160000000  0.4707800000000  0.5459670000000 1.0
C      1  0.4323760000000  0.5734570000000  0.5309630000000 1.0
C      1  0.5735020000000  0.5399370000000  0.5063010000000 1.0
C      1  0.4326760000000  0.4328280000000  0.5358380000000 1.0
C      1  0.5259020000000  0.5146800000000  0.5582420000000 1.0
C      1  0.4497290000000  0.5718460000000  0.5044910000000 1.0
C      1  0.4747610000000  0.5344970000000  0.4011060000000 1.0
C      1  0.4157620000000  0.4572790000000  0.5192870000000 1.0
C      1  0.4939280000000  0.3952510000000  0.5354730000000 1.0
C      1  0.5335780000000  0.4385530000000  0.4416150000000 1.0
C      1  0.4322600000000  0.4344970000000  0.4770930000000 1.0
C      1  0.4459090000000  0.5337440000000  0.4330580000000 1.0
C      1  0.5147440000000  0.5363080000000  0.5140970000000 1.0
C      1  0.5839030000000  0.4805090000000  0.5480300000000 1.0
C      1  0.5476640000000  0.4352300000000  0.5005530000000 1.0
C      1  0.5961430000000  0.5014270000000  0.4583080000000 1.0
C      1  0.5089760000000  0.4317280000000  0.4202710000000 1.0
C      1  0.4861330000000  0.5843980000000  0.4734850000000 1.0
C      1  0.4314490000000  0.5004840000000  0.5081570000000 1.0
C      1  0.4832440000000  0.4912140000000  0.5239600000000 1.0
C      1  0.5470460000000  0.5731860000000  0.5388460000000 1.0
END
