TITL C-2847953-8112-590 0.000246405246989755 125000 -270.006384241121 0 0 52 (C1) n - 1
REM
REM in /home/bkarasulu/work/CARBON/AIRSS/Generating-Clusters/AIREBO/with-SteepDescent/Only-C1/SD-CG-opt/Try1-1.4A-POS3A/HFTN-CG
REM
REM
REM
REM
REM
REM ./C.cell (11c1c37f851c82e70ff6c80c92926a4b)
REM
REM compiler GCC version 9.2.1 20190827 (Red Hat 9.2.1-1)
REM options -cpp -mtune=generic -march=x86-64 -g -O0 -fpre-include=/usr/include/finclude/math-vector-fortran.h
REM seed 369908982 913289523 -2109883747 -1718275461 645964581 -527114809 1769197419 112397131 -1683295337 -523743539 2014750228 -1416416354 523745402 765459317 461114101 -835930529 1876817381 1455590047 -958178577 -747145233 -2086934856 -417883500 -66095870 254110917 -520279567 -868484816 -1364775407 -1086484260 872482629 1311117526 59465177 -506648792 -622077297
REM
CELL 1.54180   50.00000   50.00000   50.00000   90.00000   90.00000   90.00000
LATT -1
SFAC C  
C      1  0.4470690000000  0.4781940000000  0.4845760000000 1.0
C      1  0.5577260000000  0.5395250000000  0.5086780000000 1.0
C      1  0.4755210000000  0.5041540000000  0.5641700000000 1.0
C      1  0.5297090000000  0.5484200000000  0.5417490000000 1.0
C      1  0.5003860000000  0.5573700000000  0.5339320000000 1.0
C      1  0.4978780000000  0.5460970000000  0.5655240000000 1.0
C      1  0.5583640000000  0.4964810000000  0.4862610000000 1.0
C      1  0.4791900000000  0.4292060000000  0.4997310000000 1.0
C      1  0.5433810000000  0.5262090000000  0.4793340000000 1.0
C      1  0.4860640000000  0.5044820000000  0.4809030000000 1.0
C      1  0.5279310000000  0.5140010000000  0.4516080000000 1.0
C      1  0.4996100000000  0.4205660000000  0.4753570000000 1.0
C      1  0.5195490000000  0.5141300000000  0.5002510000000 1.0
C      1  0.4764020000000  0.5159140000000  0.4374350000000 1.0
C      1  0.4952420000000  0.4313770000000  0.4505120000000 1.0
C      1  0.4391690000000  0.4677800000000  0.4555740000000 1.0
C      1  0.4480010000000  0.5269350000000  0.5109710000000 1.0
C      1  0.4601240000000  0.5296970000000  0.4508950000000 1.0
C      1  0.4583460000000  0.4652550000000  0.4388730000000 1.0
C      1  0.4758070000000  0.4766700000000  0.5245280000000 1.0
C      1  0.4995640000000  0.5188220000000  0.5687530000000 1.0
C      1  0.5007250000000  0.4621430000000  0.5065030000000 1.0
C      1  0.5516630000000  0.5665380000000  0.5109430000000 1.0
C      1  0.5257290000000  0.5018440000000  0.5551240000000 1.0
C      1  0.5409070000000  0.4729760000000  0.4745690000000 1.0
C      1  0.5611960000000  0.4966790000000  0.5148510000000 1.0
C      1  0.4505220000000  0.4373870000000  0.5112890000000 1.0
C      1  0.4538420000000  0.5075970000000  0.4836210000000 1.0
C      1  0.5192450000000  0.4846740000000  0.4957210000000 1.0
C      1  0.5225470000000  0.4717660000000  0.4500750000000 1.0
C      1  0.4989390000000  0.4962240000000  0.4511790000000 1.0
C      1  0.5024350000000  0.5317240000000  0.4767030000000 1.0
C      1  0.4628540000000  0.5134630000000  0.5386350000000 1.0
C      1  0.4582470000000  0.5412620000000  0.4817460000000 1.0
C      1  0.5019320000000  0.5705760000000  0.5056270000000 1.0
C      1  0.5327430000000  0.5570440000000  0.4711470000000 1.0
C      1  0.5285630000000  0.5731730000000  0.4949030000000 1.0
C      1  0.5179330000000  0.4360120000000  0.4931830000000 1.0
C      1  0.5129890000000  0.4520950000000  0.5365830000000 1.0
C      1  0.4496670000000  0.4653040000000  0.5131170000000 1.0
C      1  0.4879470000000  0.4640340000000  0.4522030000000 1.0
C      1  0.5115980000000  0.5521570000000  0.4511140000000 1.0
C      1  0.4821340000000  0.5062300000000  0.5117130000000 1.0
C      1  0.4829560000000  0.4784410000000  0.5540500000000 1.0
C      1  0.4757870000000  0.4590280000000  0.4835980000000 1.0
C      1  0.5113640000000  0.4734910000000  0.5549500000000 1.0
C      1  0.5388400000000  0.5187490000000  0.5278690000000 1.0
C      1  0.5373040000000  0.5316080000000  0.5656260000000 1.0
C      1  0.4981680000000  0.4279790000000  0.5269790000000 1.0
C      1  0.4776550000000  0.5385180000000  0.5229320000000 1.0
C      1  0.5432230000000  0.4440680000000  0.4859640000000 1.0
C      1  0.4853120000000  0.5559290000000  0.4878670000000 1.0
END
