TITL C-2847950-6905-538 0.000972850994079761 125000 -1066.7936250084 0 0 196 (C1) n - 1
REM
REM in /home/bkarasulu/work/CARBON/AIRSS/Generating-Clusters/AIREBO/with-SteepDescent/Only-C1/SD-CG-opt/Try1-1.4A-POS3A/HFTN-CG
REM
REM
REM
REM
REM
REM ./C.cell (11c1c37f851c82e70ff6c80c92926a4b)
REM
REM compiler GCC version 9.2.1 20190827 (Red Hat 9.2.1-1)
REM options -cpp -mtune=generic -march=x86-64 -g -O0 -fpre-include=/usr/include/finclude/math-vector-fortran.h
REM seed 1876184612 580707623 -702040403 381615452 -423904084 1310730117 -1005216004 1829014680 845694 2135285177 -1096940016 -561038196 65177948 1071794081 420940191 -1886382426 682234481 -1905165319 -1701671769 -1680635422 1790531379 2047084907 1155250458 1432814425 -1255801160 675386783 -1549017091 409962013 -1054955783 940245472 222770566 2008689634 -1312330274
REM
CELL 1.54180   50.00000   50.00000   50.00000   90.00000   90.00000   90.00000
LATT -1
SFAC C  
C      1  0.5233130000000  0.6105330000000  0.5388920000000 1.0
C      1  0.5383660000000  0.5280150000000  0.4943660000000 1.0
C      1  0.4762300000000  0.5130660000000  0.3930240000000 1.0
C      1  0.4458840000000  0.4705520000000  0.3996580000000 1.0
C      1  0.4443750000000  0.4631630000000  0.4480840000000 1.0
C      1  0.6083180000000  0.5551540000000  0.4498810000000 1.0
C      1  0.5971210000000  0.5722890000000  0.4761070000000 1.0
C      1  0.4537300000000  0.5569760000000  0.4193450000000 1.0
C      1  0.4373180000000  0.4235680000000  0.4175540000000 1.0
C      1  0.4395040000000  0.4828590000000  0.4984430000000 1.0
C      1  0.4132190000000  0.4322840000000  0.4570160000000 1.0
C      1  0.5044930000000  0.5846150000000  0.4717670000000 1.0
C      1  0.4250490000000  0.4854710000000  0.4613880000000 1.0
C      1  0.6119520000000  0.5277220000000  0.4566380000000 1.0
C      1  0.4523860000000  0.5667340000000  0.5075330000000 1.0
C      1  0.4403370000000  0.5865410000000  0.4601050000000 1.0
C      1  0.5247610000000  0.4698580000000  0.3944380000000 1.0
C      1  0.5632980000000  0.6037820000000  0.4939580000000 1.0
C      1  0.4802080000000  0.4260360000000  0.4438890000000 1.0
C      1  0.4847540000000  0.4183050000000  0.5072780000000 1.0
C      1  0.3884840000000  0.4914270000000  0.5011280000000 1.0
C      1  0.5030950000000  0.5009130000000  0.4661450000000 1.0
C      1  0.4152590000000  0.5813270000000  0.5052780000000 1.0
C      1  0.4332770000000  0.5400220000000  0.5440620000000 1.0
C      1  0.5846220000000  0.4491750000000  0.5043000000000 1.0
C      1  0.4715920000000  0.4840210000000  0.4872550000000 1.0
C      1  0.4202520000000  0.5116870000000  0.5689230000000 1.0
C      1  0.5201480000000  0.4786310000000  0.5655250000000 1.0
C      1  0.5675110000000  0.4618650000000  0.4502860000000 1.0
C      1  0.5912600000000  0.5100650000000  0.4432650000000 1.0
C      1  0.4926300000000  0.4436690000000  0.4234660000000 1.0
C      1  0.5246580000000  0.4438020000000  0.4162890000000 1.0
C      1  0.4272460000000  0.5031600000000  0.5305030000000 1.0
C      1  0.4742270000000  0.4826690000000  0.4005370000000 1.0
C      1  0.6052520000000  0.4824960000000  0.4343950000000 1.0
C      1  0.5202120000000  0.4896630000000  0.4389880000000 1.0
C      1  0.5699440000000  0.5291250000000  0.4311780000000 1.0
C      1  0.5541220000000  0.5548060000000  0.5472250000000 1.0
C      1  0.5477590000000  0.4354620000000  0.4795950000000 1.0
C      1  0.4652360000000  0.5341210000000  0.5473230000000 1.0
C      1  0.5783000000000  0.4315660000000  0.4542420000000 1.0
C      1  0.4714850000000  0.5087880000000  0.4559290000000 1.0
C      1  0.4873970000000  0.5444640000000  0.4498830000000 1.0
C      1  0.5455280000000  0.5614510000000  0.5952570000000 1.0
C      1  0.5380340000000  0.4233920000000  0.5832730000000 1.0
C      1  0.4599480000000  0.5925070000000  0.4866840000000 1.0
C      1  0.5894230000000  0.5339560000000  0.5155260000000 1.0
C      1  0.4115750000000  0.4799830000000  0.5177200000000 1.0
C      1  0.4980840000000  0.5363210000000  0.4981090000000 1.0
C      1  0.4362880000000  0.5374920000000  0.5747020000000 1.0
C      1  0.5633990000000  0.4231830000000  0.5099120000000 1.0
C      1  0.4639460000000  0.4812720000000  0.5628820000000 1.0
C      1  0.5112710000000  0.3887670000000  0.4598760000000 1.0
C      1  0.5358470000000  0.5496610000000  0.4325100000000 1.0
C      1  0.4984000000000  0.4631210000000  0.4863350000000 1.0
C      1  0.5858490000000  0.5667900000000  0.5194920000000 1.0
C      1  0.5055950000000  0.5567890000000  0.5222790000000 1.0
C      1  0.4907650000000  0.4753920000000  0.4296650000000 1.0
C      1  0.4001890000000  0.5165870000000  0.4576900000000 1.0
C      1  0.5621450000000  0.4240120000000  0.5676810000000 1.0
C      1  0.4766400000000  0.5414040000000  0.6014120000000 1.0
C      1  0.5477130000000  0.4801790000000  0.4709910000000 1.0
C      1  0.4388430000000  0.4529550000000  0.4188390000000 1.0
C      1  0.4673820000000  0.4358580000000  0.4877850000000 1.0
C      1  0.5106650000000  0.6229600000000  0.5139020000000 1.0
C      1  0.4802880000000  0.3965930000000  0.5484940000000 1.0
C      1  0.4760090000000  0.5158490000000  0.5244120000000 1.0
C      1  0.4478180000000  0.5095200000000  0.4315200000000 1.0
C      1  0.5285200000000  0.4000410000000  0.5362370000000 1.0
C      1  0.3907010000000  0.4500920000000  0.4921600000000 1.0
C      1  0.4727890000000  0.5306430000000  0.4224550000000 1.0
C      1  0.5711740000000  0.5088290000000  0.5646690000000 1.0
C      1  0.4324540000000  0.4592560000000  0.5518460000000 1.0
C      1  0.5283950000000  0.5137950000000  0.5958470000000 1.0
C      1  0.5264650000000  0.5432820000000  0.6035670000000 1.0
C      1  0.4764810000000  0.5133350000000  0.5982670000000 1.0
C      1  0.3971280000000  0.5401210000000  0.4739620000000 1.0
C      1  0.5584490000000  0.4999010000000  0.5908460000000 1.0
C      1  0.4639230000000  0.5802120000000  0.4363510000000 1.0
C      1  0.5552580000000  0.4599430000000  0.4967840000000 1.0
C      1  0.5939240000000  0.4772010000000  0.4658390000000 1.0
C      1  0.5349430000000  0.4759380000000  0.5178650000000 1.0
C      1  0.5215920000000  0.4150310000000  0.4776970000000 1.0
C      1  0.5582740000000  0.4706970000000  0.5737070000000 1.0
C      1  0.5084200000000  0.5160770000000  0.3901740000000 1.0
C      1  0.4173120000000  0.5674260000000  0.4763080000000 1.0
C      1  0.5141360000000  0.6139930000000  0.4576220000000 1.0
C      1  0.4720850000000  0.5172500000000  0.4946080000000 1.0
C      1  0.5241500000000  0.4531010000000  0.5848820000000 1.0
C      1  0.5515910000000  0.4250030000000  0.5379330000000 1.0
C      1  0.5761000000000  0.5590490000000  0.4447860000000 1.0
C      1  0.4959300000000  0.4594030000000  0.3935430000000 1.0
C      1  0.4709650000000  0.4769360000000  0.4539980000000 1.0
C      1  0.4333950000000  0.5858470000000  0.5282730000000 1.0
C      1  0.4739270000000  0.4763730000000  0.5203020000000 1.0
C      1  0.5352600000000  0.6082380000000  0.5008280000000 1.0
C      1  0.5703730000000  0.4814350000000  0.5355400000000 1.0
C      1  0.5004900000000  0.4317790000000  0.5854890000000 1.0
C      1  0.4742480000000  0.5638190000000  0.5334260000000 1.0
C      1  0.5018190000000  0.5131090000000  0.4226060000000 1.0
C      1  0.5085940000000  0.4667130000000  0.5373080000000 1.0
C      1  0.4399890000000  0.4749690000000  0.6031620000000 1.0
C      1  0.5709830000000  0.5183830000000  0.4938020000000 1.0
C      1  0.6124080000000  0.5233540000000  0.4846680000000 1.0
C      1  0.5114390000000  0.4270590000000  0.5394800000000 1.0
C      1  0.3895560000000  0.4551850000000  0.4585620000000 1.0
C      1  0.5459160000000  0.4003380000000  0.4963650000000 1.0
C      1  0.5504160000000  0.4583970000000  0.5428930000000 1.0
C      1  0.5604840000000  0.5506340000000  0.4090950000000 1.0
C      1  0.5446560000000  0.4684090000000  0.4285810000000 1.0
C      1  0.4283580000000  0.5447070000000  0.5145990000000 1.0
C      1  0.4943700000000  0.5864740000000  0.4266660000000 1.0
C      1  0.5330090000000  0.4141270000000  0.4191600000000 1.0
C      1  0.3995060000000  0.5384260000000  0.5033560000000 1.0
C      1  0.5374730000000  0.5490300000000  0.5182220000000 1.0
C      1  0.5359450000000  0.5859140000000  0.4588880000000 1.0
C      1  0.4194900000000  0.5179450000000  0.4373610000000 1.0
C      1  0.4324560000000  0.5160190000000  0.5010560000000 1.0
C      1  0.5576460000000  0.4764880000000  0.3978960000000 1.0
C      1  0.4436400000000  0.4116160000000  0.5497920000000 1.0
C      1  0.5148080000000  0.3825930000000  0.5138260000000 1.0
C      1  0.5366120000000  0.4017500000000  0.4431280000000 1.0
C      1  0.3927410000000  0.4868170000000  0.4708130000000 1.0
C      1  0.4682650000000  0.3938110000000  0.4944350000000 1.0
C      1  0.4849600000000  0.4890560000000  0.6105130000000 1.0
C      1  0.4540830000000  0.4969530000000  0.5378880000000 1.0
C      1  0.4001560000000  0.5141150000000  0.5459780000000 1.0
C      1  0.4665010000000  0.4672100000000  0.6057240000000 1.0
C      1  0.5008490000000  0.5985160000000  0.5508450000000 1.0
C      1  0.5976160000000  0.4942620000000  0.5478370000000 1.0
C      1  0.4198270000000  0.4606130000000  0.4839950000000 1.0
C      1  0.5014750000000  0.5539570000000  0.5964390000000 1.0
C      1  0.4615940000000  0.5447240000000  0.4833200000000 1.0
C      1  0.4775380000000  0.5101590000000  0.5674210000000 1.0
C      1  0.3685550000000  0.4521150000000  0.4406290000000 1.0
C      1  0.4995360000000  0.4970200000000  0.5294430000000 1.0
C      1  0.4723990000000  0.4445390000000  0.5855580000000 1.0
C      1  0.4257820000000  0.4211610000000  0.4827430000000 1.0
C      1  0.5734850000000  0.5476830000000  0.4767230000000 1.0
C      1  0.5188420000000  0.4646380000000  0.4619920000000 1.0
C      1  0.4462860000000  0.5915270000000  0.5514570000000 1.0
C      1  0.4411810000000  0.4431250000000  0.5011080000000 1.0
C      1  0.5659220000000  0.5055480000000  0.4632060000000 1.0
C      1  0.5040450000000  0.5680200000000  0.5655420000000 1.0
C      1  0.4822200000000  0.4569400000000  0.5564230000000 1.0
C      1  0.5494420000000  0.5248580000000  0.5516410000000 1.0
C      1  0.4408440000000  0.5112780000000  0.4705180000000 1.0
C      1  0.4871900000000  0.3972900000000  0.4410980000000 1.0
C      1  0.4322630000000  0.4838700000000  0.5736420000000 1.0
C      1  0.5198810000000  0.5770990000000  0.4302470000000 1.0
C      1  0.5152080000000  0.4083750000000  0.5667450000000 1.0
C      1  0.4993260000000  0.3845950000000  0.4907980000000 1.0
C      1  0.5384310000000  0.4756160000000  0.6009710000000 1.0
C      1  0.5566850000000  0.4124130000000  0.4581370000000 1.0
C      1  0.4311030000000  0.5458390000000  0.4324190000000 1.0
C      1  0.5259560000000  0.4964110000000  0.4914770000000 1.0
C      1  0.5803310000000  0.5983430000000  0.4725880000000 1.0
C      1  0.5033510000000  0.4449090000000  0.5117450000000 1.0
C      1  0.5367660000000  0.5398440000000  0.4630060000000 1.0
C      1  0.5343280000000  0.5008190000000  0.4032810000000 1.0
C      1  0.5977940000000  0.4774260000000  0.5179090000000 1.0
C      1  0.5256180000000  0.5134420000000  0.5320160000000 1.0
C      1  0.4777040000000  0.4288030000000  0.5378690000000 1.0
C      1  0.4802380000000  0.5965610000000  0.5313020000000 1.0
C      1  0.4703000000000  0.5724190000000  0.5660970000000 1.0
C      1  0.4490250000000  0.4038220000000  0.4726530000000 1.0
C      1  0.5854270000000  0.5449010000000  0.5456290000000 1.0
C      1  0.5119660000000  0.5386310000000  0.5503370000000 1.0
C      1  0.5454460000000  0.5931030000000  0.5414320000000 1.0
C      1  0.5107590000000  0.5846280000000  0.5033730000000 1.0
C      1  0.5658970000000  0.5881770000000  0.4478650000000 1.0
C      1  0.3885610000000  0.5163370000000  0.5171940000000 1.0
C      1  0.4568320000000  0.5530090000000  0.5853380000000 1.0
C      1  0.5554430000000  0.5027120000000  0.5196740000000 1.0
C      1  0.4467570000000  0.4289010000000  0.4497850000000 1.0
C      1  0.4054100000000  0.4562250000000  0.5355880000000 1.0
C      1  0.4762960000000  0.5705450000000  0.4665150000000 1.0
C      1  0.5100610000000  0.5099350000000  0.5685420000000 1.0
C      1  0.5963390000000  0.4958020000000  0.4916850000000 1.0
C      1  0.4354910000000  0.5433430000000  0.4637620000000 1.0
C      1  0.4845560000000  0.6057520000000  0.5004760000000 1.0
C      1  0.5404840000000  0.5158740000000  0.4312140000000 1.0
C      1  0.4543210000000  0.4515570000000  0.5282690000000 1.0
C      1  0.5564450000000  0.5768780000000  0.5135920000000 1.0
C      1  0.5070180000000  0.5317110000000  0.4688170000000 1.0
C      1  0.5465540000000  0.5654670000000  0.4831090000000 1.0
C      1  0.4957220000000  0.4326620000000  0.4716460000000 1.0
C      1  0.5127670000000  0.4899190000000  0.6143330000000 1.0
C      1  0.6008770000000  0.5241650000000  0.5631400000000 1.0
C      1  0.3892440000000  0.4419740000000  0.5180920000000 1.0
C      1  0.5376290000000  0.5733150000000  0.5669340000000 1.0
C      1  0.4579210000000  0.3958990000000  0.5266510000000 1.0
C      1  0.5776040000000  0.4456120000000  0.5742800000000 1.0
C      1  0.5950490000000  0.4464910000000  0.4746950000000 1.0
C      1  0.4480130000000  0.4346740000000  0.5639720000000 1.0
C      1  0.6108220000000  0.5531300000000  0.4995630000000 1.0
END
