TITL C-2847959-7740-418 -0.00483581549634237 125000 -313.900241742594 0 0 57 (C1) n - 1
REM
REM in /home/bkarasulu/work/CARBON/AIRSS/Generating-Clusters/AIREBO/with-SteepDescent/Only-C1/SD-CG-opt/Try1-1.4A-POS3A/HFTN-CG
REM
REM
REM
REM
REM
REM ./C.cell (11c1c37f851c82e70ff6c80c92926a4b)
REM
REM compiler GCC version 9.2.1 20190827 (Red Hat 9.2.1-1)
REM options -cpp -mtune=generic -march=x86-64 -g -O0 -fpre-include=/usr/include/finclude/math-vector-fortran.h
REM seed -1327548922 -382069601 -853023193 1940823876 -1700452858 -1478825946 -813974232 -1596993591 -920968257 611005018 -723949345 -535964159 -315992827 1087021425 -106245507 975544138 -1120948264 693674344 -417799785 -879088697 741370794 1505779404 -2022088144 -1567740465 313835669 -1220675215 -886595133 -579198018 -448972721 -782635682 -366119869 753506157 645705445
REM
CELL 1.54180   50.00000   50.00000   50.00000   90.00000   90.00000   90.00000
LATT -1
SFAC C  
C      1  0.4974200000000  0.5463070000000  0.4516240000000 1.0
C      1  0.5311710000000  0.4500060000000  0.5622630000000 1.0
C      1  0.5455400000000  0.5101400000000  0.4419200000000 1.0
C      1  0.5219760000000  0.4627940000000  0.5167160000000 1.0
C      1  0.4769520000000  0.4375230000000  0.5374340000000 1.0
C      1  0.4370710000000  0.4923160000000  0.4837890000000 1.0
C      1  0.4713470000000  0.4318830000000  0.4824100000000 1.0
C      1  0.5398830000000  0.4587050000000  0.4745020000000 1.0
C      1  0.5172850000000  0.5812100000000  0.5144260000000 1.0
C      1  0.5505680000000  0.5404090000000  0.5097290000000 1.0
C      1  0.4452530000000  0.4738670000000  0.4562900000000 1.0
C      1  0.4718370000000  0.5351870000000  0.4546610000000 1.0
C      1  0.5238420000000  0.5489740000000  0.5691040000000 1.0
C      1  0.4694080000000  0.4581960000000  0.5535680000000 1.0
C      1  0.5854170000000  0.4661190000000  0.5085410000000 1.0
C      1  0.4779540000000  0.5045720000000  0.5451380000000 1.0
C      1  0.4736500000000  0.4871160000000  0.4686540000000 1.0
C      1  0.4991490000000  0.5707620000000  0.4950690000000 1.0
C      1  0.4688260000000  0.4493440000000  0.4566410000000 1.0
C      1  0.4398130000000  0.5115590000000  0.5392610000000 1.0
C      1  0.5319850000000  0.5074590000000  0.5379420000000 1.0
C      1  0.5521500000000  0.4667030000000  0.5015380000000 1.0
C      1  0.4569600000000  0.4956810000000  0.4334550000000 1.0
C      1  0.5506400000000  0.5251120000000  0.4614260000000 1.0
C      1  0.4701620000000  0.5182380000000  0.4800910000000 1.0
C      1  0.5037200000000  0.4257750000000  0.4908700000000 1.0
C      1  0.5151740000000  0.5004740000000  0.4388360000000 1.0
C      1  0.5703120000000  0.4934800000000  0.5121770000000 1.0
C      1  0.5170210000000  0.5634810000000  0.5432930000000 1.0
C      1  0.4733810000000  0.5610860000000  0.5076250000000 1.0
C      1  0.4835600000000  0.5010570000000  0.5045050000000 1.0
C      1  0.4304720000000  0.5197710000000  0.4834450000000 1.0
C      1  0.5177000000000  0.4390000000000  0.4670870000000 1.0
C      1  0.5211910000000  0.5135210000000  0.5062690000000 1.0
C      1  0.5153190000000  0.4785070000000  0.4627790000000 1.0
C      1  0.5429380000000  0.5636180000000  0.5225440000000 1.0
C      1  0.4892330000000  0.4795100000000  0.5542980000000 1.0
C      1  0.4967810000000  0.4527630000000  0.4505130000000 1.0
C      1  0.5260480000000  0.4290350000000  0.5163060000000 1.0
C      1  0.4865910000000  0.4886420000000  0.4372420000000 1.0
C      1  0.5577990000000  0.5155570000000  0.5218330000000 1.0
C      1  0.4548840000000  0.4857260000000  0.5087400000000 1.0
C      1  0.4724950000000  0.4642810000000  0.4933830000000 1.0
C      1  0.5299540000000  0.4943300000000  0.5753050000000 1.0
C      1  0.5326170000000  0.5350840000000  0.4846070000000 1.0
C      1  0.4351530000000  0.5287690000000  0.5219630000000 1.0
C      1  0.4918680000000  0.5508930000000  0.5289770000000 1.0
C      1  0.4511030000000  0.4811340000000  0.5403530000000 1.0
C      1  0.5289580000000  0.5227190000000  0.5677630000000 1.0
C      1  0.4535200000000  0.5404000000000  0.4976280000000 1.0
C      1  0.5107180000000  0.5544460000000  0.4751040000000 1.0
C      1  0.4913390000000  0.4479490000000  0.5124930000000 1.0
C      1  0.5100310000000  0.4854010000000  0.4942920000000 1.0
C      1  0.4540100000000  0.5239540000000  0.4354450000000 1.0
C      1  0.4952870000000  0.5218640000000  0.5266570000000 1.0
C      1  0.5134460000000  0.5321850000000  0.4330110000000 1.0
C      1  0.5211170000000  0.4754100000000  0.5484640000000 1.0
END
