TITL C-2848508-1660-74 6.49648873479856e-05 125000 -939.52275521844 0 0 179 (C1) n - 1
REM
REM in /home/bkarasulu/work/CARBON/AIRSS/Generating-Clusters/AIREBO/with-SteepDescent/Only-C1/SD-CG-opt/Try1-1.4A-POS3A/HFTN-CG
REM
REM
REM
REM
REM
REM ./C.cell (11c1c37f851c82e70ff6c80c92926a4b)
REM
REM compiler GCC version 9.2.1 20190827 (Red Hat 9.2.1-1)
REM options -cpp -mtune=generic -march=x86-64 -g -O0 -fpre-include=/usr/include/finclude/math-vector-fortran.h
REM seed -2083187930 964459376 -686535768 503404774 -1352177035 -491370526 1152448060 -979672814 -140412211 -474916736 -121471960 -260507612 1264077801 1298683299 -1079749473 1827836509 -1390033678 106838023 -1799281921 -1066409732 -807759620 -140862787 -942453930 702139326 -36028 -752338487 1138554242 1006761159 2051546477 483526070 -1479837485 575047985 -317132630
REM
CELL 1.54180   50.00000   50.00000   50.00000   90.00000   90.00000   90.00000
LATT -1
SFAC C  
C      1  0.4939910000000  0.5593100000000  0.5199160000000 1.0
C      1  0.4696760000000  0.5520270000000  0.4179750000000 1.0
C      1  0.4634370000000  0.5840030000000  0.5269390000000 1.0
C      1  0.5554870000000  0.5100270000000  0.4620820000000 1.0
C      1  0.4701410000000  0.4389430000000  0.4092310000000 1.0
C      1  0.5134590000000  0.6056390000000  0.5177750000000 1.0
C      1  0.4180790000000  0.5103440000000  0.4522290000000 1.0
C      1  0.5075120000000  0.5113770000000  0.5989020000000 1.0
C      1  0.4429490000000  0.5486620000000  0.5601040000000 1.0
C      1  0.5171040000000  0.4116030000000  0.5546060000000 1.0
C      1  0.4327860000000  0.4597010000000  0.5025460000000 1.0
C      1  0.5640200000000  0.4305420000000  0.5723030000000 1.0
C      1  0.4706200000000  0.5298270000000  0.4702050000000 1.0
C      1  0.4990540000000  0.5959790000000  0.4445710000000 1.0
C      1  0.5422420000000  0.4419120000000  0.4150650000000 1.0
C      1  0.5482040000000  0.5382730000000  0.4349970000000 1.0
C      1  0.4285620000000  0.4328670000000  0.5201570000000 1.0
C      1  0.5664150000000  0.4873240000000  0.4844940000000 1.0
C      1  0.5850200000000  0.5494880000000  0.5684120000000 1.0
C      1  0.4859100000000  0.3979400000000  0.4973760000000 1.0
C      1  0.5588250000000  0.4395790000000  0.4513730000000 1.0
C      1  0.4741220000000  0.5778560000000  0.4396500000000 1.0
C      1  0.4919900000000  0.3995020000000  0.4675250000000 1.0
C      1  0.5866540000000  0.5471440000000  0.4297050000000 1.0
C      1  0.6009900000000  0.5449460000000  0.4565250000000 1.0
C      1  0.5097770000000  0.4594340000000  0.5124550000000 1.0
C      1  0.4023520000000  0.4596500000000  0.5468440000000 1.0
C      1  0.5283800000000  0.5872820000000  0.4433020000000 1.0
C      1  0.4267810000000  0.5455950000000  0.5033230000000 1.0
C      1  0.3924720000000  0.5105940000000  0.4887170000000 1.0
C      1  0.4681540000000  0.4166380000000  0.5753260000000 1.0
C      1  0.5264620000000  0.5459530000000  0.4134920000000 1.0
C      1  0.4537110000000  0.5414200000000  0.5916080000000 1.0
C      1  0.4858190000000  0.5476620000000  0.5920930000000 1.0
C      1  0.4228090000000  0.4380570000000  0.5468860000000 1.0
C      1  0.4465970000000  0.5090860000000  0.4616400000000 1.0
C      1  0.5173620000000  0.4374200000000  0.4378010000000 1.0
C      1  0.4368520000000  0.4990540000000  0.5871100000000 1.0
C      1  0.4464920000000  0.4190360000000  0.4805100000000 1.0
C      1  0.5434660000000  0.5737180000000  0.4179620000000 1.0
C      1  0.4702350000000  0.5696450000000  0.4724240000000 1.0
C      1  0.5979200000000  0.5183850000000  0.5344020000000 1.0
C      1  0.5150180000000  0.4955710000000  0.5683120000000 1.0
C      1  0.4360340000000  0.5295270000000  0.4223840000000 1.0
C      1  0.5731190000000  0.5187190000000  0.4273100000000 1.0
C      1  0.5421900000000  0.4539140000000  0.5223180000000 1.0
C      1  0.4697460000000  0.5013560000000  0.5624270000000 1.0
C      1  0.5384070000000  0.4152940000000  0.4527670000000 1.0
C      1  0.4746040000000  0.5176820000000  0.6047230000000 1.0
C      1  0.5521390000000  0.4927270000000  0.4329580000000 1.0
C      1  0.4975970000000  0.4533830000000  0.4070490000000 1.0
C      1  0.5658400000000  0.5152310000000  0.5246080000000 1.0
C      1  0.5466740000000  0.5714860000000  0.5099640000000 1.0
C      1  0.5346400000000  0.5065600000000  0.5350410000000 1.0
C      1  0.5470470000000  0.4098960000000  0.5360800000000 1.0
C      1  0.5827240000000  0.5235620000000  0.5598620000000 1.0
C      1  0.4196870000000  0.4341200000000  0.4730380000000 1.0
C      1  0.4494240000000  0.4354730000000  0.4360300000000 1.0
C      1  0.5204780000000  0.4438660000000  0.3951290000000 1.0
C      1  0.5008960000000  0.5129170000000  0.4393070000000 1.0
C      1  0.5304550000000  0.5875770000000  0.5291940000000 1.0
C      1  0.4084730000000  0.5171410000000  0.5802600000000 1.0
C      1  0.5036930000000  0.4781550000000  0.4635490000000 1.0
C      1  0.4574300000000  0.5603580000000  0.5025390000000 1.0
C      1  0.4921750000000  0.5191270000000  0.3886890000000 1.0
C      1  0.4365140000000  0.5733740000000  0.5376350000000 1.0
C      1  0.5204090000000  0.5479300000000  0.4749660000000 1.0
C      1  0.5929160000000  0.4871170000000  0.4631910000000 1.0
C      1  0.5144840000000  0.4793630000000  0.5384220000000 1.0
C      1  0.5196010000000  0.5779560000000  0.5568870000000 1.0
C      1  0.5409790000000  0.5060530000000  0.5961350000000 1.0
C      1  0.4112810000000  0.5004250000000  0.5512980000000 1.0
C      1  0.4408140000000  0.5775720000000  0.4468040000000 1.0
C      1  0.4171060000000  0.5762120000000  0.5145200000000 1.0
C      1  0.4605150000000  0.4475620000000  0.4925920000000 1.0
C      1  0.4699160000000  0.4771010000000  0.4673200000000 1.0
C      1  0.6146750000000  0.5313690000000  0.4751110000000 1.0
C      1  0.5379620000000  0.4383780000000  0.5522920000000 1.0
C      1  0.5253380000000  0.4765020000000  0.6028110000000 1.0
C      1  0.4885340000000  0.5899270000000  0.5476420000000 1.0
C      1  0.5264570000000  0.4863370000000  0.4834890000000 1.0
C      1  0.5471480000000  0.5912730000000  0.4718330000000 1.0
C      1  0.5317230000000  0.4658180000000  0.5713860000000 1.0
C      1  0.3921380000000  0.4689240000000  0.5212900000000 1.0
C      1  0.4008560000000  0.4506740000000  0.4963160000000 1.0
C      1  0.4750580000000  0.5353200000000  0.5093630000000 1.0
C      1  0.5242250000000  0.5183160000000  0.4600110000000 1.0
C      1  0.5878620000000  0.5407210000000  0.5031480000000 1.0
C      1  0.5709000000000  0.5683600000000  0.4182400000000 1.0
C      1  0.4954780000000  0.4045070000000  0.5293450000000 1.0
C      1  0.4523990000000  0.4758040000000  0.5331300000000 1.0
C      1  0.4637820000000  0.4465100000000  0.5332080000000 1.0
C      1  0.5292560000000  0.4022190000000  0.4817700000000 1.0
C      1  0.4024330000000  0.5005680000000  0.5186240000000 1.0
C      1  0.4645020000000  0.4108000000000  0.4540740000000 1.0
C      1  0.4986530000000  0.5433760000000  0.4290600000000 1.0
C      1  0.5702520000000  0.5892780000000  0.4950320000000 1.0
C      1  0.5764000000000  0.4138800000000  0.5254640000000 1.0
C      1  0.5010090000000  0.4099590000000  0.5797230000000 1.0
C      1  0.5234940000000  0.4949500000000  0.4221800000000 1.0
C      1  0.5033970000000  0.4292520000000  0.4676560000000 1.0
C      1  0.3994010000000  0.5389140000000  0.4842810000000 1.0
C      1  0.4826210000000  0.4296820000000  0.5104500000000 1.0
C      1  0.4075360000000  0.5327820000000  0.5282610000000 1.0
C      1  0.4891100000000  0.5907220000000  0.5078150000000 1.0
C      1  0.4534930000000  0.5030740000000  0.4187100000000 1.0
C      1  0.4104350000000  0.5399290000000  0.5563210000000 1.0
C      1  0.4744790000000  0.5197780000000  0.5366480000000 1.0
C      1  0.4300630000000  0.4764340000000  0.5548730000000 1.0
C      1  0.5844210000000  0.4283390000000  0.4661160000000 1.0
C      1  0.4797490000000  0.4457680000000  0.4655010000000 1.0
C      1  0.4408210000000  0.4757170000000  0.4209870000000 1.0
C      1  0.4654560000000  0.4136260000000  0.5424600000000 1.0
C      1  0.5673610000000  0.5356920000000  0.4781950000000 1.0
C      1  0.4995660000000  0.4599340000000  0.5620230000000 1.0
C      1  0.4720770000000  0.4961340000000  0.5161650000000 1.0
C      1  0.6014890000000  0.4632400000000  0.5378200000000 1.0
C      1  0.4738940000000  0.5505880000000  0.5461350000000 1.0
C      1  0.5909360000000  0.4867990000000  0.5073650000000 1.0
C      1  0.4714390000000  0.4708930000000  0.5699130000000 1.0
C      1  0.4948010000000  0.5228080000000  0.5706910000000 1.0
C      1  0.4496190000000  0.5937190000000  0.4820850000000 1.0
C      1  0.5768100000000  0.5650850000000  0.4639410000000 1.0
C      1  0.5228190000000  0.5184990000000  0.4939970000000 1.0
C      1  0.5844110000000  0.4323150000000  0.4980410000000 1.0
C      1  0.5520380000000  0.5095450000000  0.5641430000000 1.0
C      1  0.5606390000000  0.4629860000000  0.4272040000000 1.0
C      1  0.4421350000000  0.4645020000000  0.4521940000000 1.0
C      1  0.4521220000000  0.5455110000000  0.4463360000000 1.0
C      1  0.4413340000000  0.5147480000000  0.5582090000000 1.0
C      1  0.5467590000000  0.5449900000000  0.5393830000000 1.0
C      1  0.4195780000000  0.5586250000000  0.4654180000000 1.0
C      1  0.5189320000000  0.3873350000000  0.4529960000000 1.0
C      1  0.4127210000000  0.4671610000000  0.4690490000000 1.0
C      1  0.4893170000000  0.5129570000000  0.4920700000000 1.0
C      1  0.5537750000000  0.4406100000000  0.4932680000000 1.0
C      1  0.5482430000000  0.4630970000000  0.4715770000000 1.0
C      1  0.4689510000000  0.5255760000000  0.4009870000000 1.0
C      1  0.4923640000000  0.5640020000000  0.5677740000000 1.0
C      1  0.4902030000000  0.4399640000000  0.5867290000000 1.0
C      1  0.5416100000000  0.5371570000000  0.5810450000000 1.0
C      1  0.5193360000000  0.5370870000000  0.5557510000000 1.0
C      1  0.5439480000000  0.5675550000000  0.5714370000000 1.0
C      1  0.5447510000000  0.4848080000000  0.5109340000000 1.0
C      1  0.5882800000000  0.4641290000000  0.5688720000000 1.0
C      1  0.4826790000000  0.4726160000000  0.4986980000000 1.0
C      1  0.4450950000000  0.4563120000000  0.4021950000000 1.0
C      1  0.4399750000000  0.5161200000000  0.4924500000000 1.0
C      1  0.4763150000000  0.6067800000000  0.4855980000000 1.0
C      1  0.5732060000000  0.4460580000000  0.5338410000000 1.0
C      1  0.5078710000000  0.4698870000000  0.4342440000000 1.0
C      1  0.5686430000000  0.5689530000000  0.5491840000000 1.0
C      1  0.5257460000000  0.4042450000000  0.5149920000000 1.0
C      1  0.4012900000000  0.4946160000000  0.4671350000000 1.0
C      1  0.4941620000000  0.4676300000000  0.6026180000000 1.0
C      1  0.4128910000000  0.5373910000000  0.4426430000000 1.0
C      1  0.4350990000000  0.4654770000000  0.5857160000000 1.0
C      1  0.4870930000000  0.4231840000000  0.4316470000000 1.0
C      1  0.6074420000000  0.5144330000000  0.5028890000000 1.0
C      1  0.5481560000000  0.5376990000000  0.5061860000000 1.0
C      1  0.4938440000000  0.5498070000000  0.4598950000000 1.0
C      1  0.4331550000000  0.4911920000000  0.5096820000000 1.0
C      1  0.5914410000000  0.4954350000000  0.4396100000000 1.0
C      1  0.5863550000000  0.5962750000000  0.4669260000000 1.0
C      1  0.4511540000000  0.4440980000000  0.5646920000000 1.0
C      1  0.5129770000000  0.5312720000000  0.5239470000000 1.0
C      1  0.4662450000000  0.4868530000000  0.5994920000000 1.0
C      1  0.5153620000000  0.5186480000000  0.4024580000000 1.0
C      1  0.5216040000000  0.4322320000000  0.4958210000000 1.0
C      1  0.6019710000000  0.4555220000000  0.5061190000000 1.0
C      1  0.4246310000000  0.5829070000000  0.4861430000000 1.0
C      1  0.5436970000000  0.5605280000000  0.4576990000000 1.0
C      1  0.4473770000000  0.4113050000000  0.5137250000000 1.0
C      1  0.5611410000000  0.4777470000000  0.5661750000000 1.0
C      1  0.4739750000000  0.5007810000000  0.4432600000000 1.0
C      1  0.4920060000000  0.6147670000000  0.4635060000000 1.0
C      1  0.5792770000000  0.5659030000000  0.5173730000000 1.0
C      1  0.4225110000000  0.4240430000000  0.4253530000000 1.0
C      1  0.5759210000000  0.4856920000000  0.5378520000000 1.0
END
