TITL C-2848498-1409-701 0.000866400623408152 125000 -519.106384197238 0 0 99 (C1) n - 1
REM
REM in /home/bkarasulu/work/CARBON/AIRSS/Generating-Clusters/AIREBO/with-SteepDescent/Only-C1/SD-CG-opt/Try1-1.4A-POS3A/HFTN-CG
REM
REM
REM
REM
REM
REM ./C.cell (11c1c37f851c82e70ff6c80c92926a4b)
REM
REM compiler GCC version 9.2.1 20190827 (Red Hat 9.2.1-1)
REM options -cpp -mtune=generic -march=x86-64 -g -O0 -fpre-include=/usr/include/finclude/math-vector-fortran.h
REM seed -1092181185 -983213883 -924988308 1351441732 -774108551 -1802811807 878094772 720541689 -1142260989 159984799 -514643155 23612986 761587947 -1790754545 -915818714 -802908883 577052736 1036139334 -278770493 216621287 676930559 1263309445 -948358837 589703127 -1095418441 -1915270435 -1723636270 -1533014513 -2100862321 471112832 1633022951 1326156264 601600538
REM
CELL 1.54180   50.00000   50.00000   50.00000   90.00000   90.00000   90.00000
LATT -1
SFAC C  
C      1  0.5012780000000  0.4460450000000  0.4616430000000 1.0
C      1  0.4612450000000  0.5484800000000  0.5627450000000 1.0
C      1  0.4985330000000  0.5771690000000  0.4766810000000 1.0
C      1  0.5062400000000  0.4886310000000  0.4781960000000 1.0
C      1  0.5018900000000  0.5641740000000  0.5563320000000 1.0
C      1  0.5303720000000  0.5104180000000  0.4210000000000 1.0
C      1  0.4810570000000  0.4624460000000  0.4397400000000 1.0
C      1  0.5521950000000  0.5774040000000  0.5152170000000 1.0
C      1  0.5275020000000  0.5629990000000  0.5257000000000 1.0
C      1  0.4603170000000  0.5170060000000  0.4584780000000 1.0
C      1  0.4384910000000  0.4661400000000  0.5465300000000 1.0
C      1  0.4344540000000  0.5161520000000  0.4809570000000 1.0
C      1  0.5173780000000  0.4624870000000  0.5701250000000 1.0
C      1  0.5370830000000  0.4204900000000  0.4937770000000 1.0
C      1  0.4728080000000  0.5710920000000  0.4652660000000 1.0
C      1  0.4565130000000  0.4578060000000  0.4594650000000 1.0
C      1  0.4734150000000  0.4972700000000  0.5831770000000 1.0
C      1  0.5298100000000  0.5336580000000  0.5855500000000 1.0
C      1  0.4754750000000  0.4064580000000  0.4873670000000 1.0
C      1  0.5226260000000  0.5015250000000  0.5637040000000 1.0
C      1  0.4187260000000  0.4900500000000  0.4816850000000 1.0
C      1  0.5322250000000  0.5067570000000  0.4658570000000 1.0
C      1  0.4055870000000  0.4847740000000  0.5131360000000 1.0
C      1  0.5008870000000  0.5460710000000  0.4366000000000 1.0
C      1  0.4301430000000  0.5425230000000  0.4623740000000 1.0
C      1  0.5001190000000  0.5733450000000  0.5080960000000 1.0
C      1  0.5451440000000  0.4204180000000  0.4647240000000 1.0
C      1  0.4992920000000  0.4286310000000  0.5340590000000 1.0
C      1  0.5460000000000  0.5666330000000  0.4601720000000 1.0
C      1  0.5257220000000  0.4076670000000  0.4495790000000 1.0
C      1  0.4398390000000  0.4524650000000  0.5091690000000 1.0
C      1  0.5264150000000  0.4816430000000  0.4228990000000 1.0
C      1  0.5735200000000  0.5293460000000  0.5245030000000 1.0
C      1  0.5116960000000  0.5311010000000  0.5058920000000 1.0
C      1  0.5447250000000  0.5386810000000  0.5088850000000 1.0
C      1  0.5687830000000  0.4558210000000  0.5167490000000 1.0
C      1  0.5063630000000  0.4639870000000  0.4170740000000 1.0
C      1  0.5090220000000  0.4106570000000  0.4939400000000 1.0
C      1  0.5631410000000  0.5483790000000  0.4430440000000 1.0
C      1  0.4053840000000  0.5299570000000  0.5218010000000 1.0
C      1  0.5179430000000  0.5601480000000  0.4597920000000 1.0
C      1  0.5742780000000  0.4607150000000  0.4774780000000 1.0
C      1  0.5369760000000  0.4981730000000  0.5268210000000 1.0
C      1  0.5386030000000  0.4774360000000  0.4498540000000 1.0
C      1  0.5528280000000  0.5204010000000  0.4424790000000 1.0
C      1  0.4605110000000  0.4790640000000  0.5043490000000 1.0
C      1  0.5428430000000  0.5229550000000  0.5493570000000 1.0
C      1  0.4875180000000  0.4354410000000  0.5028960000000 1.0
C      1  0.5890070000000  0.5102000000000  0.5120620000000 1.0
C      1  0.5575510000000  0.4833210000000  0.5704850000000 1.0
C      1  0.4558990000000  0.5661290000000  0.5346590000000 1.0
C      1  0.4334230000000  0.5357650000000  0.4355080000000 1.0
C      1  0.4825550000000  0.5308250000000  0.4883590000000 1.0
C      1  0.5755400000000  0.4941920000000  0.4835410000000 1.0
C      1  0.4880530000000  0.5552730000000  0.5325600000000 1.0
C      1  0.5700970000000  0.4737390000000  0.4496630000000 1.0
C      1  0.4756970000000  0.4994040000000  0.4831860000000 1.0
C      1  0.5393570000000  0.4463590000000  0.5108820000000 1.0
C      1  0.5599350000000  0.5616010000000  0.4888850000000 1.0
C      1  0.5833360000000  0.5551780000000  0.4652430000000 1.0
C      1  0.4629920000000  0.4976740000000  0.5476920000000 1.0
C      1  0.5741210000000  0.5297030000000  0.5532660000000 1.0
C      1  0.4631580000000  0.4793340000000  0.4160180000000 1.0
C      1  0.5120370000000  0.5322470000000  0.4723850000000 1.0
C      1  0.4731960000000  0.4322240000000  0.5467800000000 1.0
C      1  0.4722110000000  0.4656810000000  0.5407930000000 1.0
C      1  0.4311250000000  0.4671650000000  0.4609870000000 1.0
C      1  0.5242020000000  0.4408780000000  0.5378600000000 1.0
C      1  0.4504660000000  0.5090170000000  0.4269280000000 1.0
C      1  0.4452320000000  0.4369650000000  0.5347200000000 1.0
C      1  0.4605970000000  0.5088800000000  0.5188920000000 1.0
C      1  0.5773340000000  0.5032110000000  0.4509300000000 1.0
C      1  0.4947890000000  0.4903910000000  0.4494500000000 1.0
C      1  0.4837520000000  0.5051430000000  0.4241340000000 1.0
C      1  0.5436000000000  0.4517600000000  0.4698510000000 1.0
C      1  0.5061530000000  0.5243110000000  0.4209550000000 1.0
C      1  0.4823790000000  0.5296760000000  0.5623730000000 1.0
C      1  0.4661470000000  0.5711760000000  0.5045500000000 1.0
C      1  0.4147230000000  0.4801840000000  0.5402350000000 1.0
C      1  0.4156670000000  0.4600950000000  0.4971210000000 1.0
C      1  0.4552100000000  0.5502480000000  0.4827670000000 1.0
C      1  0.4358800000000  0.5337180000000  0.5683230000000 1.0
C      1  0.5467360000000  0.5072570000000  0.4960270000000 1.0
C      1  0.4359300000000  0.5246490000000  0.5107150000000 1.0
C      1  0.4444080000000  0.5071360000000  0.5714570000000 1.0
C      1  0.5831010000000  0.4779700000000  0.5124580000000 1.0
C      1  0.4901000000000  0.5213870000000  0.5303080000000 1.0
C      1  0.4311140000000  0.5451800000000  0.5370810000000 1.0
C      1  0.4699210000000  0.4557010000000  0.4842370000000 1.0
C      1  0.5165540000000  0.4591620000000  0.4891070000000 1.0
C      1  0.5307790000000  0.5521780000000  0.5577770000000 1.0
C      1  0.5010770000000  0.5156900000000  0.5827700000000 1.0
C      1  0.4916640000000  0.4765050000000  0.5655680000000 1.0
C      1  0.5395640000000  0.4701240000000  0.5459050000000 1.0
C      1  0.5483130000000  0.5068520000000  0.5853990000000 1.0
C      1  0.4970220000000  0.4149590000000  0.4624750000000 1.0
C      1  0.5038520000000  0.4910700000000  0.5373440000000 1.0
C      1  0.4746170000000  0.5461220000000  0.4482150000000 1.0
C      1  0.4969060000000  0.4653050000000  0.5162040000000 1.0
END
