TITL C-2847952-8118-281 0.00179942370779517 125000 -780.761341498666 0 0 143 (C1) n - 1
REM
REM in /home/bkarasulu/work/CARBON/AIRSS/Generating-Clusters/AIREBO/with-SteepDescent/Only-C1/SD-CG-opt/Try1-1.4A-POS3A/HFTN-CG
REM
REM
REM
REM
REM
REM ./C.cell (11c1c37f851c82e70ff6c80c92926a4b)
REM
REM compiler GCC version 9.2.1 20190827 (Red Hat 9.2.1-1)
REM options -cpp -mtune=generic -march=x86-64 -g -O0 -fpre-include=/usr/include/finclude/math-vector-fortran.h
REM seed 6493373 -704738682 651923512 442838260 -1645639319 1485048697 96329850 -221535237 -546745897 -578849613 1691710522 221852250 -595655184 1021111250 -2139373742 -185360646 -880246674 -811258641 -406934896 1570017069 738325727 -1028591211 1499477838 437007518 773468205 -669077823 2129925736 -518652893 833248773 1210604666 -1451304354 -2007954514 1062739979
REM
CELL 1.54180   50.00000   50.00000   50.00000   90.00000   90.00000   90.00000
LATT -1
SFAC C  
C      1  0.5123380000000  0.5017580000000  0.5675980000000 1.0
C      1  0.5597190000000  0.4824500000000  0.5048890000000 1.0
C      1  0.5351270000000  0.5265880000000  0.4450980000000 1.0
C      1  0.4511560000000  0.5276350000000  0.5792510000000 1.0
C      1  0.4789260000000  0.4806730000000  0.4143620000000 1.0
C      1  0.5197230000000  0.5602490000000  0.4938340000000 1.0
C      1  0.5421710000000  0.4717300000000  0.5391320000000 1.0
C      1  0.5879400000000  0.4401700000000  0.5036030000000 1.0
C      1  0.4439440000000  0.4970620000000  0.4671190000000 1.0
C      1  0.5917310000000  0.5639330000000  0.4570150000000 1.0
C      1  0.4906740000000  0.5444440000000  0.4859380000000 1.0
C      1  0.4965970000000  0.4031680000000  0.5328260000000 1.0
C      1  0.5021370000000  0.5473350000000  0.5620740000000 1.0
C      1  0.5149510000000  0.4190250000000  0.4672170000000 1.0
C      1  0.5608130000000  0.5512720000000  0.5565830000000 1.0
C      1  0.4331260000000  0.5247020000000  0.4837490000000 1.0
C      1  0.5752660000000  0.4535380000000  0.4516430000000 1.0
C      1  0.5930920000000  0.4473840000000  0.4783970000000 1.0
C      1  0.5414850000000  0.4097060000000  0.4514620000000 1.0
C      1  0.5843610000000  0.5363350000000  0.4430300000000 1.0
C      1  0.5621480000000  0.5009930000000  0.4145420000000 1.0
C      1  0.4632220000000  0.4570240000000  0.4320260000000 1.0
C      1  0.4496930000000  0.4659580000000  0.4542390000000 1.0
C      1  0.4476260000000  0.4468540000000  0.4732870000000 1.0
C      1  0.5241650000000  0.5183030000000  0.5328220000000 1.0
C      1  0.4751330000000  0.4083020000000  0.4852800000000 1.0
C      1  0.5894870000000  0.5358090000000  0.4760270000000 1.0
C      1  0.4794690000000  0.5628770000000  0.5194800000000 1.0
C      1  0.5389650000000  0.5724130000000  0.5310250000000 1.0
C      1  0.4194830000000  0.4817790000000  0.4852100000000 1.0
C      1  0.5458650000000  0.5101160000000  0.5092720000000 1.0
C      1  0.4268820000000  0.4276280000000  0.5011530000000 1.0
C      1  0.4443370000000  0.5524480000000  0.5597070000000 1.0
C      1  0.4738380000000  0.4739280000000  0.5700970000000 1.0
C      1  0.5221960000000  0.5515560000000  0.4166550000000 1.0
C      1  0.5639600000000  0.5241290000000  0.4305560000000 1.0
C      1  0.5872530000000  0.5731250000000  0.5090700000000 1.0
C      1  0.5023860000000  0.4250100000000  0.4387750000000 1.0
C      1  0.4210950000000  0.5125330000000  0.5330110000000 1.0
C      1  0.4180140000000  0.4664190000000  0.5431960000000 1.0
C      1  0.4984590000000  0.4737670000000  0.5057450000000 1.0
C      1  0.5443650000000  0.5063320000000  0.5749100000000 1.0
C      1  0.4770870000000  0.4321940000000  0.4316760000000 1.0
C      1  0.5069350000000  0.4376280000000  0.5361820000000 1.0
C      1  0.4645390000000  0.5044720000000  0.5583890000000 1.0
C      1  0.4678350000000  0.4737410000000  0.5145200000000 1.0
C      1  0.5227450000000  0.4536610000000  0.5752230000000 1.0
C      1  0.3965050000000  0.4586100000000  0.4807640000000 1.0
C      1  0.5683940000000  0.5204890000000  0.5635370000000 1.0
C      1  0.4599510000000  0.6077230000000  0.5216900000000 1.0
C      1  0.5317440000000  0.5708780000000  0.4363470000000 1.0
C      1  0.5562830000000  0.5640420000000  0.5093410000000 1.0
C      1  0.5044170000000  0.5791350000000  0.4536870000000 1.0
C      1  0.5034230000000  0.4570840000000  0.4147850000000 1.0
C      1  0.4449040000000  0.4565970000000  0.5028670000000 1.0
C      1  0.5401160000000  0.5591380000000  0.4680590000000 1.0
C      1  0.4496420000000  0.4171090000000  0.4781820000000 1.0
C      1  0.5449170000000  0.4288020000000  0.5682680000000 1.0
C      1  0.5857560000000  0.5518240000000  0.5332270000000 1.0
C      1  0.5742660000000  0.4794600000000  0.5337030000000 1.0
C      1  0.4029130000000  0.5059080000000  0.4507420000000 1.0
C      1  0.4051920000000  0.5373110000000  0.5422790000000 1.0
C      1  0.4739210000000  0.5854830000000  0.4447250000000 1.0
C      1  0.4916560000000  0.5050180000000  0.3943680000000 1.0
C      1  0.5005770000000  0.4637220000000  0.4732190000000 1.0
C      1  0.4204720000000  0.4916890000000  0.5544970000000 1.0
C      1  0.4299410000000  0.5748660000000  0.4839410000000 1.0
C      1  0.5399580000000  0.4860190000000  0.4198110000000 1.0
C      1  0.5539100000000  0.5183300000000  0.4710460000000 1.0
C      1  0.5867720000000  0.4487720000000  0.5361300000000 1.0
C      1  0.4925080000000  0.5117050000000  0.5433430000000 1.0
C      1  0.4488580000000  0.4960470000000  0.4139650000000 1.0
C      1  0.4632940000000  0.4502680000000  0.5482720000000 1.0
C      1  0.4338580000000  0.4451030000000  0.5516580000000 1.0
C      1  0.5141010000000  0.5893240000000  0.4991040000000 1.0
C      1  0.4259950000000  0.5730060000000  0.5161940000000 1.0
C      1  0.5575990000000  0.4319820000000  0.4381590000000 1.0
C      1  0.5061750000000  0.5018340000000  0.4931850000000 1.0
C      1  0.5192820000000  0.4867480000000  0.5275800000000 1.0
C      1  0.5101430000000  0.5459020000000  0.4580940000000 1.0
C      1  0.4554240000000  0.5462110000000  0.4496570000000 1.0
C      1  0.5143660000000  0.5046360000000  0.4294940000000 1.0
C      1  0.4785860000000  0.5578350000000  0.4280600000000 1.0
C      1  0.5064260000000  0.5646620000000  0.5895620000000 1.0
C      1  0.4589650000000  0.5834310000000  0.4736790000000 1.0
C      1  0.4756000000000  0.5027760000000  0.4781330000000 1.0
C      1  0.4297230000000  0.5021730000000  0.5778860000000 1.0
C      1  0.4339160000000  0.5141010000000  0.4394340000000 1.0
C      1  0.4242650000000  0.5468490000000  0.4405590000000 1.0
C      1  0.5351550000000  0.4423560000000  0.5392390000000 1.0
C      1  0.5269890000000  0.4060510000000  0.5229800000000 1.0
C      1  0.5238790000000  0.4950870000000  0.4669200000000 1.0
C      1  0.4332420000000  0.6022860000000  0.5241960000000 1.0
C      1  0.4907470000000  0.5310480000000  0.5154260000000 1.0
C      1  0.4735790000000  0.5467500000000  0.5474850000000 1.0
C      1  0.4004480000000  0.4344090000000  0.4873350000000 1.0
C      1  0.5292610000000  0.5457770000000  0.5451200000000 1.0
C      1  0.4957370000000  0.5301640000000  0.4168950000000 1.0
C      1  0.4899980000000  0.5960290000000  0.4795590000000 1.0
C      1  0.5387210000000  0.5578880000000  0.5816830000000 1.0
C      1  0.5221440000000  0.5288680000000  0.5831670000000 1.0
C      1  0.5833170000000  0.5067070000000  0.5440370000000 1.0
C      1  0.4662920000000  0.5395710000000  0.6037170000000 1.0
C      1  0.4984700000000  0.4772780000000  0.4419940000000 1.0
C      1  0.5248180000000  0.5944730000000  0.5234930000000 1.0
C      1  0.5554740000000  0.4789540000000  0.5689270000000 1.0
C      1  0.5644410000000  0.5360140000000  0.4980190000000 1.0
C      1  0.4947430000000  0.4345690000000  0.4897410000000 1.0
C      1  0.4543310000000  0.4177100000000  0.5178760000000 1.0
C      1  0.5398440000000  0.4606900000000  0.4353100000000 1.0
C      1  0.5994470000000  0.5170090000000  0.5002100000000 1.0
C      1  0.5251640000000  0.4351810000000  0.4209090000000 1.0
C      1  0.4084920000000  0.5041270000000  0.5070040000000 1.0
C      1  0.4661040000000  0.5203290000000  0.4303820000000 1.0
C      1  0.4622330000000  0.5518260000000  0.4803670000000 1.0
C      1  0.4215820000000  0.5517030000000  0.4702360000000 1.0
C      1  0.4010550000000  0.5160380000000  0.4772200000000 1.0
C      1  0.4226120000000  0.5579610000000  0.5434540000000 1.0
C      1  0.4167220000000  0.4664590000000  0.5154400000000 1.0
C      1  0.5784110000000  0.4980840000000  0.4832430000000 1.0
C      1  0.5459840000000  0.4545370000000  0.4930270000000 1.0
C      1  0.4976700000000  0.5142940000000  0.4568970000000 1.0
C      1  0.4312180000000  0.4200270000000  0.5401760000000 1.0
C      1  0.4533240000000  0.5237470000000  0.5326860000000 1.0
C      1  0.5047310000000  0.4741040000000  0.5795830000000 1.0
C      1  0.5924080000000  0.4766410000000  0.4660050000000 1.0
C      1  0.5267230000000  0.4270240000000  0.4985140000000 1.0
C      1  0.4838950000000  0.4243940000000  0.5561590000000 1.0
C      1  0.4438920000000  0.5451200000000  0.5079390000000 1.0
C      1  0.5484800000000  0.3843700000000  0.4506290000000 1.0
C      1  0.5949420000000  0.5252770000000  0.5265260000000 1.0
C      1  0.4800110000000  0.4428460000000  0.5827340000000 1.0
C      1  0.5266140000000  0.5274600000000  0.4892310000000 1.0
C      1  0.4760460000000  0.3941170000000  0.5126170000000 1.0
C      1  0.5672700000000  0.4516240000000  0.5628650000000 1.0
C      1  0.4855430000000  0.5589270000000  0.6074510000000 1.0
C      1  0.4759370000000  0.5882090000000  0.5095170000000 1.0
C      1  0.5326230000000  0.4651180000000  0.4650520000000 1.0
C      1  0.5584040000000  0.4390940000000  0.5194900000000 1.0
C      1  0.4703920000000  0.5044230000000  0.5105180000000 1.0
C      1  0.4784380000000  0.4417100000000  0.5187370000000 1.0
C      1  0.5701660000000  0.5706990000000  0.4790240000000 1.0
C      1  0.5446680000000  0.4040850000000  0.5449140000000 1.0
END
