TITL C-2848506-1665-628 0.00600574686472231 125000 -223.116252128552 0 0 42 (C1) n - 1
REM
REM in /home/bkarasulu/work/CARBON/AIRSS/Generating-Clusters/AIREBO/with-SteepDescent/Only-C1/SD-CG-opt/Try1-1.4A-POS3A/HFTN-CG
REM
REM
REM
REM
REM
REM ./C.cell (11c1c37f851c82e70ff6c80c92926a4b)
REM
REM compiler GCC version 9.2.1 20190827 (Red Hat 9.2.1-1)
REM options -cpp -mtune=generic -march=x86-64 -g -O0 -fpre-include=/usr/include/finclude/math-vector-fortran.h
REM seed -1984128586 -2010078701 1809757993 2040515292 -830547019 1900104577 1278154579 1715155111 -405402618 394529182 -1909000746 1155548970 191969727 -1667984437 1301450220 -785661779 497607306 -589593627 253705230 -105434488 -1861248631 -2008832052 -570517307 -488474715 -252273421 460957736 4561040 886469716 -856698266 -551212023 667016992 -1529184765 -638897103
REM
CELL 1.54180   50.00000   50.00000   50.00000   90.00000   90.00000   90.00000
LATT -1
SFAC C  
C      1  0.4649690000000  0.4477170000000  0.4805610000000 1.0
C      1  0.5131690000000  0.4913560000000  0.4441100000000 1.0
C      1  0.5069350000000  0.5233540000000  0.4910810000000 1.0
C      1  0.5062890000000  0.5565540000000  0.4962860000000 1.0
C      1  0.5830800000000  0.4739160000000  0.5139480000000 1.0
C      1  0.5600050000000  0.4787170000000  0.5041430000000 1.0
C      1  0.5345580000000  0.5501380000000  0.5422550000000 1.0
C      1  0.4507620000000  0.4738470000000  0.4843470000000 1.0
C      1  0.4898110000000  0.4746010000000  0.5512900000000 1.0
C      1  0.4477450000000  0.5475950000000  0.4889900000000 1.0
C      1  0.4848850000000  0.4463310000000  0.4591580000000 1.0
C      1  0.4508070000000  0.5265740000000  0.4738690000000 1.0
C      1  0.5345270000000  0.4728320000000  0.4426980000000 1.0
C      1  0.4818580000000  0.5016540000000  0.5642450000000 1.0
C      1  0.4494410000000  0.5374460000000  0.5360850000000 1.0
C      1  0.5308580000000  0.4861720000000  0.4882990000000 1.0
C      1  0.4811550000000  0.4794040000000  0.4985780000000 1.0
C      1  0.5006720000000  0.4952570000000  0.4755260000000 1.0
C      1  0.4776500000000  0.4587210000000  0.4354680000000 1.0
C      1  0.4804620000000  0.4459110000000  0.5059830000000 1.0
C      1  0.5022520000000  0.5465480000000  0.5345860000000 1.0
C      1  0.4450030000000  0.4946450000000  0.4641160000000 1.0
C      1  0.4578210000000  0.5540070000000  0.5145440000000 1.0
C      1  0.4846520000000  0.5635400000000  0.5167700000000 1.0
C      1  0.5333090000000  0.5463250000000  0.5095010000000 1.0
C      1  0.5112800000000  0.4467010000000  0.4805870000000 1.0
C      1  0.5375890000000  0.4604990000000  0.4670460000000 1.0
C      1  0.5406420000000  0.5188960000000  0.4911500000000 1.0
C      1  0.5157280000000  0.4740800000000  0.5353000000000 1.0
C      1  0.5032950000000  0.5184910000000  0.5221450000000 1.0
C      1  0.5260500000000  0.5005300000000  0.5361470000000 1.0
C      1  0.5408520000000  0.5177680000000  0.4591460000000 1.0
C      1  0.4623730000000  0.5147660000000  0.5449610000000 1.0
C      1  0.5163570000000  0.4639390000000  0.5095010000000 1.0
C      1  0.5028450000000  0.4270240000000  0.5070060000000 1.0
C      1  0.4814830000000  0.4950170000000  0.5249390000000 1.0
C      1  0.5038390000000  0.5175300000000  0.5740740000000 1.0
C      1  0.5253160000000  0.5221600000000  0.5560230000000 1.0
C      1  0.5518140000000  0.5668950000000  0.5551600000000 1.0
C      1  0.4924800000000  0.4851820000000  0.4266580000000 1.0
C      1  0.4748460000000  0.5091590000000  0.4583080000000 1.0
C      1  0.4605360000000  0.4882010000000  0.4354120000000 1.0
END
