TITL C-2848499-1157-587 0.000826568148934854 125000 -1006.11715632353 0 0 185 (C1) n - 1
REM
REM in /home/bkarasulu/work/CARBON/AIRSS/Generating-Clusters/AIREBO/with-SteepDescent/Only-C1/SD-CG-opt/Try1-1.4A-POS3A/HFTN-CG
REM
REM
REM
REM
REM
REM ./C.cell (11c1c37f851c82e70ff6c80c92926a4b)
REM
REM compiler GCC version 9.2.1 20190827 (Red Hat 9.2.1-1)
REM options -cpp -mtune=generic -march=x86-64 -g -O0 -fpre-include=/usr/include/finclude/math-vector-fortran.h
REM seed 1143318748 1486565349 -326514359 1171993696 1338808781 1987451132 369187298 -2014234918 617303674 1096747522 -112829714 728134321 -939437333 1655232950 -914839942 1966990264 814135134 -1193688774 619001077 1611925107 -811401383 -361673154 -111250279 1963854353 1595609398 -621596199 -679199744 -2082809741 -527905308 771497358 441509900 -61224153 -1034232597
REM
CELL 1.54180   50.00000   50.00000   50.00000   90.00000   90.00000   90.00000
LATT -1
SFAC C  
C      1  0.4471740000000  0.5060110000000  0.5736660000000 1.0
C      1  0.4767430000000  0.4671780000000  0.4978540000000 1.0
C      1  0.4596210000000  0.4435720000000  0.5243870000000 1.0
C      1  0.5296770000000  0.5643350000000  0.6031320000000 1.0
C      1  0.5332170000000  0.4242750000000  0.5735170000000 1.0
C      1  0.5246170000000  0.4973140000000  0.4500280000000 1.0
C      1  0.5268790000000  0.6198860000000  0.5268540000000 1.0
C      1  0.4059370000000  0.4833900000000  0.5525970000000 1.0
C      1  0.4771060000000  0.4248900000000  0.4375270000000 1.0
C      1  0.5678770000000  0.5317010000000  0.4894800000000 1.0
C      1  0.4671520000000  0.5405720000000  0.5086350000000 1.0
C      1  0.4954790000000  0.5556320000000  0.5728780000000 1.0
C      1  0.6015550000000  0.5525820000000  0.4851670000000 1.0
C      1  0.4903700000000  0.4839500000000  0.5700460000000 1.0
C      1  0.5632720000000  0.4254660000000  0.4497270000000 1.0
C      1  0.5536820000000  0.4637970000000  0.4014840000000 1.0
C      1  0.4064650000000  0.4811930000000  0.5020550000000 1.0
C      1  0.5514700000000  0.3997200000000  0.5163130000000 1.0
C      1  0.5357070000000  0.5929690000000  0.5435760000000 1.0
C      1  0.4309650000000  0.5370100000000  0.4107660000000 1.0
C      1  0.5918660000000  0.5353310000000  0.5133070000000 1.0
C      1  0.4710750000000  0.4817630000000  0.3984850000000 1.0
C      1  0.4497440000000  0.4886130000000  0.4213190000000 1.0
C      1  0.4571850000000  0.4861980000000  0.5478350000000 1.0
C      1  0.4683340000000  0.4918740000000  0.4768960000000 1.0
C      1  0.4158610000000  0.5656090000000  0.4999280000000 1.0
C      1  0.4943780000000  0.5003170000000  0.5436950000000 1.0
C      1  0.5752930000000  0.4882310000000  0.4982060000000 1.0
C      1  0.4469680000000  0.5901800000000  0.5024070000000 1.0
C      1  0.4368800000000  0.4671850000000  0.5763280000000 1.0
C      1  0.5722930000000  0.4593450000000  0.4268770000000 1.0
C      1  0.4597020000000  0.5886830000000  0.5266530000000 1.0
C      1  0.4871010000000  0.5138000000000  0.4618340000000 1.0
C      1  0.5559890000000  0.4405530000000  0.4793250000000 1.0
C      1  0.4742880000000  0.3869330000000  0.4688450000000 1.0
C      1  0.4358470000000  0.4583420000000  0.4286450000000 1.0
C      1  0.5410440000000  0.5227910000000  0.5083690000000 1.0
C      1  0.4335020000000  0.4180380000000  0.4579230000000 1.0
C      1  0.4196890000000  0.4900060000000  0.5857030000000 1.0
C      1  0.5166320000000  0.5396840000000  0.3977480000000 1.0
C      1  0.4608750000000  0.5824050000000  0.4644390000000 1.0
C      1  0.5948480000000  0.4775580000000  0.5518800000000 1.0
C      1  0.4960070000000  0.4540510000000  0.6020360000000 1.0
C      1  0.5589710000000  0.5634660000000  0.5854500000000 1.0
C      1  0.5527960000000  0.5431790000000  0.5310480000000 1.0
C      1  0.3861380000000  0.4798910000000  0.5273910000000 1.0
C      1  0.5329900000000  0.5656240000000  0.5636200000000 1.0
C      1  0.4110650000000  0.4855540000000  0.4491320000000 1.0
C      1  0.5487080000000  0.5010580000000  0.4263270000000 1.0
C      1  0.5707030000000  0.5655390000000  0.4912590000000 1.0
C      1  0.4946840000000  0.5868840000000  0.5732720000000 1.0
C      1  0.4650360000000  0.5395110000000  0.4412950000000 1.0
C      1  0.4891180000000  0.5883720000000  0.5232270000000 1.0
C      1  0.5139510000000  0.5258570000000  0.4348880000000 1.0
C      1  0.5099880000000  0.5273960000000  0.5033560000000 1.0
C      1  0.4687780000000  0.5481930000000  0.5585490000000 1.0
C      1  0.5447580000000  0.4019340000000  0.4587750000000 1.0
C      1  0.5345610000000  0.4838770000000  0.5398930000000 1.0
C      1  0.4857880000000  0.5058030000000  0.5029770000000 1.0
C      1  0.4778190000000  0.5026840000000  0.4334570000000 1.0
C      1  0.5920100000000  0.5165420000000  0.4709230000000 1.0
C      1  0.5091760000000  0.4612330000000  0.5431080000000 1.0
C      1  0.5492830000000  0.5485510000000  0.4376290000000 1.0
C      1  0.5907390000000  0.4254440000000  0.4702860000000 1.0
C      1  0.4230800000000  0.4358370000000  0.4376500000000 1.0
C      1  0.4318550000000  0.4636710000000  0.5449050000000 1.0
C      1  0.5504920000000  0.5133120000000  0.5458890000000 1.0
C      1  0.5359800000000  0.4137290000000  0.5433670000000 1.0
C      1  0.4032560000000  0.5537450000000  0.5265830000000 1.0
C      1  0.5390480000000  0.5776110000000  0.4876690000000 1.0
C      1  0.3989750000000  0.4636570000000  0.4668180000000 1.0
C      1  0.5795630000000  0.5719140000000  0.5234640000000 1.0
C      1  0.5275480000000  0.4379260000000  0.4637680000000 1.0
C      1  0.5311570000000  0.4413880000000  0.5263990000000 1.0
C      1  0.3926560000000  0.5231340000000  0.4754790000000 1.0
C      1  0.5065930000000  0.3983620000000  0.5443620000000 1.0
C      1  0.5174980000000  0.4344870000000  0.4961000000000 1.0
C      1  0.4949460000000  0.4273510000000  0.4639470000000 1.0
C      1  0.5108210000000  0.4448320000000  0.5728520000000 1.0
C      1  0.5191570000000  0.5199260000000  0.5479410000000 1.0
C      1  0.4156230000000  0.5445620000000  0.5520140000000 1.0
C      1  0.5539700000000  0.4578010000000  0.5455390000000 1.0
C      1  0.4594530000000  0.4053420000000  0.4539500000000 1.0
C      1  0.4844840000000  0.4520210000000  0.4080660000000 1.0
C      1  0.5185950000000  0.3875220000000  0.5190580000000 1.0
C      1  0.5124790000000  0.4011980000000  0.4681620000000 1.0
C      1  0.5735120000000  0.4198020000000  0.4997850000000 1.0
C      1  0.5785790000000  0.5370300000000  0.5769260000000 1.0
C      1  0.5231900000000  0.5976550000000  0.4649670000000 1.0
C      1  0.4967400000000  0.5566220000000  0.5135820000000 1.0
C      1  0.6195170000000  0.5230920000000  0.4885900000000 1.0
C      1  0.4833710000000  0.4674120000000  0.4586590000000 1.0
C      1  0.5075320000000  0.5655990000000  0.4826020000000 1.0
C      1  0.5369100000000  0.4072560000000  0.4899590000000 1.0
C      1  0.5008610000000  0.5039830000000  0.4131680000000 1.0
C      1  0.5064030000000  0.4224600000000  0.4233910000000 1.0
C      1  0.4107320000000  0.5786370000000  0.4709530000000 1.0
C      1  0.4642520000000  0.4651660000000  0.5810840000000 1.0
C      1  0.5341780000000  0.5084710000000  0.5940290000000 1.0
C      1  0.4751920000000  0.4582740000000  0.5435260000000 1.0
C      1  0.5774160000000  0.5347200000000  0.4385480000000 1.0
C      1  0.5176500000000  0.4947150000000  0.6175130000000 1.0
C      1  0.4736860000000  0.5349700000000  0.6088400000000 1.0
C      1  0.4322700000000  0.5605250000000  0.5674740000000 1.0
C      1  0.5891540000000  0.4349330000000  0.5235880000000 1.0
C      1  0.5291200000000  0.4178270000000  0.4091680000000 1.0
C      1  0.4856370000000  0.5886380000000  0.4748340000000 1.0
C      1  0.4769400000000  0.5289100000000  0.5377550000000 1.0
C      1  0.4793800000000  0.4146120000000  0.5433840000000 1.0
C      1  0.4289630000000  0.4255690000000  0.4842010000000 1.0
C      1  0.5830940000000  0.4554520000000  0.5401350000000 1.0
C      1  0.4127120000000  0.4993120000000  0.4782570000000 1.0
C      1  0.5584360000000  0.4606670000000  0.5762880000000 1.0
C      1  0.5157060000000  0.5199150000000  0.4738450000000 1.0
C      1  0.5582800000000  0.4899540000000  0.5832200000000 1.0
C      1  0.5432490000000  0.4912310000000  0.5093060000000 1.0
C      1  0.4467400000000  0.4134190000000  0.5338070000000 1.0
C      1  0.5781010000000  0.5068090000000  0.5613310000000 1.0
C      1  0.4649880000000  0.4543570000000  0.4349230000000 1.0
C      1  0.6001470000000  0.5236560000000  0.5416620000000 1.0
C      1  0.4997820000000  0.5494140000000  0.6060320000000 1.0
C      1  0.5276210000000  0.4826620000000  0.4805970000000 1.0
C      1  0.5205360000000  0.5096630000000  0.3860270000000 1.0
C      1  0.4137960000000  0.4511190000000  0.4946570000000 1.0
C      1  0.4756770000000  0.5044720000000  0.5921630000000 1.0
C      1  0.5052900000000  0.4746860000000  0.3975270000000 1.0
C      1  0.5059320000000  0.4641480000000  0.4841490000000 1.0
C      1  0.5572610000000  0.4970670000000  0.4727860000000 1.0
C      1  0.5543440000000  0.4332870000000  0.4179130000000 1.0
C      1  0.4144610000000  0.5582910000000  0.4501610000000 1.0
C      1  0.3925950000000  0.5364400000000  0.4510770000000 1.0
C      1  0.5044120000000  0.4538750000000  0.4356340000000 1.0
C      1  0.4861600000000  0.5739960000000  0.4270730000000 1.0
C      1  0.4361040000000  0.5622290000000  0.4259340000000 1.0
C      1  0.4411760000000  0.5108310000000  0.4757680000000 1.0
C      1  0.5041960000000  0.5961590000000  0.5493650000000 1.0
C      1  0.4265490000000  0.6004100000000  0.4836010000000 1.0
C      1  0.6027520000000  0.4559020000000  0.4656370000000 1.0
C      1  0.4518540000000  0.5746030000000  0.5486310000000 1.0
C      1  0.5393790000000  0.5527420000000  0.4075910000000 1.0
C      1  0.4971580000000  0.3887650000000  0.4939690000000 1.0
C      1  0.4341610000000  0.5305600000000  0.4500230000000 1.0
C      1  0.4899530000000  0.5435070000000  0.4184890000000 1.0
C      1  0.5116650000000  0.5500480000000  0.5434990000000 1.0
C      1  0.5460240000000  0.5744540000000  0.5209390000000 1.0
C      1  0.5609060000000  0.4736590000000  0.4525330000000 1.0
C      1  0.4780850000000  0.4361980000000  0.4897320000000 1.0
C      1  0.5234790000000  0.4879900000000  0.5715370000000 1.0
C      1  0.4451680000000  0.5624120000000  0.4828530000000 1.0
C      1  0.5028190000000  0.6126890000000  0.4826160000000 1.0
C      1  0.4781330000000  0.4284090000000  0.6027220000000 1.0
C      1  0.5422210000000  0.4895010000000  0.4013280000000 1.0
C      1  0.4784860000000  0.4365460000000  0.5694720000000 1.0
C      1  0.5919950000000  0.4867760000000  0.4562620000000 1.0
C      1  0.4913350000000  0.4961930000000  0.3751640000000 1.0
C      1  0.4941600000000  0.4820010000000  0.6097800000000 1.0
C      1  0.4592090000000  0.5785490000000  0.4361030000000 1.0
C      1  0.5295500000000  0.5374170000000  0.5823590000000 1.0
C      1  0.5203340000000  0.5537960000000  0.4533340000000 1.0
C      1  0.5742930000000  0.5074440000000  0.4358630000000 1.0
C      1  0.5474180000000  0.5268940000000  0.4637390000000 1.0
C      1  0.4037400000000  0.5281520000000  0.5044200000000 1.0
C      1  0.4928410000000  0.4172270000000  0.5119680000000 1.0
C      1  0.4520690000000  0.4204390000000  0.5010980000000 1.0
C      1  0.4646380000000  0.5356250000000  0.4750880000000 1.0
C      1  0.5544240000000  0.4357560000000  0.5865350000000 1.0
C      1  0.4516030000000  0.5379880000000  0.5843590000000 1.0
C      1  0.4600760000000  0.5043420000000  0.5235660000000 1.0
C      1  0.5793130000000  0.4605720000000  0.4854650000000 1.0
C      1  0.6114700000000  0.4950890000000  0.5363760000000 1.0
C      1  0.5001840000000  0.5221500000000  0.5765550000000 1.0
C      1  0.5318570000000  0.4647640000000  0.4432460000000 1.0
C      1  0.4365140000000  0.5263050000000  0.5133970000000 1.0
C      1  0.4205760000000  0.4991140000000  0.5261690000000 1.0
C      1  0.4239780000000  0.5078490000000  0.4268570000000 1.0
C      1  0.5711860000000  0.5607220000000  0.5536850000000 1.0
C      1  0.5056270000000  0.6130320000000  0.5105490000000 1.0
C      1  0.3751980000000  0.5357130000000  0.5217750000000 1.0
C      1  0.5092100000000  0.5816380000000  0.4433960000000 1.0
C      1  0.5997640000000  0.5029730000000  0.5076370000000 1.0
C      1  0.3926640000000  0.5210530000000  0.4279820000000 1.0
C      1  0.4249350000000  0.5184990000000  0.5511760000000 1.0
C      1  0.4259810000000  0.4397040000000  0.5242970000000 1.0
C      1  0.4968320000000  0.4810540000000  0.5190400000000 1.0
C      1  0.6015990000000  0.5439330000000  0.4532050000000 1.0
END
