TITL C-2848509-3138-373 -0.0198585965834583 125000 -949.851691395228 0 0 176 (C1) n - 1
REM
REM in /home/bkarasulu/work/CARBON/AIRSS/Generating-Clusters/AIREBO/with-SteepDescent/Only-C1/SD-CG-opt/Try1-1.4A-POS3A/HFTN-CG
REM
REM
REM
REM
REM
REM ./C.cell (11c1c37f851c82e70ff6c80c92926a4b)
REM
REM compiler GCC version 9.2.1 20190827 (Red Hat 9.2.1-1)
REM options -cpp -mtune=generic -march=x86-64 -g -O0 -fpre-include=/usr/include/finclude/math-vector-fortran.h
REM seed -707619539 852208666 29635363 -955172882 442436781 -993304260 1234929676 337100464 1971885366 -1963530754 -1260567784 1957117613 -73102147 -1425698444 -2009419470 -2044649676 -453827974 -328612219 -1309561661 16105946 169560863 288036425 1896654814 1594669068 803214658 154223387 -828412763 -968258037 182548436 11228362 -2144614218 -826977832 862263252
REM
CELL 1.54180   50.00000   50.00000   50.00000   90.00000   90.00000   90.00000
LATT -1
SFAC C  
C      1  0.5637640000000  0.5615010000000  0.4975570000000 1.0
C      1  0.4331740000000  0.4948530000000  0.5169310000000 1.0
C      1  0.4012830000000  0.4963630000000  0.4327110000000 1.0
C      1  0.4996420000000  0.3994210000000  0.5488400000000 1.0
C      1  0.5716060000000  0.4388020000000  0.5579720000000 1.0
C      1  0.4796840000000  0.5310520000000  0.5682290000000 1.0
C      1  0.4948500000000  0.5805760000000  0.5593040000000 1.0
C      1  0.4451060000000  0.5541760000000  0.5416210000000 1.0
C      1  0.5767730000000  0.4687670000000  0.4164340000000 1.0
C      1  0.4636730000000  0.4543070000000  0.5347730000000 1.0
C      1  0.4365570000000  0.4765790000000  0.4818700000000 1.0
C      1  0.5669650000000  0.5186720000000  0.4751370000000 1.0
C      1  0.5046720000000  0.4688040000000  0.4646350000000 1.0
C      1  0.5747260000000  0.4278180000000  0.5248890000000 1.0
C      1  0.5185080000000  0.4909890000000  0.4139500000000 1.0
C      1  0.5233600000000  0.5330560000000  0.5377080000000 1.0
C      1  0.4810240000000  0.5749830000000  0.5002500000000 1.0
C      1  0.5484780000000  0.5496930000000  0.4218350000000 1.0
C      1  0.4286170000000  0.5273100000000  0.5490430000000 1.0
C      1  0.4611660000000  0.5052550000000  0.5006150000000 1.0
C      1  0.4576980000000  0.5118570000000  0.5554960000000 1.0
C      1  0.4497140000000  0.4721320000000  0.4030740000000 1.0
C      1  0.4876750000000  0.5500420000000  0.4266790000000 1.0
C      1  0.6055500000000  0.5279780000000  0.5120230000000 1.0
C      1  0.5792210000000  0.4667000000000  0.4438590000000 1.0
C      1  0.4596120000000  0.4517390000000  0.4359190000000 1.0
C      1  0.4937320000000  0.6043310000000  0.4955970000000 1.0
C      1  0.4038130000000  0.5395540000000  0.4992530000000 1.0
C      1  0.4804650000000  0.4617130000000  0.4972320000000 1.0
C      1  0.5237530000000  0.4807080000000  0.5294780000000 1.0
C      1  0.5781450000000  0.5557000000000  0.4663700000000 1.0
C      1  0.5378230000000  0.5284200000000  0.5001930000000 1.0
C      1  0.4454280000000  0.4068580000000  0.4835350000000 1.0
C      1  0.4215520000000  0.4852460000000  0.5773610000000 1.0
C      1  0.5180400000000  0.4215260000000  0.5042860000000 1.0
C      1  0.4871300000000  0.5036850000000  0.6059850000000 1.0
C      1  0.5917130000000  0.5350240000000  0.4876390000000 1.0
C      1  0.4924790000000  0.4371870000000  0.5130710000000 1.0
C      1  0.5392780000000  0.4590000000000  0.4252690000000 1.0
C      1  0.4863480000000  0.4065470000000  0.5232180000000 1.0
C      1  0.5054620000000  0.5334520000000  0.3791040000000 1.0
C      1  0.4395670000000  0.4554100000000  0.5577950000000 1.0
C      1  0.4913660000000  0.4384590000000  0.5467190000000 1.0
C      1  0.4232350000000  0.5598010000000  0.4808720000000 1.0
C      1  0.5318220000000  0.4697720000000  0.4811720000000 1.0
C      1  0.5119130000000  0.5648140000000  0.4224570000000 1.0
C      1  0.4564220000000  0.5636750000000  0.4881630000000 1.0
C      1  0.4701540000000  0.5252290000000  0.5968130000000 1.0
C      1  0.5691080000000  0.5816720000000  0.5310320000000 1.0
C      1  0.5420780000000  0.4309610000000  0.5162990000000 1.0
C      1  0.5634480000000  0.4637830000000  0.5363810000000 1.0
C      1  0.5823950000000  0.4873630000000  0.5515450000000 1.0
C      1  0.3852060000000  0.5048060000000  0.5320840000000 1.0
C      1  0.5403700000000  0.5416650000000  0.6016240000000 1.0
C      1  0.5481980000000  0.5176990000000  0.4152410000000 1.0
C      1  0.5846110000000  0.5525030000000  0.5228910000000 1.0
C      1  0.5060060000000  0.6148010000000  0.4388720000000 1.0
C      1  0.4013120000000  0.4418420000000  0.5290610000000 1.0
C      1  0.5374520000000  0.4301880000000  0.4419870000000 1.0
C      1  0.5642770000000  0.5123330000000  0.5658370000000 1.0
C      1  0.4117870000000  0.4581870000000  0.4742150000000 1.0
C      1  0.4728360000000  0.5395420000000  0.4553510000000 1.0
C      1  0.5445200000000  0.5816410000000  0.4226350000000 1.0
C      1  0.4667480000000  0.4961510000000  0.4200940000000 1.0
C      1  0.5092900000000  0.4859110000000  0.5599440000000 1.0
C      1  0.5944720000000  0.4558120000000  0.5299320000000 1.0
C      1  0.5350070000000  0.4707220000000  0.5726210000000 1.0
C      1  0.5698860000000  0.4642130000000  0.4912610000000 1.0
C      1  0.4254790000000  0.5734080000000  0.5289470000000 1.0
C      1  0.4594960000000  0.5685150000000  0.4312470000000 1.0
C      1  0.5362620000000  0.5568390000000  0.5170650000000 1.0
C      1  0.5406740000000  0.5368280000000  0.4690220000000 1.0
C      1  0.6139780000000  0.4998410000000  0.5123110000000 1.0
C      1  0.5857190000000  0.5446070000000  0.5562490000000 1.0
C      1  0.5209750000000  0.6037510000000  0.4221210000000 1.0
C      1  0.4988640000000  0.5522800000000  0.4729850000000 1.0
C      1  0.5163250000000  0.4426150000000  0.5934350000000 1.0
C      1  0.4826200000000  0.4773890000000  0.5449040000000 1.0
C      1  0.5935050000000  0.4909590000000  0.4586170000000 1.0
C      1  0.4538730000000  0.5310100000000  0.4822550000000 1.0
C      1  0.4120230000000  0.4169700000000  0.5308780000000 1.0
C      1  0.6122040000000  0.4827430000000  0.5357110000000 1.0
C      1  0.4614620000000  0.5906680000000  0.4541880000000 1.0
C      1  0.4414780000000  0.5436440000000  0.4421000000000 1.0
C      1  0.5268780000000  0.3983070000000  0.5528000000000 1.0
C      1  0.5136580000000  0.3976780000000  0.4852110000000 1.0
C      1  0.5400390000000  0.5749700000000  0.5455850000000 1.0
C      1  0.5632520000000  0.5211390000000  0.5964110000000 1.0
C      1  0.5145810000000  0.5704680000000  0.4970680000000 1.0
C      1  0.5892310000000  0.5384590000000  0.5829080000000 1.0
C      1  0.4041890000000  0.4811090000000  0.5264820000000 1.0
C      1  0.4614390000000  0.5275650000000  0.5263240000000 1.0
C      1  0.4992860000000  0.4077570000000  0.4609050000000 1.0
C      1  0.5047600000000  0.5076370000000  0.4926280000000 1.0
C      1  0.5675590000000  0.5854600000000  0.4737300000000 1.0
C      1  0.5673030000000  0.4684790000000  0.5754760000000 1.0
C      1  0.4947630000000  0.5363160000000  0.5008020000000 1.0
C      1  0.5199010000000  0.5706970000000  0.5666240000000 1.0
C      1  0.4413410000000  0.5250180000000  0.5978470000000 1.0
C      1  0.4862500000000  0.3839730000000  0.4999670000000 1.0
C      1  0.4902680000000  0.5574570000000  0.5255770000000 1.0
C      1  0.4163210000000  0.5235270000000  0.4303420000000 1.0
C      1  0.4378210000000  0.4416600000000  0.4117240000000 1.0
C      1  0.5330170000000  0.5010190000000  0.4860800000000 1.0
C      1  0.5562420000000  0.4260850000000  0.4663780000000 1.0
C      1  0.4648370000000  0.4496750000000  0.4694600000000 1.0
C      1  0.5099390000000  0.6091980000000  0.5191500000000 1.0
C      1  0.4940820000000  0.4644540000000  0.5815280000000 1.0
C      1  0.4005670000000  0.5603750000000  0.5245750000000 1.0
C      1  0.5504530000000  0.4849390000000  0.4062620000000 1.0
C      1  0.5062690000000  0.4397220000000  0.4516550000000 1.0
C      1  0.5627350000000  0.5270340000000  0.5175180000000 1.0
C      1  0.5305970000000  0.5543820000000  0.4488800000000 1.0
C      1  0.4939390000000  0.5180930000000  0.5294970000000 1.0
C      1  0.4571210000000  0.3989430000000  0.5107050000000 1.0
C      1  0.4783290000000  0.5063930000000  0.4503850000000 1.0
C      1  0.4745410000000  0.4790650000000  0.5995750000000 1.0
C      1  0.3909320000000  0.4895410000000  0.4876940000000 1.0
C      1  0.5701800000000  0.5050590000000  0.4381640000000 1.0
C      1  0.5258600000000  0.4823730000000  0.4437380000000 1.0
C      1  0.5459620000000  0.4992610000000  0.5404410000000 1.0
C      1  0.4562700000000  0.5479280000000  0.4041830000000 1.0
C      1  0.5228970000000  0.5470480000000  0.5815330000000 1.0
C      1  0.4063400000000  0.5118510000000  0.4809100000000 1.0
C      1  0.5474180000000  0.4018240000000  0.4858520000000 1.0
C      1  0.3947580000000  0.4595520000000  0.5022220000000 1.0
C      1  0.5401740000000  0.5965590000000  0.5193180000000 1.0
C      1  0.5736920000000  0.4991430000000  0.5207520000000 1.0
C      1  0.5812720000000  0.4935460000000  0.4902580000000 1.0
C      1  0.4690810000000  0.4438560000000  0.5791320000000 1.0
C      1  0.4242520000000  0.5134740000000  0.5773140000000 1.0
C      1  0.4673940000000  0.4177080000000  0.4623530000000 1.0
C      1  0.4892120000000  0.4464940000000  0.4230320000000 1.0
C      1  0.4351620000000  0.4751540000000  0.4327340000000 1.0
C      1  0.5205220000000  0.4429700000000  0.5608660000000 1.0
C      1  0.4963420000000  0.6047000000000  0.5441700000000 1.0
C      1  0.4886570000000  0.6019350000000  0.4626310000000 1.0
C      1  0.5145910000000  0.5208430000000  0.4072530000000 1.0
C      1  0.4407110000000  0.5965570000000  0.4717340000000 1.0
C      1  0.4501510000000  0.4678630000000  0.5092570000000 1.0
C      1  0.4825080000000  0.4142270000000  0.4320490000000 1.0
C      1  0.4456330000000  0.4739280000000  0.5927180000000 1.0
C      1  0.5770760000000  0.4186400000000  0.4922330000000 1.0
C      1  0.4519270000000  0.4237320000000  0.5573870000000 1.0
C      1  0.5727410000000  0.5389130000000  0.4400820000000 1.0
C      1  0.4399100000000  0.5038960000000  0.4397400000000 1.0
C      1  0.4096980000000  0.4634710000000  0.5540020000000 1.0
C      1  0.5194710000000  0.4346010000000  0.4130690000000 1.0
C      1  0.5106070000000  0.5193460000000  0.5661070000000 1.0
C      1  0.4379480000000  0.4091770000000  0.5343260000000 1.0
C      1  0.5113810000000  0.5805930000000  0.4588930000000 1.0
C      1  0.4938540000000  0.4865610000000  0.5162090000000 1.0
C      1  0.4818210000000  0.4900290000000  0.4782220000000 1.0
C      1  0.5420230000000  0.5922040000000  0.4540400000000 1.0
C      1  0.5437050000000  0.4622960000000  0.5121480000000 1.0
C      1  0.5173160000000  0.5043320000000  0.5958830000000 1.0
C      1  0.4141160000000  0.5376770000000  0.4607200000000 1.0
C      1  0.4355100000000  0.4369660000000  0.4765030000000 1.0
C      1  0.5555900000000  0.5373680000000  0.5461550000000 1.0
C      1  0.5486830000000  0.4904300000000  0.5952480000000 1.0
C      1  0.4584080000000  0.4826720000000  0.5624460000000 1.0
C      1  0.6107670000000  0.4768690000000  0.4874220000000 1.0
C      1  0.5381760000000  0.5907000000000  0.4880200000000 1.0
C      1  0.4363990000000  0.5057770000000  0.4696170000000 1.0
C      1  0.4116270000000  0.5200800000000  0.5241900000000 1.0
C      1  0.4807190000000  0.5244370000000  0.4067760000000 1.0
C      1  0.4750340000000  0.5570900000000  0.5519230000000 1.0
C      1  0.4814800000000  0.4144130000000  0.5686450000000 1.0
C      1  0.4334060000000  0.5830840000000  0.5017830000000 1.0
C      1  0.4926270000000  0.4762390000000  0.4119190000000 1.0
C      1  0.5454210000000  0.4990460000000  0.4576040000000 1.0
C      1  0.5957530000000  0.4466600000000  0.4972030000000 1.0
C      1  0.5579680000000  0.4567470000000  0.4637060000000 1.0
C      1  0.5424480000000  0.4252930000000  0.5480710000000 1.0
C      1  0.4117750000000  0.4419820000000  0.4212370000000 1.0
C      1  0.4064560000000  0.4648350000000  0.4442260000000 1.0
END
