TITL C-2847951-7423-274 0.00288009932659077 125000 -165.775133159687 0 0 31 (C1) n - 1
REM
REM in /home/bkarasulu/work/CARBON/AIRSS/Generating-Clusters/AIREBO/with-SteepDescent/Only-C1/SD-CG-opt/Try1-1.4A-POS3A/HFTN-CG
REM
REM
REM
REM
REM
REM ./C.cell (11c1c37f851c82e70ff6c80c92926a4b)
REM
REM compiler GCC version 9.2.1 20190827 (Red Hat 9.2.1-1)
REM options -cpp -mtune=generic -march=x86-64 -g -O0 -fpre-include=/usr/include/finclude/math-vector-fortran.h
REM seed 317770844 -1071092465 -522477963 249753720 1483540078 1466974446 172973173 -1339720067 2056220324 -521017744 -1670123900 1022991454 1873087288 -100940838 1737485542 -260936854 1817869115 -1512138777 1052484428 727406091 -1063067704 843192434 1211110511 -651721889 821831789 -412281525 -1304103645 -659193051 191101883 1149152750 1899649089 1200728953 2086541697
REM
CELL 1.54180   50.00000   50.00000   50.00000   90.00000   90.00000   90.00000
LATT -1
SFAC C  
C      1  0.4983780000000  0.4401000000000  0.4827240000000 1.0
C      1  0.5029760000000  0.5419760000000  0.4889040000000 1.0
C      1  0.4621740000000  0.4536360000000  0.5143740000000 1.0
C      1  0.5067980000000  0.5302240000000  0.4615080000000 1.0
C      1  0.4813420000000  0.5575740000000  0.5388420000000 1.0
C      1  0.5137930000000  0.4579310000000  0.5357290000000 1.0
C      1  0.4638100000000  0.4804490000000  0.4670740000000 1.0
C      1  0.4885290000000  0.4712700000000  0.5402810000000 1.0
C      1  0.4791890000000  0.4505210000000  0.4618850000000 1.0
C      1  0.5137640000000  0.5245420000000  0.5577660000000 1.0
C      1  0.5293790000000  0.5398210000000  0.5082450000000 1.0
C      1  0.5216650000000  0.4985170000000  0.5053690000000 1.0
C      1  0.5404180000000  0.5335100000000  0.5293460000000 1.0
C      1  0.4791260000000  0.5753110000000  0.5178640000000 1.0
C      1  0.5360900000000  0.4736230000000  0.5444910000000 1.0
C      1  0.5161340000000  0.4463250000000  0.5085590000000 1.0
C      1  0.5424880000000  0.4942160000000  0.5225750000000 1.0
C      1  0.5218490000000  0.4844500000000  0.4603870000000 1.0
C      1  0.5407660000000  0.5086060000000  0.5520990000000 1.0
C      1  0.4974340000000  0.5346240000000  0.5387800000000 1.0
C      1  0.4826460000000  0.4649390000000  0.4987340000000 1.0
C      1  0.4844820000000  0.5217340000000  0.4455620000000 1.0
C      1  0.4776550000000  0.4923420000000  0.5272230000000 1.0
C      1  0.4795900000000  0.4935020000000  0.4435310000000 1.0
C      1  0.4358840000000  0.4800970000000  0.4652300000000 1.0
C      1  0.5123640000000  0.4770440000000  0.4873380000000 1.0
C      1  0.4864540000000  0.5677020000000  0.4925140000000 1.0
C      1  0.5291250000000  0.5123430000000  0.4590180000000 1.0
C      1  0.4962560000000  0.5176470000000  0.5112070000000 1.0
C      1  0.4758750000000  0.4969050000000  0.4935690000000 1.0
C      1  0.5035680000000  0.4785160000000  0.4392710000000 1.0
END
