TITL C-2848506-1665-204 0.00186596295093567 125000 -952.402808752946 0 0 175 (C1) n - 1
REM
REM in /home/bkarasulu/work/CARBON/AIRSS/Generating-Clusters/AIREBO/with-SteepDescent/Only-C1/SD-CG-opt/Try1-1.4A-POS3A/HFTN-CG
REM
REM
REM
REM
REM
REM ./C.cell (11c1c37f851c82e70ff6c80c92926a4b)
REM
REM compiler GCC version 9.2.1 20190827 (Red Hat 9.2.1-1)
REM options -cpp -mtune=generic -march=x86-64 -g -O0 -fpre-include=/usr/include/finclude/math-vector-fortran.h
REM seed 474963078 1036871867 -701927367 470408252 -1686769887 -44440558 -2024867161 342563340 -667883852 -487540818 -177243753 -62674948 -1357550455 -494471623 -1376901188 740761187 1746837501 -1818800945 -1968719542 1134084947 -48150420 214956631 1809604909 1664044244 -994092590 -1185077114 1005844286 451672298 168618898 -1838265010 1584161905 -1959126401 -609060293
REM
CELL 1.54180   50.00000   50.00000   50.00000   90.00000   90.00000   90.00000
LATT -1
SFAC C  
C      1  0.4428310000000  0.4332850000000  0.5212380000000 1.0
C      1  0.4354450000000  0.5499130000000  0.5453250000000 1.0
C      1  0.4862610000000  0.5657600000000  0.4812870000000 1.0
C      1  0.4172130000000  0.5321850000000  0.5663890000000 1.0
C      1  0.4712100000000  0.4954380000000  0.6032910000000 1.0
C      1  0.5491370000000  0.5409800000000  0.4111500000000 1.0
C      1  0.5425060000000  0.6009770000000  0.5084890000000 1.0
C      1  0.5847430000000  0.5557390000000  0.5176770000000 1.0
C      1  0.4241620000000  0.4375630000000  0.4704430000000 1.0
C      1  0.4515640000000  0.4649730000000  0.5300710000000 1.0
C      1  0.4969750000000  0.4023450000000  0.5393120000000 1.0
C      1  0.5230080000000  0.5352440000000  0.5612750000000 1.0
C      1  0.4545370000000  0.4281140000000  0.4307940000000 1.0
C      1  0.5616650000000  0.4623450000000  0.4133950000000 1.0
C      1  0.5762180000000  0.5298720000000  0.5673500000000 1.0
C      1  0.3920510000000  0.4683960000000  0.4594610000000 1.0
C      1  0.4588770000000  0.5131050000000  0.5819660000000 1.0
C      1  0.4901790000000  0.5803340000000  0.4184540000000 1.0
C      1  0.4499780000000  0.4252860000000  0.5709360000000 1.0
C      1  0.4937100000000  0.4531440000000  0.5451060000000 1.0
C      1  0.5045390000000  0.5718710000000  0.4547410000000 1.0
C      1  0.5754560000000  0.5310580000000  0.4248820000000 1.0
C      1  0.5578580000000  0.5592780000000  0.5329200000000 1.0
C      1  0.5537010000000  0.5624720000000  0.4361460000000 1.0
C      1  0.4696080000000  0.5865010000000  0.4425320000000 1.0
C      1  0.4261510000000  0.4905690000000  0.4309930000000 1.0
C      1  0.5946430000000  0.4531910000000  0.5378870000000 1.0
C      1  0.5786300000000  0.4195870000000  0.4916940000000 1.0
C      1  0.5253320000000  0.5263970000000  0.4267610000000 1.0
C      1  0.4949480000000  0.4330610000000  0.5825790000000 1.0
C      1  0.5449820000000  0.4551840000000  0.5920940000000 1.0
C      1  0.4719310000000  0.4369950000000  0.5040320000000 1.0
C      1  0.3901140000000  0.4933250000000  0.5010310000000 1.0
C      1  0.4329750000000  0.5204390000000  0.4214570000000 1.0
C      1  0.4546590000000  0.6038870000000  0.5198160000000 1.0
C      1  0.3985970000000  0.4924060000000  0.4745650000000 1.0
C      1  0.5856210000000  0.5006210000000  0.4635500000000 1.0
C      1  0.5104610000000  0.4770930000000  0.5612600000000 1.0
C      1  0.4890040000000  0.4875590000000  0.4133170000000 1.0
C      1  0.5135370000000  0.4228340000000  0.4929000000000 1.0
C      1  0.5794150000000  0.5548550000000  0.4856300000000 1.0
C      1  0.5514110000000  0.4801080000000  0.6046790000000 1.0
C      1  0.5332530000000  0.5270610000000  0.4603430000000 1.0
C      1  0.5801080000000  0.4490370000000  0.4284270000000 1.0
C      1  0.4620150000000  0.4585130000000  0.4184030000000 1.0
C      1  0.5186740000000  0.5745660000000  0.5568860000000 1.0
C      1  0.5595820000000  0.5285050000000  0.4790010000000 1.0
C      1  0.5118000000000  0.4846260000000  0.5288280000000 1.0
C      1  0.4941290000000  0.5196740000000  0.6046620000000 1.0
C      1  0.6027520000000  0.4781310000000  0.4778150000000 1.0
C      1  0.5256190000000  0.4725170000000  0.4780750000000 1.0
C      1  0.5632910000000  0.4447700000000  0.5438090000000 1.0
C      1  0.4894610000000  0.5489170000000  0.5935240000000 1.0
C      1  0.5013890000000  0.5248800000000  0.4720160000000 1.0
C      1  0.6058760000000  0.4668670000000  0.5594450000000 1.0
C      1  0.4530130000000  0.4481970000000  0.4556460000000 1.0
C      1  0.5620320000000  0.4779260000000  0.5414630000000 1.0
C      1  0.5264480000000  0.4373560000000  0.4410290000000 1.0
C      1  0.4715390000000  0.6194860000000  0.5348620000000 1.0
C      1  0.4773780000000  0.5146260000000  0.4025250000000 1.0
C      1  0.4635130000000  0.5306630000000  0.4252190000000 1.0
C      1  0.4630220000000  0.5420970000000  0.4737800000000 1.0
C      1  0.5215810000000  0.5661060000000  0.4255890000000 1.0
C      1  0.4806910000000  0.5544060000000  0.5298510000000 1.0
C      1  0.5397900000000  0.5473000000000  0.5081610000000 1.0
C      1  0.3918610000000  0.4706810000000  0.5206120000000 1.0
C      1  0.4370280000000  0.4815900000000  0.5664520000000 1.0
C      1  0.5001980000000  0.5294790000000  0.5414330000000 1.0
C      1  0.4259680000000  0.4687700000000  0.4570420000000 1.0
C      1  0.4887060000000  0.4944800000000  0.4808800000000 1.0
C      1  0.4897560000000  0.6019170000000  0.5464290000000 1.0
C      1  0.5748430000000  0.5046350000000  0.4343430000000 1.0
C      1  0.5471610000000  0.4201240000000  0.4485570000000 1.0
C      1  0.5735730000000  0.5084250000000  0.5017030000000 1.0
C      1  0.5118800000000  0.5573960000000  0.5798150000000 1.0
C      1  0.5840570000000  0.5508480000000  0.4461460000000 1.0
C      1  0.4822330000000  0.4624440000000  0.4532890000000 1.0
C      1  0.5536660000000  0.5406290000000  0.5560510000000 1.0
C      1  0.4503130000000  0.4085590000000  0.4547540000000 1.0
C      1  0.4669190000000  0.3903780000000  0.5344150000000 1.0
C      1  0.5079250000000  0.4452750000000  0.4679760000000 1.0
C      1  0.4069970000000  0.5401190000000  0.5048290000000 1.0
C      1  0.5318490000000  0.4940020000000  0.4524480000000 1.0
C      1  0.5484120000000  0.5194890000000  0.5199630000000 1.0
C      1  0.5015560000000  0.4903940000000  0.4519600000000 1.0
C      1  0.5634000000000  0.4838660000000  0.4831810000000 1.0
C      1  0.4112610000000  0.5351560000000  0.4366610000000 1.0
C      1  0.4962510000000  0.5488140000000  0.4111510000000 1.0
C      1  0.5467360000000  0.4268690000000  0.4990490000000 1.0
C      1  0.5375510000000  0.3939570000000  0.4513670000000 1.0
C      1  0.4740720000000  0.4662390000000  0.4922440000000 1.0
C      1  0.5290570000000  0.4471150000000  0.5205850000000 1.0
C      1  0.4007060000000  0.5118130000000  0.5538150000000 1.0
C      1  0.4307750000000  0.5617960000000  0.5075360000000 1.0
C      1  0.5281900000000  0.4058620000000  0.5417990000000 1.0
C      1  0.5111420000000  0.3919740000000  0.4608870000000 1.0
C      1  0.4775170000000  0.5088180000000  0.5555830000000 1.0
C      1  0.4129560000000  0.5721770000000  0.5344530000000 1.0
C      1  0.4170760000000  0.6013910000000  0.4801580000000 1.0
C      1  0.5539160000000  0.4537150000000  0.4794500000000 1.0
C      1  0.4934880000000  0.4065860000000  0.5726100000000 1.0
C      1  0.5149320000000  0.6000460000000  0.5273420000000 1.0
C      1  0.5850580000000  0.4903940000000  0.5271540000000 1.0
C      1  0.5439020000000  0.5859600000000  0.5383700000000 1.0
C      1  0.4655160000000  0.5581100000000  0.5816400000000 1.0
C      1  0.4943050000000  0.5308360000000  0.4399450000000 1.0
C      1  0.4723560000000  0.4757270000000  0.5492570000000 1.0
C      1  0.4178930000000  0.4614320000000  0.5603470000000 1.0
C      1  0.5355720000000  0.5072890000000  0.5687050000000 1.0
C      1  0.4240130000000  0.4668190000000  0.5102270000000 1.0
C      1  0.4721780000000  0.5738800000000  0.5551780000000 1.0
C      1  0.4912410000000  0.4168960000000  0.4596670000000 1.0
C      1  0.4220910000000  0.5103190000000  0.4583800000000 1.0
C      1  0.4305250000000  0.4360160000000  0.5528380000000 1.0
C      1  0.4980960000000  0.3926700000000  0.4901230000000 1.0
C      1  0.5342160000000  0.4342980000000  0.5511400000000 1.0
C      1  0.5075810000000  0.6008220000000  0.4371440000000 1.0
C      1  0.5583920000000  0.4992220000000  0.5862450000000 1.0
C      1  0.4767280000000  0.5133900000000  0.5039980000000 1.0
C      1  0.4991250000000  0.4310960000000  0.5225730000000 1.0
C      1  0.5073150000000  0.5453480000000  0.4985270000000 1.0
C      1  0.4398240000000  0.4997300000000  0.5458600000000 1.0
C      1  0.3983500000000  0.5171210000000  0.5203100000000 1.0
C      1  0.5336660000000  0.5609710000000  0.4629590000000 1.0
C      1  0.5510000000000  0.4872280000000  0.4262840000000 1.0
C      1  0.4263230000000  0.5303630000000  0.4836320000000 1.0
C      1  0.5094570000000  0.5146870000000  0.5131150000000 1.0
C      1  0.5958850000000  0.5139910000000  0.5469500000000 1.0
C      1  0.5680470000000  0.4633750000000  0.5716100000000 1.0
C      1  0.4547090000000  0.5647230000000  0.4497880000000 1.0
C      1  0.5098320000000  0.5187900000000  0.6278360000000 1.0
C      1  0.4665810000000  0.5916500000000  0.4914190000000 1.0
C      1  0.4223850000000  0.4961180000000  0.5243560000000 1.0
C      1  0.5391900000000  0.4967730000000  0.5404000000000 1.0
C      1  0.5977130000000  0.5320560000000  0.4682560000000 1.0
C      1  0.4972250000000  0.5293980000000  0.3867290000000 1.0
C      1  0.5179370000000  0.4430640000000  0.4002270000000 1.0
C      1  0.5441840000000  0.5298350000000  0.3830690000000 1.0
C      1  0.4649380000000  0.4870210000000  0.4373800000000 1.0
C      1  0.5199930000000  0.4488140000000  0.5748890000000 1.0
C      1  0.4543340000000  0.5254620000000  0.5370800000000 1.0
C      1  0.5723050000000  0.4370370000000  0.4562830000000 1.0
C      1  0.4557810000000  0.5150670000000  0.4544250000000 1.0
C      1  0.5213430000000  0.5146080000000  0.3852310000000 1.0
C      1  0.4877190000000  0.4585250000000  0.3968400000000 1.0
C      1  0.4447700000000  0.5377020000000  0.5819950000000 1.0
C      1  0.4425960000000  0.4769100000000  0.4855690000000 1.0
C      1  0.4683450000000  0.4091570000000  0.4835900000000 1.0
C      1  0.4351060000000  0.5858740000000  0.4906450000000 1.0
C      1  0.5869300000000  0.4916750000000  0.5709920000000 1.0
C      1  0.5091650000000  0.5667760000000  0.5248940000000 1.0
C      1  0.4647520000000  0.4010590000000  0.5628020000000 1.0
C      1  0.5057040000000  0.4662280000000  0.5047400000000 1.0
C      1  0.5029390000000  0.5037750000000  0.5776190000000 1.0
C      1  0.4195650000000  0.4364810000000  0.4987360000000 1.0
C      1  0.5930880000000  0.4463960000000  0.4815290000000 1.0
C      1  0.5434670000000  0.4494210000000  0.3963490000000 1.0
C      1  0.4452360000000  0.5819570000000  0.5387410000000 1.0
C      1  0.4631360000000  0.4733890000000  0.5819040000000 1.0
C      1  0.4500710000000  0.5062310000000  0.4867570000000 1.0
C      1  0.3962290000000  0.4784430000000  0.5488910000000 1.0
C      1  0.4687990000000  0.4434750000000  0.5836380000000 1.0
C      1  0.5543790000000  0.5723460000000  0.4949900000000 1.0
C      1  0.5349450000000  0.4997570000000  0.4961960000000 1.0
C      1  0.6059370000000  0.5355420000000  0.5270630000000 1.0
C      1  0.5001450000000  0.4518510000000  0.4272480000000 1.0
C      1  0.6014930000000  0.5245130000000  0.4993900000000 1.0
C      1  0.5210180000000  0.4968760000000  0.4134680000000 1.0
C      1  0.4792050000000  0.6015310000000  0.4649320000000 1.0
C      1  0.4583640000000  0.5417940000000  0.5075000000000 1.0
C      1  0.4528080000000  0.4018540000000  0.5129480000000 1.0
C      1  0.5094960000000  0.6091400000000  0.4671220000000 1.0
C      1  0.5973460000000  0.4663950000000  0.5085040000000 1.0
C      1  0.5295130000000  0.5901730000000  0.4800240000000 1.0
C      1  0.5439080000000  0.4000000000000  0.5196360000000 1.0
END
