TITL C-2848505-4874-362 0.00149542454044115 125000 -154.614767524727 0 0 27 (C1) n - 1
REM
REM in /home/bkarasulu/work/CARBON/AIRSS/Generating-Clusters/AIREBO/with-SteepDescent/Only-C1/SD-CG-opt/Try1-1.4A-POS3A/HFTN-CG
REM
REM
REM
REM
REM
REM ./C.cell (11c1c37f851c82e70ff6c80c92926a4b)
REM
REM compiler GCC version 9.2.1 20190827 (Red Hat 9.2.1-1)
REM options -cpp -mtune=generic -march=x86-64 -g -O0 -fpre-include=/usr/include/finclude/math-vector-fortran.h
REM seed 1826811363 390676545 820519997 -464925664 -1509297773 1616133947 811675065 489371569 -1612780620 -971248693 101571001 219624732 -973804432 -982175987 -1003989407 -502597590 -1909502279 1925953904 2022850965 759631811 -408060616 1537172775 -1987782568 67816281 -1927491564 349332576 1345592340 -1544092001 -1695662215 396735971 1349124714 732268387 536384892
REM
CELL 1.54180   50.00000   50.00000   50.00000   90.00000   90.00000   90.00000
LATT -1
SFAC C  
C      1  0.5366910000000  0.4769190000000  0.4675950000000 1.0
C      1  0.4846950000000  0.4824860000000  0.4394170000000 1.0
C      1  0.4833040000000  0.4731610000000  0.5019510000000 1.0
C      1  0.4373320000000  0.5030060000000  0.5123570000000 1.0
C      1  0.5163050000000  0.5474830000000  0.5004680000000 1.0
C      1  0.5108930000000  0.4606640000000  0.5106760000000 1.0
C      1  0.5286650000000  0.5214710000000  0.4858230000000 1.0
C      1  0.4796980000000  0.5332800000000  0.4658230000000 1.0
C      1  0.4770390000000  0.4808730000000  0.5345550000000 1.0
C      1  0.5442820000000  0.4503890000000  0.4782310000000 1.0
C      1  0.5213950000000  0.4399820000000  0.4954250000000 1.0
C      1  0.4846320000000  0.4801870000000  0.4737200000000 1.0
C      1  0.5061440000000  0.5367700000000  0.5462480000000 1.0
C      1  0.5126880000000  0.4789460000000  0.4545540000000 1.0
C      1  0.5554840000000  0.4579180000000  0.5060940000000 1.0
C      1  0.4474510000000  0.5278490000000  0.5066330000000 1.0
C      1  0.5348760000000  0.4974190000000  0.5432750000000 1.0
C      1  0.4611400000000  0.5453930000000  0.4835900000000 1.0
C      1  0.4744190000000  0.5078940000000  0.4567310000000 1.0
C      1  0.4704700000000  0.5490860000000  0.5147170000000 1.0
C      1  0.5348080000000  0.4819670000000  0.5171000000000 1.0
C      1  0.4528060000000  0.4800210000000  0.5152840000000 1.0
C      1  0.5389820000000  0.4966050000000  0.4888140000000 1.0
C      1  0.5069120000000  0.5399140000000  0.4704110000000 1.0
C      1  0.4977570000000  0.5480670000000  0.5218580000000 1.0
C      1  0.5114830000000  0.5099300000000  0.5529260000000 1.0
C      1  0.4896470000000  0.4923190000000  0.5557230000000 1.0
END
