TITL C-2847957-7266-309 -0.00175437982267595 125000 -341.593040059228 0 0 62 (C1) n - 1
REM
REM in /home/bkarasulu/work/CARBON/AIRSS/Generating-Clusters/AIREBO/with-SteepDescent/Only-C1/SD-CG-opt/Try1-1.4A-POS3A/HFTN-CG
REM
REM
REM
REM
REM
REM ./C.cell (11c1c37f851c82e70ff6c80c92926a4b)
REM
REM compiler GCC version 9.2.1 20190827 (Red Hat 9.2.1-1)
REM options -cpp -mtune=generic -march=x86-64 -g -O0 -fpre-include=/usr/include/finclude/math-vector-fortran.h
REM seed -1098728347 -980103281 -1190053924 -817243751 293585424 1812274713 -1335659269 -1581281055 1728016311 1594738343 1841998486 -1638674302 1120191609 -914201741 338255337 933517506 -259271745 -861827653 -951757937 -2050274524 1103345143 -2034002225 205991186 -693907386 805029468 -1939520816 -1099461880 -926277221 -1004385247 -1849780147 473456836 -629279200 -1002124366
REM
CELL 1.54180   50.00000   50.00000   50.00000   90.00000   90.00000   90.00000
LATT -1
SFAC C  
C      1  0.5147610000000  0.5274480000000  0.4256560000000 1.0
C      1  0.5185170000000  0.4368750000000  0.4630040000000 1.0
C      1  0.4537460000000  0.4521630000000  0.4985190000000 1.0
C      1  0.5251340000000  0.5275550000000  0.5662090000000 1.0
C      1  0.5196580000000  0.5051290000000  0.4954710000000 1.0
C      1  0.4957030000000  0.4601050000000  0.4965870000000 1.0
C      1  0.4379730000000  0.4902760000000  0.5763500000000 1.0
C      1  0.4882770000000  0.5341290000000  0.5239830000000 1.0
C      1  0.5006390000000  0.4323920000000  0.5148150000000 1.0
C      1  0.5440190000000  0.5296180000000  0.5458370000000 1.0
C      1  0.4909230000000  0.4855040000000  0.5269510000000 1.0
C      1  0.5176850000000  0.4674670000000  0.4522950000000 1.0
C      1  0.5389230000000  0.5508800000000  0.5284630000000 1.0
C      1  0.5483530000000  0.5472070000000  0.5023750000000 1.0
C      1  0.5115490000000  0.5025390000000  0.4158230000000 1.0
C      1  0.4673170000000  0.5347050000000  0.4490000000000 1.0
C      1  0.4504510000000  0.4789390000000  0.4778210000000 1.0
C      1  0.4567070000000  0.4699560000000  0.5753380000000 1.0
C      1  0.4981450000000  0.4384940000000  0.5412850000000 1.0
C      1  0.4271400000000  0.4982770000000  0.4884270000000 1.0
C      1  0.4513600000000  0.4591720000000  0.5259160000000 1.0
C      1  0.5414790000000  0.4656650000000  0.5330980000000 1.0
C      1  0.4762840000000  0.4851480000000  0.4988760000000 1.0
C      1  0.5667780000000  0.4806410000000  0.5490700000000 1.0
C      1  0.5203230000000  0.4904170000000  0.5233120000000 1.0
C      1  0.4948110000000  0.5112300000000  0.4750410000000 1.0
C      1  0.5909280000000  0.5350480000000  0.4748900000000 1.0
C      1  0.4787740000000  0.5622270000000  0.4878970000000 1.0
C      1  0.5506430000000  0.5113840000000  0.4655790000000 1.0
C      1  0.4767880000000  0.5712870000000  0.5148010000000 1.0
C      1  0.4933380000000  0.5355510000000  0.5572760000000 1.0
C      1  0.4254250000000  0.4974730000000  0.5525560000000 1.0
C      1  0.4292250000000  0.4751000000000  0.5309500000000 1.0
C      1  0.5733000000000  0.5336130000000  0.4971110000000 1.0
C      1  0.5593440000000  0.5037680000000  0.4979190000000 1.0
C      1  0.4999130000000  0.4799610000000  0.4284470000000 1.0
C      1  0.5209740000000  0.4725280000000  0.4857610000000 1.0
C      1  0.4745270000000  0.5594860000000  0.5419910000000 1.0
C      1  0.4595880000000  0.5084340000000  0.4293520000000 1.0
C      1  0.4763590000000  0.5181850000000  0.5027990000000 1.0
C      1  0.5116320000000  0.5581470000000  0.5298550000000 1.0
C      1  0.4454680000000  0.5254030000000  0.4974540000000 1.0
C      1  0.5030360000000  0.4236270000000  0.4825510000000 1.0
C      1  0.4764080000000  0.4641530000000  0.5486430000000 1.0
C      1  0.5797790000000  0.5193950000000  0.4542970000000 1.0
C      1  0.5486950000000  0.4726220000000  0.5015350000000 1.0
C      1  0.5504930000000  0.5042240000000  0.5307760000000 1.0
C      1  0.4566510000000  0.4635780000000  0.4483110000000 1.0
C      1  0.4573060000000  0.5463980000000  0.4771430000000 1.0
C      1  0.5020180000000  0.5066370000000  0.5721580000000 1.0
C      1  0.4960270000000  0.5454130000000  0.4448980000000 1.0
C      1  0.5030470000000  0.5558100000000  0.4732550000000 1.0
C      1  0.4730940000000  0.4336090000000  0.4874680000000 1.0
C      1  0.5206610000000  0.4993020000000  0.4564380000000 1.0
C      1  0.5009350000000  0.4807580000000  0.5653610000000 1.0
C      1  0.4668270000000  0.5040750000000  0.4623820000000 1.0
C      1  0.5307150000000  0.5357650000000  0.4527250000000 1.0
C      1  0.4718650000000  0.4803480000000  0.4306390000000 1.0
C      1  0.4287970000000  0.5067940000000  0.5204800000000 1.0
C      1  0.5160650000000  0.4599440000000  0.5510150000000 1.0
C      1  0.5262120000000  0.5358900000000  0.4855000000000 1.0
C      1  0.5684850000000  0.4521270000000  0.4902640000000 1.0
END
