TITL C-2847956-8218-742 -1.25601140345345e-05 125000 -760.031098628632 0 0 145 (C1) n - 1
REM
REM in /home/bkarasulu/work/CARBON/AIRSS/Generating-Clusters/AIREBO/with-SteepDescent/Only-C1/SD-CG-opt/Try1-1.4A-POS3A/HFTN-CG
REM
REM
REM
REM
REM
REM ./C.cell (11c1c37f851c82e70ff6c80c92926a4b)
REM
REM compiler GCC version 9.2.1 20190827 (Red Hat 9.2.1-1)
REM options -cpp -mtune=generic -march=x86-64 -g -O0 -fpre-include=/usr/include/finclude/math-vector-fortran.h
REM seed 1722395722 772989191 -391532141 -1774234628 402707318 951223402 1493771316 203701460 1423212606 1192412276 -174720983 -1053152631 918513200 -853811121 -1901900917 -1948496035 576834720 1838446345 -206701438 2034602770 -2104476990 2141963809 1091530478 -1423612527 766713518 1500049314 1530010013 634094056 -9050721 -298270097 -1506239155 -462924166 -1741041308
REM
CELL 1.54180   50.00000   50.00000   50.00000   90.00000   90.00000   90.00000
LATT -1
SFAC C  
C      1  0.4259310000000  0.5406120000000  0.4843970000000 1.0
C      1  0.4388730000000  0.5091580000000  0.4838710000000 1.0
C      1  0.4321750000000  0.4938790000000  0.5823600000000 1.0
C      1  0.5893550000000  0.4725100000000  0.5427820000000 1.0
C      1  0.5214530000000  0.4975520000000  0.4512830000000 1.0
C      1  0.5193170000000  0.5220320000000  0.5785140000000 1.0
C      1  0.5628960000000  0.5022820000000  0.4667340000000 1.0
C      1  0.5718420000000  0.4889450000000  0.5565640000000 1.0
C      1  0.4568090000000  0.4810840000000  0.5061570000000 1.0
C      1  0.4339780000000  0.5708600000000  0.4970510000000 1.0
C      1  0.5134640000000  0.4999580000000  0.6037200000000 1.0
C      1  0.5371640000000  0.5691330000000  0.4833480000000 1.0
C      1  0.5960220000000  0.4586140000000  0.4822400000000 1.0
C      1  0.5027280000000  0.4891540000000  0.4060030000000 1.0
C      1  0.4283020000000  0.5220180000000  0.5649390000000 1.0
C      1  0.4227120000000  0.4739700000000  0.5336470000000 1.0
C      1  0.5121670000000  0.5077480000000  0.5029110000000 1.0
C      1  0.5672880000000  0.5190160000000  0.5472730000000 1.0
C      1  0.4361230000000  0.4771330000000  0.4090300000000 1.0
C      1  0.4705920000000  0.4265390000000  0.5615190000000 1.0
C      1  0.4772630000000  0.5961960000000  0.4771740000000 1.0
C      1  0.5299750000000  0.4763350000000  0.5979740000000 1.0
C      1  0.4133540000000  0.4486390000000  0.5175760000000 1.0
C      1  0.4695880000000  0.5493600000000  0.5463760000000 1.0
C      1  0.5885910000000  0.5656630000000  0.5191890000000 1.0
C      1  0.4844790000000  0.4814700000000  0.5259440000000 1.0
C      1  0.4603050000000  0.4804490000000  0.5907780000000 1.0
C      1  0.5721750000000  0.5099160000000  0.5148630000000 1.0
C      1  0.5021010000000  0.4719530000000  0.4569880000000 1.0
C      1  0.5997500000000  0.5280680000000  0.5485260000000 1.0
C      1  0.5757800000000  0.4466530000000  0.5282240000000 1.0
C      1  0.5532470000000  0.4842880000000  0.5081610000000 1.0
C      1  0.5860470000000  0.5374200000000  0.5004260000000 1.0
C      1  0.5333570000000  0.5324540000000  0.4986670000000 1.0
C      1  0.4527640000000  0.4507570000000  0.5462000000000 1.0
C      1  0.5058470000000  0.4342610000000  0.4446660000000 1.0
C      1  0.5303800000000  0.4155800000000  0.5509420000000 1.0
C      1  0.5644000000000  0.5515090000000  0.4795910000000 1.0
C      1  0.4966850000000  0.5645590000000  0.5732790000000 1.0
C      1  0.4206060000000  0.4986580000000  0.5105760000000 1.0
C      1  0.4789320000000  0.5732150000000  0.4189100000000 1.0
C      1  0.5878190000000  0.4808100000000  0.4613090000000 1.0
C      1  0.5018690000000  0.4511660000000  0.5644990000000 1.0
C      1  0.4960720000000  0.5297720000000  0.5548710000000 1.0
C      1  0.3951000000000  0.5289140000000  0.5069760000000 1.0
C      1  0.5010660000000  0.6011280000000  0.4646640000000 1.0
C      1  0.4587750000000  0.4988700000000  0.4335560000000 1.0
C      1  0.5786050000000  0.4682060000000  0.4354780000000 1.0
C      1  0.4270390000000  0.4706280000000  0.4403780000000 1.0
C      1  0.6036790000000  0.5019300000000  0.5057530000000 1.0
C      1  0.5424860000000  0.5288470000000  0.4684620000000 1.0
C      1  0.4481870000000  0.4834700000000  0.4636040000000 1.0
C      1  0.4703830000000  0.4613130000000  0.4630610000000 1.0
C      1  0.5248950000000  0.5797700000000  0.4561530000000 1.0
C      1  0.5683500000000  0.4429020000000  0.4352530000000 1.0
C      1  0.4669430000000  0.5053860000000  0.5407100000000 1.0
C      1  0.4711680000000  0.4580270000000  0.5735220000000 1.0
C      1  0.4724640000000  0.4375210000000  0.4388500000000 1.0
C      1  0.4952110000000  0.4112530000000  0.4633070000000 1.0
C      1  0.4853200000000  0.4272930000000  0.5244090000000 1.0
C      1  0.4936440000000  0.5570340000000  0.5157470000000 1.0
C      1  0.4367420000000  0.5021730000000  0.3982760000000 1.0
C      1  0.4888310000000  0.5384100000000  0.4513370000000 1.0
C      1  0.5249610000000  0.5255900000000  0.5394300000000 1.0
C      1  0.4875390000000  0.5133150000000  0.4721990000000 1.0
C      1  0.5008520000000  0.4221690000000  0.5507320000000 1.0
C      1  0.4804490000000  0.4967880000000  0.5707050000000 1.0
C      1  0.5618170000000  0.4878680000000  0.4237780000000 1.0
C      1  0.5352540000000  0.4803950000000  0.4273920000000 1.0
C      1  0.5131590000000  0.4109510000000  0.4894660000000 1.0
C      1  0.4940580000000  0.4835510000000  0.4873290000000 1.0
C      1  0.4889540000000  0.5236020000000  0.5221630000000 1.0
C      1  0.5343670000000  0.4922170000000  0.4822870000000 1.0
C      1  0.4019040000000  0.5211030000000  0.4745810000000 1.0
C      1  0.6100780000000  0.5272820000000  0.5228940000000 1.0
C      1  0.5429770000000  0.4203200000000  0.5262510000000 1.0
C      1  0.6083480000000  0.4988250000000  0.4770770000000 1.0
C      1  0.5109900000000  0.5121960000000  0.4238980000000 1.0
C      1  0.4313240000000  0.4302720000000  0.4988830000000 1.0
C      1  0.5390030000000  0.5722090000000  0.5316570000000 1.0
C      1  0.4346040000000  0.5597190000000  0.4598470000000 1.0
C      1  0.4530890000000  0.4495560000000  0.5168680000000 1.0
C      1  0.4380930000000  0.4227100000000  0.4720500000000 1.0
C      1  0.5505220000000  0.5289700000000  0.5751690000000 1.0
C      1  0.4802120000000  0.5198680000000  0.4170150000000 1.0
C      1  0.4912390000000  0.4556270000000  0.5065600000000 1.0
C      1  0.5153650000000  0.4934770000000  0.5336080000000 1.0
C      1  0.4993890000000  0.3849410000000  0.5065000000000 1.0
C      1  0.5635090000000  0.4475750000000  0.5599630000000 1.0
C      1  0.3875890000000  0.4972910000000  0.5025250000000 1.0
C      1  0.5219770000000  0.5615770000000  0.5081810000000 1.0
C      1  0.5191400000000  0.4435000000000  0.4984070000000 1.0
C      1  0.4098400000000  0.5236990000000  0.4345560000000 1.0
C      1  0.4953610000000  0.4667590000000  0.4240630000000 1.0
C      1  0.5600310000000  0.5577420000000  0.5624030000000 1.0
C      1  0.4781150000000  0.5499820000000  0.4013010000000 1.0
C      1  0.4684970000000  0.4137020000000  0.4799140000000 1.0
C      1  0.4177040000000  0.5549250000000  0.4379080000000 1.0
C      1  0.4682700000000  0.5118730000000  0.4978580000000 1.0
C      1  0.5759900000000  0.4457620000000  0.4958460000000 1.0
C      1  0.4594130000000  0.5383010000000  0.4342400000000 1.0
C      1  0.5533550000000  0.5622050000000  0.4492520000000 1.0
C      1  0.4996840000000  0.5689700000000  0.4410750000000 1.0
C      1  0.5475200000000  0.4752350000000  0.5691390000000 1.0
C      1  0.5269520000000  0.5893860000000  0.5655730000000 1.0
C      1  0.5432650000000  0.4118280000000  0.4981420000000 1.0
C      1  0.4633000000000  0.4667470000000  0.4240830000000 1.0
C      1  0.5395350000000  0.4303380000000  0.4472250000000 1.0
C      1  0.5218610000000  0.5363400000000  0.4434880000000 1.0
C      1  0.4737990000000  0.5690010000000  0.4951400000000 1.0
C      1  0.5239010000000  0.4484890000000  0.5869790000000 1.0
C      1  0.4359560000000  0.5253880000000  0.4128430000000 1.0
C      1  0.5522420000000  0.5385000000000  0.4309810000000 1.0
C      1  0.5496630000000  0.5403110000000  0.5274600000000 1.0
C      1  0.4442540000000  0.5903490000000  0.4710390000000 1.0
C      1  0.4676310000000  0.4446930000000  0.4873580000000 1.0
C      1  0.4532970000000  0.5197660000000  0.5886860000000 1.0
C      1  0.6055500000000  0.5274130000000  0.4750410000000 1.0
C      1  0.5292620000000  0.4590730000000  0.4728880000000 1.0
C      1  0.5051670000000  0.5996330000000  0.5560500000000 1.0
C      1  0.4797620000000  0.5046100000000  0.6039320000000 1.0
C      1  0.5659230000000  0.5148190000000  0.4352090000000 1.0
C      1  0.4623650000000  0.5816580000000  0.4431430000000 1.0
C      1  0.5524480000000  0.4347910000000  0.4783820000000 1.0
C      1  0.5262630000000  0.5560640000000  0.5587590000000 1.0
C      1  0.4390120000000  0.5198700000000  0.4515990000000 1.0
C      1  0.4398490000000  0.4402380000000  0.4486770000000 1.0
C      1  0.4013650000000  0.4816220000000  0.4801180000000 1.0
C      1  0.5249750000000  0.4509390000000  0.4240170000000 1.0
C      1  0.5272300000000  0.4640680000000  0.5457780000000 1.0
C      1  0.4074680000000  0.4955230000000  0.4527970000000 1.0
C      1  0.5657160000000  0.5240460000000  0.6014270000000 1.0
C      1  0.4677020000000  0.5586040000000  0.4675580000000 1.0
C      1  0.5710280000000  0.5722900000000  0.5381840000000 1.0
C      1  0.4466040000000  0.5309640000000  0.5313220000000 1.0
C      1  0.4161560000000  0.5238610000000  0.5332020000000 1.0
C      1  0.5093490000000  0.4938190000000  0.5650570000000 1.0
C      1  0.4783540000000  0.4052450000000  0.5081860000000 1.0
C      1  0.5436130000000  0.4536860000000  0.5197150000000 1.0
C      1  0.4270630000000  0.4694230000000  0.4944180000000 1.0
C      1  0.5429250000000  0.4309180000000  0.5719230000000 1.0
C      1  0.4538070000000  0.5606550000000  0.5194140000000 1.0
C      1  0.4872260000000  0.5765810000000  0.5429080000000 1.0
C      1  0.4793460000000  0.5384180000000  0.5832000000000 1.0
C      1  0.4448130000000  0.4829850000000  0.5535840000000 1.0
END
