TITL C-2847944-5688-533 0.00307985691358367 125000 -504.448491653104 0 0 94 (C1) n - 1
REM
REM in /home/bkarasulu/work/CARBON/AIRSS/Generating-Clusters/AIREBO/with-SteepDescent/Only-C1/SD-CG-opt/Try1-1.4A-POS3A/HFTN-CG
REM
REM
REM
REM
REM
REM ./C.cell (11c1c37f851c82e70ff6c80c92926a4b)
REM
REM compiler GCC version 9.2.1 20190827 (Red Hat 9.2.1-1)
REM options -cpp -mtune=generic -march=x86-64 -g -O0 -fpre-include=/usr/include/finclude/math-vector-fortran.h
REM seed 489343421 -314318637 1908125562 902730687 -1323615445 2064946924 -1716861935 1978254143 -1246207325 836118201 -2086911780 -639421040 1952101650 1971551115 -1720588036 -2101960762 464691803 -1620156138 -1046129912 -382159395 -1368649882 1216016827 -749917364 2003309923 -1520212936 -370985070 -550052392 60247272 -38215670 -588689727 1126297868 -936717860 -1160333995
REM
CELL 1.54180   50.00000   50.00000   50.00000   90.00000   90.00000   90.00000
LATT -1
SFAC C  
C      1  0.5200360000000  0.5409490000000  0.5423960000000 1.0
C      1  0.5282440000000  0.4752530000000  0.4998840000000 1.0
C      1  0.4923120000000  0.4371940000000  0.4580420000000 1.0
C      1  0.5464200000000  0.4785570000000  0.4460240000000 1.0
C      1  0.4474840000000  0.4798000000000  0.5467600000000 1.0
C      1  0.5258810000000  0.4475870000000  0.5179050000000 1.0
C      1  0.4350050000000  0.5093270000000  0.4572500000000 1.0
C      1  0.4855230000000  0.4773440000000  0.5832460000000 1.0
C      1  0.4966980000000  0.4879470000000  0.4994860000000 1.0
C      1  0.5951020000000  0.4948180000000  0.5438480000000 1.0
C      1  0.4584650000000  0.4224570000000  0.4947200000000 1.0
C      1  0.5729240000000  0.4718840000000  0.4662500000000 1.0
C      1  0.4969140000000  0.5482990000000  0.4959690000000 1.0
C      1  0.4738250000000  0.5241280000000  0.5647240000000 1.0
C      1  0.4764400000000  0.5805610000000  0.4634850000000 1.0
C      1  0.4372550000000  0.5356960000000  0.4870110000000 1.0
C      1  0.5677810000000  0.5731640000000  0.4970200000000 1.0
C      1  0.5751020000000  0.4949340000000  0.5254200000000 1.0
C      1  0.5440380000000  0.5003390000000  0.4258580000000 1.0
C      1  0.5685710000000  0.5154740000000  0.5072730000000 1.0
C      1  0.4130070000000  0.5299670000000  0.4638640000000 1.0
C      1  0.5650530000000  0.4439450000000  0.5126710000000 1.0
C      1  0.5374560000000  0.5227740000000  0.5652580000000 1.0
C      1  0.4975520000000  0.5157850000000  0.5465660000000 1.0
C      1  0.4437830000000  0.4624000000000  0.5191950000000 1.0
C      1  0.5440730000000  0.4707630000000  0.5761350000000 1.0
C      1  0.4486800000000  0.4549630000000  0.4407820000000 1.0
C      1  0.4585310000000  0.4604480000000  0.5705000000000 1.0
C      1  0.5765960000000  0.5213430000000  0.4534210000000 1.0
C      1  0.4152910000000  0.5075530000000  0.5239160000000 1.0
C      1  0.4944160000000  0.5002180000000  0.4547210000000 1.0
C      1  0.5333360000000  0.5387410000000  0.4497140000000 1.0
C      1  0.5440330000000  0.4342500000000  0.4901560000000 1.0
C      1  0.5212160000000  0.4478980000000  0.4435590000000 1.0
C      1  0.5245360000000  0.5835980000000  0.4709110000000 1.0
C      1  0.5021080000000  0.4062300000000  0.5252870000000 1.0
C      1  0.5058230000000  0.4729710000000  0.4264530000000 1.0
C      1  0.5536240000000  0.5246720000000  0.4366120000000 1.0
C      1  0.5056470000000  0.5469030000000  0.4403700000000 1.0
C      1  0.4803080000000  0.4871700000000  0.5510060000000 1.0
C      1  0.4624590000000  0.5854790000000  0.4873780000000 1.0
C      1  0.5181390000000  0.5727670000000  0.5012840000000 1.0
C      1  0.5214240000000  0.5044450000000  0.5261290000000 1.0
C      1  0.4684440000000  0.5107340000000  0.4354470000000 1.0
C      1  0.4792830000000  0.4247540000000  0.5403430000000 1.0
C      1  0.4890320000000  0.4288980000000  0.4862630000000 1.0
C      1  0.4870870000000  0.4854320000000  0.6090750000000 1.0
C      1  0.4715740000000  0.4796550000000  0.4799390000000 1.0
C      1  0.4825910000000  0.4428460000000  0.5637270000000 1.0
C      1  0.4727410000000  0.5643920000000  0.5106320000000 1.0
C      1  0.5359590000000  0.5356660000000  0.4822280000000 1.0
C      1  0.5468560000000  0.4499490000000  0.4644070000000 1.0
C      1  0.4367650000000  0.4439500000000  0.4913080000000 1.0
C      1  0.4929390000000  0.4693680000000  0.4577170000000 1.0
C      1  0.4490830000000  0.5313960000000  0.5465500000000 1.0
C      1  0.4607690000000  0.5299800000000  0.4624180000000 1.0
C      1  0.5160430000000  0.5105350000000  0.4720900000000 1.0
C      1  0.5168600000000  0.5004080000000  0.4187170000000 1.0
C      1  0.4796570000000  0.4699870000000  0.4101310000000 1.0
C      1  0.5074010000000  0.4605080000000  0.5633990000000 1.0
C      1  0.5044820000000  0.5197370000000  0.5009000000000 1.0
C      1  0.4478240000000  0.5460570000000  0.5176420000000 1.0
C      1  0.5396240000000  0.5312390000000  0.5157440000000 1.0
C      1  0.4668810000000  0.4327540000000  0.4403000000000 1.0
C      1  0.5376490000000  0.5625710000000  0.5624770000000 1.0
C      1  0.4323240000000  0.5074630000000  0.5014280000000 1.0
C      1  0.4499620000000  0.5239010000000  0.4147280000000 1.0
C      1  0.5047270000000  0.5789370000000  0.4517660000000 1.0
C      1  0.5696270000000  0.5035630000000  0.4785230000000 1.0
C      1  0.4517240000000  0.4297690000000  0.5248760000000 1.0
C      1  0.4974030000000  0.5223260000000  0.4218820000000 1.0
C      1  0.5393480000000  0.4902490000000  0.4755650000000 1.0
C      1  0.4318000000000  0.4562740000000  0.4663940000000 1.0
C      1  0.4839330000000  0.5483790000000  0.4661060000000 1.0
C      1  0.5278610000000  0.4739360000000  0.5397810000000 1.0
C      1  0.4408820000000  0.4846550000000  0.4661910000000 1.0
C      1  0.5475930000000  0.5653510000000  0.4752660000000 1.0
C      1  0.5629600000000  0.4340090000000  0.5389800000000 1.0
C      1  0.5048580000000  0.5938330000000  0.5226750000000 1.0
C      1  0.5525180000000  0.5443970000000  0.5813810000000 1.0
C      1  0.4669710000000  0.5601700000000  0.5496900000000 1.0
C      1  0.4314650000000  0.5063910000000  0.5462200000000 1.0
C      1  0.5153580000000  0.4212330000000  0.5030180000000 1.0
C      1  0.4373410000000  0.5691580000000  0.4930930000000 1.0
C      1  0.5370140000000  0.4965640000000  0.5634700000000 1.0
C      1  0.5458160000000  0.5644600000000  0.5150230000000 1.0
C      1  0.5471280000000  0.4501930000000  0.5553400000000 1.0
C      1  0.4864430000000  0.4454260000000  0.5158650000000 1.0
C      1  0.4525790000000  0.4885890000000  0.5039660000000 1.0
C      1  0.5555740000000  0.4736850000000  0.5200660000000 1.0
C      1  0.4591010000000  0.4787830000000  0.4274010000000 1.0
C      1  0.4963480000000  0.4728450000000  0.5270160000000 1.0
C      1  0.4740820000000  0.5305080000000  0.5900750000000 1.0
C      1  0.4966000000000  0.5631460000000  0.5343020000000 1.0
END
