TITL C-2847948-6138-603 0.000313758560611642 125000 -679.59299567941 0 0 126 (C1) n - 1
REM
REM in /home/bkarasulu/work/CARBON/AIRSS/Generating-Clusters/AIREBO/with-SteepDescent/Only-C1/SD-CG-opt/Try1-1.4A-POS3A/HFTN-CG
REM
REM
REM
REM
REM
REM ./C.cell (11c1c37f851c82e70ff6c80c92926a4b)
REM
REM compiler GCC version 9.2.1 20190827 (Red Hat 9.2.1-1)
REM options -cpp -mtune=generic -march=x86-64 -g -O0 -fpre-include=/usr/include/finclude/math-vector-fortran.h
REM seed 366255899 1958540214 -241726632 1666583356 1030554019 -87781733 -509334476 1699032798 306637916 1829767715 1701048235 -1754757457 511136625 -1484097673 262900057 -1994665060 1140097948 1042469290 763160828 539953807 -1366431178 -194329760 1717403112 1042132875 -629224006 -1131404626 680795406 -608528521 718634999 747187305 1448018088 -491998979 -1228197851
REM
CELL 1.54180   50.00000   50.00000   50.00000   90.00000   90.00000   90.00000
LATT -1
SFAC C  
C      1  0.5246910000000  0.5948500000000  0.5023850000000 1.0
C      1  0.5122260000000  0.4681400000000  0.5823890000000 1.0
C      1  0.4682060000000  0.5233420000000  0.5090300000000 1.0
C      1  0.4559220000000  0.5968130000000  0.5058320000000 1.0
C      1  0.5173810000000  0.5355520000000  0.5437250000000 1.0
C      1  0.5249640000000  0.5310100000000  0.4558450000000 1.0
C      1  0.5997330000000  0.5515550000000  0.4801530000000 1.0
C      1  0.4149590000000  0.4916540000000  0.5265540000000 1.0
C      1  0.4686430000000  0.4850120000000  0.4121740000000 1.0
C      1  0.4919240000000  0.4480140000000  0.4814860000000 1.0
C      1  0.4654280000000  0.4409860000000  0.5852910000000 1.0
C      1  0.4758350000000  0.5035570000000  0.5356220000000 1.0
C      1  0.5361520000000  0.5299530000000  0.6223800000000 1.0
C      1  0.4887420000000  0.4323140000000  0.5451350000000 1.0
C      1  0.4374830000000  0.5697090000000  0.5063470000000 1.0
C      1  0.5198180000000  0.5192240000000  0.6040500000000 1.0
C      1  0.4662030000000  0.4374660000000  0.4291480000000 1.0
C      1  0.5936170000000  0.4803760000000  0.4845820000000 1.0
C      1  0.5423260000000  0.5436210000000  0.4223650000000 1.0
C      1  0.5083000000000  0.5821580000000  0.4495660000000 1.0
C      1  0.4638230000000  0.5722760000000  0.5277980000000 1.0
C      1  0.5039850000000  0.5127420000000  0.5229510000000 1.0
C      1  0.5635600000000  0.4722200000000  0.4920630000000 1.0
C      1  0.5073380000000  0.5078730000000  0.4382260000000 1.0
C      1  0.3971310000000  0.4640680000000  0.4555410000000 1.0
C      1  0.4444400000000  0.4145260000000  0.5425170000000 1.0
C      1  0.4342000000000  0.5522890000000  0.4814170000000 1.0
C      1  0.4628740000000  0.5046570000000  0.4598530000000 1.0
C      1  0.4937190000000  0.4551060000000  0.4201900000000 1.0
C      1  0.5158150000000  0.5610380000000  0.4274990000000 1.0
C      1  0.5556140000000  0.4338570000000  0.4619690000000 1.0
C      1  0.5038600000000  0.4247640000000  0.4270650000000 1.0
C      1  0.4275610000000  0.3934370000000  0.5475560000000 1.0
C      1  0.4765110000000  0.4619680000000  0.5060180000000 1.0
C      1  0.5170790000000  0.4179800000000  0.5494400000000 1.0
C      1  0.5314360000000  0.4692350000000  0.4254280000000 1.0
C      1  0.4461880000000  0.5661850000000  0.3912410000000 1.0
C      1  0.5368890000000  0.5648040000000  0.4972350000000 1.0
C      1  0.4832270000000  0.4200990000000  0.4515450000000 1.0
C      1  0.5458130000000  0.4246060000000  0.4860190000000 1.0
C      1  0.5629580000000  0.5535980000000  0.5152660000000 1.0
C      1  0.5090030000000  0.5592200000000  0.5126010000000 1.0
C      1  0.5601220000000  0.4859410000000  0.5774760000000 1.0
C      1  0.4477060000000  0.4950400000000  0.5492240000000 1.0
C      1  0.5786010000000  0.5630810000000  0.4579330000000 1.0
C      1  0.4540960000000  0.4652850000000  0.4260270000000 1.0
C      1  0.4411610000000  0.5395770000000  0.5587090000000 1.0
C      1  0.4234140000000  0.5174220000000  0.5470360000000 1.0
C      1  0.5152940000000  0.4904310000000  0.4999120000000 1.0
C      1  0.4713960000000  0.5779610000000  0.4868870000000 1.0
C      1  0.4402290000000  0.4747740000000  0.5157830000000 1.0
C      1  0.5084120000000  0.5683450000000  0.5450130000000 1.0
C      1  0.4124420000000  0.5291740000000  0.4892110000000 1.0
C      1  0.4748560000000  0.4667530000000  0.4598660000000 1.0
C      1  0.5019810000000  0.4954270000000  0.5998950000000 1.0
C      1  0.4156950000000  0.4838950000000  0.4592950000000 1.0
C      1  0.5853770000000  0.4680730000000  0.5257900000000 1.0
C      1  0.5298250000000  0.4379810000000  0.4217250000000 1.0
C      1  0.5045640000000  0.4751880000000  0.4454000000000 1.0
C      1  0.4497380000000  0.4432020000000  0.5073070000000 1.0
C      1  0.4511550000000  0.5253610000000  0.4807450000000 1.0
C      1  0.4830850000000  0.5243030000000  0.5608450000000 1.0
C      1  0.4665330000000  0.4247820000000  0.5631440000000 1.0
C      1  0.5476160000000  0.5009540000000  0.5008810000000 1.0
C      1  0.5151260000000  0.5204870000000  0.5716380000000 1.0
C      1  0.5183660000000  0.4684450000000  0.4752040000000 1.0
C      1  0.4581490000000  0.5498210000000  0.4094810000000 1.0
C      1  0.5583040000000  0.5726630000000  0.5410160000000 1.0
C      1  0.4900830000000  0.5312080000000  0.4747240000000 1.0
C      1  0.5122330000000  0.5969260000000  0.5269660000000 1.0
C      1  0.4753500000000  0.5032370000000  0.5845450000000 1.0
C      1  0.5173750000000  0.4716130000000  0.5260110000000 1.0
C      1  0.4741790000000  0.4191510000000  0.4844190000000 1.0
C      1  0.5604310000000  0.4424310000000  0.5081610000000 1.0
C      1  0.5148710000000  0.5302120000000  0.4968310000000 1.0
C      1  0.5128010000000  0.4228570000000  0.4940370000000 1.0
C      1  0.4092760000000  0.5087240000000  0.4703120000000 1.0
C      1  0.4623450000000  0.5234560000000  0.4074150000000 1.0
C      1  0.4617420000000  0.4656950000000  0.5528600000000 1.0
C      1  0.4877300000000  0.5004700000000  0.4826880000000 1.0
C      1  0.4274340000000  0.4838730000000  0.5981380000000 1.0
C      1  0.4463220000000  0.5692540000000  0.4587490000000 1.0
C      1  0.5962430000000  0.4968530000000  0.4654200000000 1.0
C      1  0.5457770000000  0.5583260000000  0.4534070000000 1.0
C      1  0.4144750000000  0.4581130000000  0.5303850000000 1.0
C      1  0.4784410000000  0.5818430000000  0.4561230000000 1.0
C      1  0.4768480000000  0.5085750000000  0.4323330000000 1.0
C      1  0.5282920000000  0.5137460000000  0.4141860000000 1.0
C      1  0.5592150000000  0.5139190000000  0.4237860000000 1.0
C      1  0.4950000000000  0.5446380000000  0.4472420000000 1.0
C      1  0.4094540000000  0.5224790000000  0.5163230000000 1.0
C      1  0.4621210000000  0.4910390000000  0.5002570000000 1.0
C      1  0.4580230000000  0.5598430000000  0.5726520000000 1.0
C      1  0.5305010000000  0.5833440000000  0.4706650000000 1.0
C      1  0.4995560000000  0.3995360000000  0.4731350000000 1.0
C      1  0.4457690000000  0.4913250000000  0.5817720000000 1.0
C      1  0.5294840000000  0.4929560000000  0.5710800000000 1.0
C      1  0.5449550000000  0.4276680000000  0.5352410000000 1.0
C      1  0.4380910000000  0.4462970000000  0.5453980000000 1.0
C      1  0.5732320000000  0.4439330000000  0.5396260000000 1.0
C      1  0.5220920000000  0.4427860000000  0.5186320000000 1.0
C      1  0.5191170000000  0.4862170000000  0.4013220000000 1.0
C      1  0.4667570000000  0.5591990000000  0.4352460000000 1.0
C      1  0.4441740000000  0.4783670000000  0.4537680000000 1.0
C      1  0.5559380000000  0.4807190000000  0.4387840000000 1.0
C      1  0.5388520000000  0.5748870000000  0.5566980000000 1.0
C      1  0.5272490000000  0.4419550000000  0.5710290000000 1.0
C      1  0.5666770000000  0.4932750000000  0.5279830000000 1.0
C      1  0.5899940000000  0.5389280000000  0.5241760000000 1.0
C      1  0.5526320000000  0.4572970000000  0.5608450000000 1.0
C      1  0.5587610000000  0.4610980000000  0.4619330000000 1.0
C      1  0.5679230000000  0.5437050000000  0.4831170000000 1.0
C      1  0.4918490000000  0.4762800000000  0.3953100000000 1.0
C      1  0.5403030000000  0.5285740000000  0.5193410000000 1.0
C      1  0.4649830000000  0.5415390000000  0.5377790000000 1.0
C      1  0.4777380000000  0.5735900000000  0.5573480000000 1.0
C      1  0.5701040000000  0.5062980000000  0.4524550000000 1.0
C      1  0.4973600000000  0.4106220000000  0.5217550000000 1.0
C      1  0.6105270000000  0.5481080000000  0.5062110000000 1.0
C      1  0.5521970000000  0.5202190000000  0.4731960000000 1.0
C      1  0.4883520000000  0.4608530000000  0.5340520000000 1.0
C      1  0.5404710000000  0.4823140000000  0.5428910000000 1.0
C      1  0.4820360000000  0.5524840000000  0.4982310000000 1.0
C      1  0.5842710000000  0.5166190000000  0.5378920000000 1.0
C      1  0.4639650000000  0.4147690000000  0.5156880000000 1.0
C      1  0.4792090000000  0.4695380000000  0.5804900000000 1.0
END
