TITL C-2847956-8218-572 -0.00145858257398223 125000 -511.810317479616 0 0 93 (C1) n - 1
REM
REM in /home/bkarasulu/work/CARBON/AIRSS/Generating-Clusters/AIREBO/with-SteepDescent/Only-C1/SD-CG-opt/Try1-1.4A-POS3A/HFTN-CG
REM
REM
REM
REM
REM
REM ./C.cell (11c1c37f851c82e70ff6c80c92926a4b)
REM
REM compiler GCC version 9.2.1 20190827 (Red Hat 9.2.1-1)
REM options -cpp -mtune=generic -march=x86-64 -g -O0 -fpre-include=/usr/include/finclude/math-vector-fortran.h
REM seed 1952532568 1352558355 773441424 1737644962 -2142820190 2128272263 -486193426 982469517 -1371850454 -383973225 1068184781 -659095272 1268425723 218291388 1804118229 -1650103555 -1724186564 -700734542 -1376830275 -780718822 619627926 -59893729 -1561161347 -465356528 -437341652 -306624860 174189017 -1789411050 -227007689 540920977 1010408185 -1528501591 -1863104662
REM
CELL 1.54180   50.00000   50.00000   50.00000   90.00000   90.00000   90.00000
LATT -1
SFAC C  
C      1  0.4885080000000  0.3980030000000  0.5176840000000 1.0
C      1  0.4691060000000  0.4924650000000  0.5752980000000 1.0
C      1  0.4995360000000  0.4478330000000  0.5453770000000 1.0
C      1  0.4437930000000  0.4813730000000  0.3674520000000 1.0
C      1  0.4212270000000  0.5552940000000  0.5597370000000 1.0
C      1  0.5107570000000  0.5839940000000  0.5453200000000 1.0
C      1  0.4725770000000  0.4455170000000  0.5827250000000 1.0
C      1  0.4426520000000  0.4746330000000  0.5148660000000 1.0
C      1  0.4939680000000  0.5272770000000  0.4490060000000 1.0
C      1  0.4437580000000  0.4593070000000  0.5431220000000 1.0
C      1  0.4833860000000  0.5929590000000  0.5376160000000 1.0
C      1  0.4594820000000  0.4673490000000  0.5701570000000 1.0
C      1  0.5450530000000  0.5162530000000  0.4547130000000 1.0
C      1  0.4910300000000  0.5730120000000  0.4013520000000 1.0
C      1  0.4474030000000  0.4790920000000  0.3937440000000 1.0
C      1  0.4946910000000  0.4358030000000  0.5692110000000 1.0
C      1  0.4217380000000  0.4430790000000  0.5473880000000 1.0
C      1  0.4831530000000  0.5374040000000  0.5075820000000 1.0
C      1  0.4946040000000  0.4624360000000  0.4518200000000 1.0
C      1  0.4989560000000  0.5261700000000  0.4162190000000 1.0
C      1  0.5499840000000  0.5063240000000  0.4838870000000 1.0
C      1  0.4342780000000  0.5260980000000  0.5623240000000 1.0
C      1  0.5793910000000  0.4794200000000  0.4816570000000 1.0
C      1  0.5725540000000  0.4440040000000  0.5475550000000 1.0
C      1  0.4428310000000  0.4468670000000  0.4741440000000 1.0
C      1  0.5112520000000  0.4972240000000  0.5433870000000 1.0
C      1  0.5827250000000  0.5107850000000  0.4914360000000 1.0
C      1  0.4404940000000  0.5118440000000  0.4705660000000 1.0
C      1  0.4648570000000  0.5813490000000  0.5580810000000 1.0
C      1  0.4899310000000  0.4230500000000  0.5101770000000 1.0
C      1  0.5341420000000  0.5656490000000  0.5453730000000 1.0
C      1  0.5691460000000  0.5388130000000  0.5056820000000 1.0
C      1  0.4758390000000  0.4630650000000  0.5339260000000 1.0
C      1  0.5186810000000  0.5009140000000  0.5751700000000 1.0
C      1  0.5235400000000  0.4909990000000  0.4943640000000 1.0
C      1  0.5058500000000  0.5084670000000  0.3973240000000 1.0
C      1  0.5214110000000  0.5500730000000  0.4883720000000 1.0
C      1  0.5146240000000  0.4389680000000  0.5039950000000 1.0
C      1  0.5467720000000  0.5430760000000  0.5280590000000 1.0
C      1  0.4926950000000  0.5663070000000  0.4951630000000 1.0
C      1  0.4714640000000  0.5093330000000  0.4579520000000 1.0
C      1  0.4679100000000  0.4924960000000  0.5086460000000 1.0
C      1  0.5689130000000  0.4608740000000  0.5207990000000 1.0
C      1  0.5397260000000  0.5832830000000  0.4764730000000 1.0
C      1  0.5897260000000  0.5179260000000  0.5229100000000 1.0
C      1  0.4402980000000  0.5764550000000  0.5672630000000 1.0
C      1  0.4785310000000  0.5896840000000  0.5101200000000 1.0
C      1  0.5587230000000  0.4619770000000  0.4823330000000 1.0
C      1  0.5536930000000  0.5265560000000  0.5552510000000 1.0
C      1  0.4811180000000  0.4965930000000  0.5374820000000 1.0
C      1  0.5417230000000  0.4228520000000  0.4987180000000 1.0
C      1  0.5665060000000  0.4746490000000  0.5580300000000 1.0
C      1  0.4692640000000  0.4281970000000  0.4620980000000 1.0
C      1  0.5611780000000  0.4295680000000  0.5181890000000 1.0
C      1  0.4153120000000  0.5291600000000  0.5855330000000 1.0
C      1  0.4293880000000  0.4689150000000  0.4903260000000 1.0
C      1  0.4669000000000  0.4347850000000  0.4932050000000 1.0
C      1  0.5201810000000  0.4416680000000  0.4062000000000 1.0
C      1  0.4223080000000  0.4925410000000  0.4760090000000 1.0
C      1  0.4988670000000  0.5610250000000  0.4490530000000 1.0
C      1  0.5370870000000  0.4557830000000  0.4659280000000 1.0
C      1  0.5228620000000  0.4658380000000  0.5394300000000 1.0
C      1  0.5436500000000  0.4730450000000  0.4193100000000 1.0
C      1  0.4471070000000  0.4594780000000  0.4463350000000 1.0
C      1  0.4780090000000  0.5364530000000  0.5382300000000 1.0
C      1  0.5320100000000  0.5279700000000  0.5729860000000 1.0
C      1  0.5388780000000  0.4776160000000  0.5640970000000 1.0
C      1  0.4998290000000  0.4268730000000  0.4555520000000 1.0
C      1  0.5259790000000  0.5163350000000  0.5251220000000 1.0
C      1  0.5430610000000  0.4930130000000  0.4351530000000 1.0
C      1  0.5079420000000  0.4636400000000  0.4815700000000 1.0
C      1  0.4662110000000  0.5162150000000  0.4908770000000 1.0
C      1  0.3996570000000  0.5613140000000  0.5441000000000 1.0
C      1  0.5749080000000  0.4963130000000  0.5403790000000 1.0
C      1  0.5078250000000  0.5821410000000  0.4691460000000 1.0
C      1  0.5494930000000  0.5602310000000  0.4920690000000 1.0
C      1  0.5536840000000  0.5031800000000  0.5175760000000 1.0
C      1  0.4406600000000  0.4861250000000  0.3418670000000 1.0
C      1  0.5051550000000  0.5160730000000  0.4999950000000 1.0
C      1  0.4968420000000  0.5551140000000  0.4204790000000 1.0
C      1  0.5092500000000  0.4438810000000  0.4290590000000 1.0
C      1  0.5176310000000  0.5247820000000  0.4694040000000 1.0
C      1  0.4723000000000  0.4810330000000  0.4459850000000 1.0
C      1  0.4889000000000  0.5583290000000  0.5562970000000 1.0
C      1  0.5245450000000  0.4152550000000  0.4736260000000 1.0
C      1  0.4527010000000  0.4748590000000  0.4194910000000 1.0
C      1  0.4797510000000  0.4629090000000  0.5005700000000 1.0
C      1  0.4970200000000  0.6077330000000  0.4640200000000 1.0
C      1  0.5611400000000  0.5389770000000  0.4423970000000 1.0
C      1  0.4917740000000  0.4970340000000  0.5899160000000 1.0
C      1  0.5373060000000  0.4641060000000  0.5086810000000 1.0
C      1  0.5182370000000  0.5515990000000  0.5673240000000 1.0
C      1  0.4604920000000  0.5156670000000  0.5554070000000 1.0
END
