TITL C-2848498-1409-280 0.000289372708047736 125000 -1030.20344709379 0 0 192 (C1) n - 1
REM
REM in /home/bkarasulu/work/CARBON/AIRSS/Generating-Clusters/AIREBO/with-SteepDescent/Only-C1/SD-CG-opt/Try1-1.4A-POS3A/HFTN-CG
REM
REM
REM
REM
REM
REM ./C.cell (11c1c37f851c82e70ff6c80c92926a4b)
REM
REM compiler GCC version 9.2.1 20190827 (Red Hat 9.2.1-1)
REM options -cpp -mtune=generic -march=x86-64 -g -O0 -fpre-include=/usr/include/finclude/math-vector-fortran.h
REM seed 305992154 1691054190 -918528577 -498059691 -1911081666 823286942 2101084134 -2007378185 -1432572246 1472264853 1169766563 -798378384 1432507380 435460751 -1077591769 202319516 -1821535680 2078514842 689368611 1737509403 1378254260 -1358805481 1517898494 -1145391128 211847441 824111206 -692803869 455137513 163828590 1241878757 519307723 576129224 1023856048
REM
CELL 1.54180   50.00000   50.00000   50.00000   90.00000   90.00000   90.00000
LATT -1
SFAC C  
C      1  0.4519410000000  0.5116120000000  0.4556470000000 1.0
C      1  0.4940770000000  0.4326100000000  0.5154230000000 1.0
C      1  0.4247650000000  0.4843270000000  0.5281450000000 1.0
C      1  0.5293160000000  0.4604510000000  0.4252510000000 1.0
C      1  0.4718120000000  0.3865820000000  0.5935140000000 1.0
C      1  0.5472380000000  0.4815400000000  0.3881430000000 1.0
C      1  0.5183430000000  0.4749610000000  0.5752650000000 1.0
C      1  0.5639610000000  0.5826670000000  0.4496720000000 1.0
C      1  0.5229780000000  0.5418440000000  0.5958820000000 1.0
C      1  0.5034640000000  0.6100220000000  0.4905870000000 1.0
C      1  0.4498850000000  0.5608540000000  0.5952420000000 1.0
C      1  0.4328600000000  0.4184830000000  0.5095800000000 1.0
C      1  0.5214340000000  0.6206700000000  0.5108350000000 1.0
C      1  0.5376540000000  0.5485150000000  0.4761860000000 1.0
C      1  0.4774740000000  0.4800860000000  0.5111190000000 1.0
C      1  0.5764270000000  0.5564300000000  0.5039660000000 1.0
C      1  0.6077390000000  0.5084810000000  0.4973150000000 1.0
C      1  0.5213570000000  0.4222300000000  0.4174440000000 1.0
C      1  0.4108120000000  0.4288780000000  0.5231580000000 1.0
C      1  0.5439390000000  0.4210680000000  0.5495310000000 1.0
C      1  0.4458220000000  0.4834390000000  0.5057810000000 1.0
C      1  0.5384830000000  0.4701630000000  0.5003700000000 1.0
C      1  0.4990710000000  0.5054490000000  0.4531990000000 1.0
C      1  0.4129110000000  0.5547190000000  0.5272520000000 1.0
C      1  0.3989270000000  0.4830350000000  0.4529000000000 1.0
C      1  0.5071510000000  0.5338630000000  0.5725350000000 1.0
C      1  0.4446370000000  0.5286750000000  0.3961850000000 1.0
C      1  0.5448710000000  0.4372260000000  0.4058810000000 1.0
C      1  0.4787290000000  0.5420770000000  0.5183000000000 1.0
C      1  0.5171720000000  0.6013260000000  0.4674550000000 1.0
C      1  0.6026780000000  0.5150940000000  0.4399510000000 1.0
C      1  0.4896910000000  0.6024000000000  0.5369580000000 1.0
C      1  0.5627850000000  0.4615780000000  0.4311910000000 1.0
C      1  0.5808740000000  0.4970150000000  0.5147340000000 1.0
C      1  0.5903220000000  0.4837190000000  0.5445670000000 1.0
C      1  0.4573370000000  0.4057180000000  0.4485470000000 1.0
C      1  0.5047930000000  0.5340180000000  0.5385950000000 1.0
C      1  0.5163450000000  0.4833150000000  0.3833260000000 1.0
C      1  0.4668810000000  0.5719830000000  0.5247070000000 1.0
C      1  0.4294460000000  0.5582150000000  0.4315010000000 1.0
C      1  0.4506700000000  0.4440880000000  0.5352640000000 1.0
C      1  0.4697110000000  0.5061930000000  0.5883510000000 1.0
C      1  0.5346550000000  0.4723140000000  0.6078420000000 1.0
C      1  0.4723980000000  0.4319320000000  0.4745090000000 1.0
C      1  0.5975120000000  0.4917830000000  0.4628030000000 1.0
C      1  0.4401340000000  0.5188480000000  0.6006450000000 1.0
C      1  0.5221210000000  0.4912340000000  0.4825210000000 1.0
C      1  0.5267740000000  0.5135330000000  0.4351450000000 1.0
C      1  0.4852250000000  0.4792610000000  0.6021890000000 1.0
C      1  0.5109200000000  0.4269050000000  0.5444080000000 1.0
C      1  0.4913230000000  0.5019180000000  0.4922490000000 1.0
C      1  0.4661880000000  0.5201260000000  0.4824580000000 1.0
C      1  0.5019620000000  0.5830960000000  0.4521920000000 1.0
C      1  0.5415320000000  0.3977170000000  0.5254330000000 1.0
C      1  0.5767050000000  0.5648830000000  0.5430820000000 1.0
C      1  0.4503020000000  0.5508530000000  0.4109500000000 1.0
C      1  0.5527420000000  0.4362730000000  0.5746350000000 1.0
C      1  0.5489650000000  0.5949030000000  0.5303700000000 1.0
C      1  0.5424130000000  0.5233430000000  0.6032680000000 1.0
C      1  0.4320350000000  0.5048760000000  0.5501430000000 1.0
C      1  0.5824580000000  0.5333080000000  0.4360300000000 1.0
C      1  0.5587720000000  0.5553700000000  0.4328510000000 1.0
C      1  0.4364320000000  0.6240700000000  0.5090810000000 1.0
C      1  0.4347610000000  0.5703510000000  0.5135460000000 1.0
C      1  0.5521150000000  0.5161440000000  0.5533260000000 1.0
C      1  0.4436550000000  0.4221680000000  0.4298980000000 1.0
C      1  0.3935640000000  0.5184630000000  0.5034450000000 1.0
C      1  0.5595880000000  0.4095370000000  0.5007410000000 1.0
C      1  0.4636330000000  0.4683620000000  0.4344160000000 1.0
C      1  0.5193960000000  0.5658930000000  0.6084280000000 1.0
C      1  0.4981370000000  0.5566170000000  0.4696770000000 1.0
C      1  0.4502960000000  0.4133240000000  0.5497440000000 1.0
C      1  0.4995280000000  0.5433050000000  0.3969780000000 1.0
C      1  0.5506270000000  0.4967260000000  0.4456480000000 1.0
C      1  0.6046780000000  0.4755630000000  0.4909440000000 1.0
C      1  0.5383000000000  0.5317190000000  0.5052660000000 1.0
C      1  0.5678650000000  0.5607380000000  0.4713330000000 1.0
C      1  0.6104220000000  0.5355200000000  0.5019050000000 1.0
C      1  0.4930700000000  0.4290730000000  0.5727870000000 1.0
C      1  0.4442980000000  0.5625630000000  0.4815980000000 1.0
C      1  0.5185400000000  0.5223580000000  0.4722890000000 1.0
C      1  0.5570790000000  0.5867390000000  0.5567110000000 1.0
C      1  0.4926110000000  0.4547540000000  0.5845620000000 1.0
C      1  0.4743190000000  0.4054610000000  0.5702980000000 1.0
C      1  0.5978250000000  0.4614060000000  0.5199940000000 1.0
C      1  0.4261150000000  0.4269250000000  0.5616380000000 1.0
C      1  0.4412370000000  0.4534650000000  0.4163370000000 1.0
C      1  0.4828320000000  0.5850160000000  0.4323400000000 1.0
C      1  0.5945460000000  0.5086740000000  0.5754800000000 1.0
C      1  0.4489440000000  0.5979070000000  0.4994590000000 1.0
C      1  0.4029260000000  0.5616230000000  0.6201980000000 1.0
C      1  0.4792780000000  0.5584610000000  0.4159140000000 1.0
C      1  0.4445040000000  0.5924900000000  0.4683550000000 1.0
C      1  0.4619030000000  0.4009820000000  0.5121180000000 1.0
C      1  0.5842460000000  0.4522410000000  0.5559250000000 1.0
C      1  0.5097610000000  0.5142820000000  0.3832770000000 1.0
C      1  0.4726650000000  0.5497320000000  0.4857290000000 1.0
C      1  0.5788160000000  0.4186580000000  0.4739820000000 1.0
C      1  0.4978980000000  0.5425130000000  0.4384210000000 1.0
C      1  0.5279730000000  0.5294070000000  0.4070120000000 1.0
C      1  0.4386340000000  0.4593500000000  0.4556430000000 1.0
C      1  0.4410530000000  0.5139480000000  0.4998280000000 1.0
C      1  0.5308250000000  0.5463770000000  0.4429460000000 1.0
C      1  0.5313970000000  0.4718190000000  0.4561880000000 1.0
C      1  0.6006010000000  0.4422430000000  0.4854140000000 1.0
C      1  0.5030160000000  0.4590300000000  0.4685120000000 1.0
C      1  0.5457060000000  0.4431280000000  0.4664090000000 1.0
C      1  0.4399000000000  0.4940780000000  0.5773430000000 1.0
C      1  0.3941650000000  0.4938960000000  0.5168260000000 1.0
C      1  0.5268140000000  0.4201150000000  0.4499540000000 1.0
C      1  0.4484550000000  0.4078170000000  0.4813120000000 1.0
C      1  0.4816640000000  0.4809140000000  0.4677450000000 1.0
C      1  0.5267930000000  0.4388580000000  0.4938740000000 1.0
C      1  0.5343090000000  0.5026410000000  0.6194090000000 1.0
C      1  0.5073490000000  0.3960140000000  0.5310690000000 1.0
C      1  0.4230900000000  0.5453380000000  0.4623230000000 1.0
C      1  0.4185240000000  0.4355250000000  0.4420790000000 1.0
C      1  0.5630710000000  0.4435820000000  0.5368010000000 1.0
C      1  0.5003400000000  0.4591350000000  0.5006790000000 1.0
C      1  0.4183750000000  0.4548270000000  0.5438050000000 1.0
C      1  0.4305000000000  0.5875790000000  0.4380960000000 1.0
C      1  0.4158630000000  0.5214100000000  0.4841070000000 1.0
C      1  0.5605770000000  0.5204390000000  0.5237010000000 1.0
C      1  0.4745160000000  0.3920270000000  0.5389650000000 1.0
C      1  0.6084080000000  0.5672530000000  0.4999180000000 1.0
C      1  0.5657280000000  0.4844010000000  0.4919620000000 1.0
C      1  0.4621090000000  0.4993970000000  0.4305170000000 1.0
C      1  0.4835020000000  0.4903340000000  0.5411690000000 1.0
C      1  0.4171950000000  0.4703700000000  0.5740440000000 1.0
C      1  0.4412500000000  0.5265400000000  0.5267410000000 1.0
C      1  0.4225070000000  0.5055980000000  0.4586530000000 1.0
C      1  0.5161880000000  0.5638150000000  0.5447910000000 1.0
C      1  0.5699610000000  0.4332380000000  0.4447200000000 1.0
C      1  0.4002260000000  0.4988230000000  0.5774610000000 1.0
C      1  0.4141060000000  0.4509100000000  0.5971680000000 1.0
C      1  0.5686450000000  0.5050780000000  0.4679230000000 1.0
C      1  0.5804760000000  0.4330850000000  0.5112520000000 1.0
C      1  0.3904620000000  0.5441570000000  0.5153930000000 1.0
C      1  0.5633270000000  0.5172910000000  0.5834790000000 1.0
C      1  0.5681050000000  0.5261260000000  0.4909550000000 1.0
C      1  0.5168350000000  0.5887510000000  0.5216770000000 1.0
C      1  0.4226730000000  0.5468080000000  0.6037120000000 1.0
C      1  0.5708270000000  0.4569730000000  0.4810050000000 1.0
C      1  0.4870510000000  0.4080180000000  0.4930010000000 1.0
C      1  0.5128540000000  0.4959200000000  0.5296700000000 1.0
C      1  0.5104830000000  0.4596420000000  0.5458950000000 1.0
C      1  0.5595290000000  0.4904010000000  0.4134430000000 1.0
C      1  0.4993080000000  0.4380970000000  0.4033970000000 1.0
C      1  0.4681940000000  0.5187500000000  0.5403230000000 1.0
C      1  0.5703610000000  0.4858700000000  0.5720250000000 1.0
C      1  0.4550220000000  0.4671010000000  0.4800510000000 1.0
C      1  0.4082710000000  0.5331310000000  0.4338750000000 1.0
C      1  0.4053430000000  0.4557730000000  0.4631980000000 1.0
C      1  0.5939190000000  0.5412320000000  0.5292390000000 1.0
C      1  0.4850640000000  0.6185940000000  0.5563270000000 1.0
C      1  0.5200040000000  0.4063310000000  0.5012190000000 1.0
C      1  0.5401660000000  0.4646380000000  0.5302980000000 1.0
C      1  0.4988520000000  0.4865880000000  0.4099420000000 1.0
C      1  0.5445560000000  0.5930070000000  0.4723710000000 1.0
C      1  0.5594950000000  0.5232420000000  0.4145970000000 1.0
C      1  0.4888900000000  0.5132490000000  0.4235090000000 1.0
C      1  0.4205820000000  0.5369900000000  0.5515930000000 1.0
C      1  0.4102300000000  0.5006490000000  0.4278050000000 1.0
C      1  0.5504350000000  0.5783680000000  0.5025150000000 1.0
C      1  0.5913960000000  0.4773630000000  0.4337200000000 1.0
C      1  0.3885770000000  0.4683520000000  0.5317420000000 1.0
C      1  0.4804820000000  0.3921210000000  0.4636630000000 1.0
C      1  0.4662170000000  0.5705930000000  0.5798440000000 1.0
C      1  0.5121660000000  0.5205300000000  0.5116390000000 1.0
C      1  0.4741620000000  0.5335470000000  0.5670970000000 1.0
C      1  0.5186320000000  0.5706550000000  0.4929350000000 1.0
C      1  0.4541740000000  0.4417680000000  0.5014910000000 1.0
C      1  0.6262970000000  0.5143220000000  0.4260580000000 1.0
C      1  0.4137840000000  0.5242090000000  0.5799350000000 1.0
C      1  0.4955690000000  0.4587670000000  0.4292230000000 1.0
C      1  0.4600140000000  0.5987130000000  0.4392880000000 1.0
C      1  0.4829480000000  0.5635070000000  0.5534660000000 1.0
C      1  0.5503770000000  0.4646030000000  0.5801120000000 1.0
C      1  0.3880560000000  0.4447040000000  0.4815340000000 1.0
C      1  0.6003620000000  0.5803820000000  0.5252250000000 1.0
C      1  0.4765070000000  0.4581520000000  0.5469250000000 1.0
C      1  0.4975980000000  0.5013240000000  0.5700610000000 1.0
C      1  0.4970270000000  0.4334840000000  0.4519240000000 1.0
C      1  0.5022790000000  0.4534140000000  0.3804000000000 1.0
C      1  0.4438050000000  0.5027500000000  0.4063760000000 1.0
C      1  0.4802650000000  0.5969930000000  0.5059450000000 1.0
C      1  0.5349440000000  0.4909800000000  0.5502790000000 1.0
C      1  0.5487500000000  0.4035490000000  0.4690760000000 1.0
C      1  0.5468300000000  0.5492650000000  0.5476200000000 1.0
C      1  0.4260340000000  0.4782700000000  0.4076590000000 1.0
C      1  0.6030920000000  0.5155980000000  0.5463440000000 1.0
C      1  0.5066760000000  0.4861230000000  0.6185790000000 1.0
END
