TITL C-2847959-7740-681 -0.00151290122475261 125000 -904.340870678326 0 0 167 (C1) n - 1
REM
REM in /home/bkarasulu/work/CARBON/AIRSS/Generating-Clusters/AIREBO/with-SteepDescent/Only-C1/SD-CG-opt/Try1-1.4A-POS3A/HFTN-CG
REM
REM
REM
REM
REM
REM ./C.cell (11c1c37f851c82e70ff6c80c92926a4b)
REM
REM compiler GCC version 9.2.1 20190827 (Red Hat 9.2.1-1)
REM options -cpp -mtune=generic -march=x86-64 -g -O0 -fpre-include=/usr/include/finclude/math-vector-fortran.h
REM seed -537909950 831946685 1754428897 697697315 979257858 -680078283 4458450 -1844490965 -1633013005 1389480802 387869635 -1671776704 -559734369 2131240852 -1032844691 1182984504 792818063 -1349381248 -741151800 -777348228 2049837610 1790149558 -387549666 -2068315916 298712946 477886465 158657624 1374692279 -2014759920 124055524 1315982760 -754305495 194592154
REM
CELL 1.54180   50.00000   50.00000   50.00000   90.00000   90.00000   90.00000
LATT -1
SFAC C  
C      1  0.4514690000000  0.4811460000000  0.5092890000000 1.0
C      1  0.4460590000000  0.4630900000000  0.5518960000000 1.0
C      1  0.5773110000000  0.5761170000000  0.4666830000000 1.0
C      1  0.4915860000000  0.5230740000000  0.5642220000000 1.0
C      1  0.5009190000000  0.4900590000000  0.6035020000000 1.0
C      1  0.5072910000000  0.4282600000000  0.4743470000000 1.0
C      1  0.5353050000000  0.4277960000000  0.5059040000000 1.0
C      1  0.5113740000000  0.5503340000000  0.3891940000000 1.0
C      1  0.4252280000000  0.5116860000000  0.4893680000000 1.0
C      1  0.5537080000000  0.4749240000000  0.3974990000000 1.0
C      1  0.4128260000000  0.5506580000000  0.4543400000000 1.0
C      1  0.4731180000000  0.5303680000000  0.6138510000000 1.0
C      1  0.5869070000000  0.5795830000000  0.5393330000000 1.0
C      1  0.5254690000000  0.6059280000000  0.4672170000000 1.0
C      1  0.5070570000000  0.4439030000000  0.5478730000000 1.0
C      1  0.4473560000000  0.6031550000000  0.4949030000000 1.0
C      1  0.4596610000000  0.4031230000000  0.5448260000000 1.0
C      1  0.4622600000000  0.5756360000000  0.4242290000000 1.0
C      1  0.4765010000000  0.4504780000000  0.5618680000000 1.0
C      1  0.4186440000000  0.5504190000000  0.4825920000000 1.0
C      1  0.4256260000000  0.4873190000000  0.5394380000000 1.0
C      1  0.5105650000000  0.5504140000000  0.5566160000000 1.0
C      1  0.4707400000000  0.4453590000000  0.4741920000000 1.0
C      1  0.5656850000000  0.4713420000000  0.5077840000000 1.0
C      1  0.4484980000000  0.5356580000000  0.4812140000000 1.0
C      1  0.5864760000000  0.4909950000000  0.4780540000000 1.0
C      1  0.5813330000000  0.4995390000000  0.4355200000000 1.0
C      1  0.5470190000000  0.4702430000000  0.4793630000000 1.0
C      1  0.4644240000000  0.5506370000000  0.4551500000000 1.0
C      1  0.5951450000000  0.4966080000000  0.5166150000000 1.0
C      1  0.4380000000000  0.5090190000000  0.4518900000000 1.0
C      1  0.4427590000000  0.4315890000000  0.5896950000000 1.0
C      1  0.5142560000000  0.4273530000000  0.4184210000000 1.0
C      1  0.5224630000000  0.4215050000000  0.4463560000000 1.0
C      1  0.4821440000000  0.5695840000000  0.5360640000000 1.0
C      1  0.4998020000000  0.5742710000000  0.4892600000000 1.0
C      1  0.4802360000000  0.5303290000000  0.4921900000000 1.0
C      1  0.4843110000000  0.5013190000000  0.5424560000000 1.0
C      1  0.4922140000000  0.4639010000000  0.3876550000000 1.0
C      1  0.5330940000000  0.5842250000000  0.4922550000000 1.0
C      1  0.5512170000000  0.5451720000000  0.4094340000000 1.0
C      1  0.5145500000000  0.4086400000000  0.5645790000000 1.0
C      1  0.4533250000000  0.4159590000000  0.5212880000000 1.0
C      1  0.4330470000000  0.4568590000000  0.4457960000000 1.0
C      1  0.5330330000000  0.4106700000000  0.5431020000000 1.0
C      1  0.4958960000000  0.5550640000000  0.4651510000000 1.0
C      1  0.5061740000000  0.4838860000000  0.4830610000000 1.0
C      1  0.5359130000000  0.4768950000000  0.5203530000000 1.0
C      1  0.4958820000000  0.6070380000000  0.4825870000000 1.0
C      1  0.5729140000000  0.4653000000000  0.3812980000000 1.0
C      1  0.5004460000000  0.4564700000000  0.4198090000000 1.0
C      1  0.4396560000000  0.5914810000000  0.5183580000000 1.0
C      1  0.4633400000000  0.5345580000000  0.5384980000000 1.0
C      1  0.5561460000000  0.5223300000000  0.5114770000000 1.0
C      1  0.4529050000000  0.5022340000000  0.5359320000000 1.0
C      1  0.4301530000000  0.4782060000000  0.5778790000000 1.0
C      1  0.4421960000000  0.4924070000000  0.3842160000000 1.0
C      1  0.5191090000000  0.3851880000000  0.4860400000000 1.0
C      1  0.4752540000000  0.4461740000000  0.4408840000000 1.0
C      1  0.5625490000000  0.5022600000000  0.5853200000000 1.0
C      1  0.4451730000000  0.5595070000000  0.5249920000000 1.0
C      1  0.3919570000000  0.4905810000000  0.5359550000000 1.0
C      1  0.5018120000000  0.5737620000000  0.5797440000000 1.0
C      1  0.5026600000000  0.4308310000000  0.5852220000000 1.0
C      1  0.6236780000000  0.4574160000000  0.4706940000000 1.0
C      1  0.4779010000000  0.5774080000000  0.5621470000000 1.0
C      1  0.5596600000000  0.4892400000000  0.4221830000000 1.0
C      1  0.4621700000000  0.5299740000000  0.5721760000000 1.0
C      1  0.5190550000000  0.4135050000000  0.3966450000000 1.0
C      1  0.5528180000000  0.4319850000000  0.5415460000000 1.0
C      1  0.5980800000000  0.4642900000000  0.4854830000000 1.0
C      1  0.4042970000000  0.5194100000000  0.5490850000000 1.0
C      1  0.4077990000000  0.4713040000000  0.4642840000000 1.0
C      1  0.4601690000000  0.5517040000000  0.5982570000000 1.0
C      1  0.5231530000000  0.3995500000000  0.5146840000000 1.0
C      1  0.4471860000000  0.4524230000000  0.4945780000000 1.0
C      1  0.4998020000000  0.4566180000000  0.6035350000000 1.0
C      1  0.5129060000000  0.5268500000000  0.4683280000000 1.0
C      1  0.4377910000000  0.4316530000000  0.5618790000000 1.0
C      1  0.5126740000000  0.5286720000000  0.5022810000000 1.0
C      1  0.5804980000000  0.5166620000000  0.5435520000000 1.0
C      1  0.5241190000000  0.3937870000000  0.4631790000000 1.0
C      1  0.4584900000000  0.4725910000000  0.4295800000000 1.0
C      1  0.4441830000000  0.4036100000000  0.4500680000000 1.0
C      1  0.5213450000000  0.5122820000000  0.5526990000000 1.0
C      1  0.5408320000000  0.5515020000000  0.4892700000000 1.0
C      1  0.4184710000000  0.4435480000000  0.4807180000000 1.0
C      1  0.4700200000000  0.4840780000000  0.4019000000000 1.0
C      1  0.4776630000000  0.4617290000000  0.5184010000000 1.0
C      1  0.5327170000000  0.4992420000000  0.4699680000000 1.0
C      1  0.5753470000000  0.5231780000000  0.5715380000000 1.0
C      1  0.4694090000000  0.5030160000000  0.6006260000000 1.0
C      1  0.4351530000000  0.5557570000000  0.5572810000000 1.0
C      1  0.5849520000000  0.5355470000000  0.5156210000000 1.0
C      1  0.5175800000000  0.4685640000000  0.4465770000000 1.0
C      1  0.5964660000000  0.4627490000000  0.5194120000000 1.0
C      1  0.4209760000000  0.5449790000000  0.5110330000000 1.0
C      1  0.4535600000000  0.5688200000000  0.5745800000000 1.0
C      1  0.5328870000000  0.4872490000000  0.5929910000000 1.0
C      1  0.4672710000000  0.5123310000000  0.4209570000000 1.0
C      1  0.4358300000000  0.5365040000000  0.4433580000000 1.0
C      1  0.5215790000000  0.3984980000000  0.3753070000000 1.0
C      1  0.4158230000000  0.4391590000000  0.5416100000000 1.0
C      1  0.4954300000000  0.5392730000000  0.5282580000000 1.0
C      1  0.5441380000000  0.6099610000000  0.4487530000000 1.0
C      1  0.4415130000000  0.5063010000000  0.5812880000000 1.0
C      1  0.4942590000000  0.4742900000000  0.5452980000000 1.0
C      1  0.5559900000000  0.4629020000000  0.5984260000000 1.0
C      1  0.4189270000000  0.5143650000000  0.5196840000000 1.0
C      1  0.5669690000000  0.5811380000000  0.4931040000000 1.0
C      1  0.4605180000000  0.5843250000000  0.4526530000000 1.0
C      1  0.5294510000000  0.5074780000000  0.5229310000000 1.0
C      1  0.5256650000000  0.5975460000000  0.5208190000000 1.0
C      1  0.4432660000000  0.4314510000000  0.4608440000000 1.0
C      1  0.5183300000000  0.4497500000000  0.5162620000000 1.0
C      1  0.5323290000000  0.4973290000000  0.4360160000000 1.0
C      1  0.5103570000000  0.4883700000000  0.4130130000000 1.0
C      1  0.4926730000000  0.5158030000000  0.4433170000000 1.0
C      1  0.5384680000000  0.4464290000000  0.4575680000000 1.0
C      1  0.4660760000000  0.6010710000000  0.4740500000000 1.0
C      1  0.3845800000000  0.4894740000000  0.5081400000000 1.0
C      1  0.4835130000000  0.5045970000000  0.5122790000000 1.0
C      1  0.5200700000000  0.4838670000000  0.5652510000000 1.0
C      1  0.5296590000000  0.5302750000000  0.4317390000000 1.0
C      1  0.4009890000000  0.4914940000000  0.4862530000000 1.0
C      1  0.5389470000000  0.5506770000000  0.3859600000000 1.0
C      1  0.5807920000000  0.5672770000000  0.5146360000000 1.0
C      1  0.5131230000000  0.5439090000000  0.5905920000000 1.0
C      1  0.4698420000000  0.4509500000000  0.5952090000000 1.0
C      1  0.5704440000000  0.4859360000000  0.5381280000000 1.0
C      1  0.5410380000000  0.5432220000000  0.4598010000000 1.0
C      1  0.5374060000000  0.4598640000000  0.5497480000000 1.0
C      1  0.4361450000000  0.5012900000000  0.4129630000000 1.0
C      1  0.4816240000000  0.4168590000000  0.5623600000000 1.0
C      1  0.5040840000000  0.5435930000000  0.4150090000000 1.0
C      1  0.5245780000000  0.5748520000000  0.5374420000000 1.0
C      1  0.4073360000000  0.4594900000000  0.5609210000000 1.0
C      1  0.5595490000000  0.5100250000000  0.4839040000000 1.0
C      1  0.6020630000000  0.5174770000000  0.4926120000000 1.0
C      1  0.5579740000000  0.5579990000000  0.4369480000000 1.0
C      1  0.4977740000000  0.4161890000000  0.4997010000000 1.0
C      1  0.5629570000000  0.4741100000000  0.5670900000000 1.0
C      1  0.4219700000000  0.4867980000000  0.4375080000000 1.0
C      1  0.5061540000000  0.6160300000000  0.5122240000000 1.0
C      1  0.5627120000000  0.5900070000000  0.4438340000000 1.0
C      1  0.4848900000000  0.4772490000000  0.4501090000000 1.0
C      1  0.5024140000000  0.5241430000000  0.6067810000000 1.0
C      1  0.5842560000000  0.5484210000000  0.4554120000000 1.0
C      1  0.4977590000000  0.4556790000000  0.4920670000000 1.0
C      1  0.5649670000000  0.5505280000000  0.5727790000000 1.0
C      1  0.5255700000000  0.4714390000000  0.3925690000000 1.0
C      1  0.4258520000000  0.4331260000000  0.5126540000000 1.0
C      1  0.5422880000000  0.5382780000000  0.5550590000000 1.0
C      1  0.4745670000000  0.5444650000000  0.4230330000000 1.0
C      1  0.4226220000000  0.5307920000000  0.5670420000000 1.0
C      1  0.5756360000000  0.4366190000000  0.5258720000000 1.0
C      1  0.5903580000000  0.5203860000000  0.4608230000000 1.0
C      1  0.5811300000000  0.4369440000000  0.4944820000000 1.0
C      1  0.4831800000000  0.4481350000000  0.3639580000000 1.0
C      1  0.5532420000000  0.4380380000000  0.4850430000000 1.0
C      1  0.4724050000000  0.5610140000000  0.5046270000000 1.0
C      1  0.5395520000000  0.5489580000000  0.5231690000000 1.0
C      1  0.4388370000000  0.4606190000000  0.6018820000000 1.0
C      1  0.4757820000000  0.4286480000000  0.5114160000000 1.0
C      1  0.5773700000000  0.5741080000000  0.5646120000000 1.0
C      1  0.4814180000000  0.5026740000000  0.4724170000000 1.0
C      1  0.4517650000000  0.4958920000000  0.4795440000000 1.0
END
