TITL C-2847951-7423-106 -0.000376056586741522 125000 -295.534321395244 0 0 52 (C1) n - 1
REM
REM in /home/bkarasulu/work/CARBON/AIRSS/Generating-Clusters/AIREBO/with-SteepDescent/Only-C1/SD-CG-opt/Try1-1.4A-POS3A/HFTN-CG
REM
REM
REM
REM
REM
REM ./C.cell (11c1c37f851c82e70ff6c80c92926a4b)
REM
REM compiler GCC version 9.2.1 20190827 (Red Hat 9.2.1-1)
REM options -cpp -mtune=generic -march=x86-64 -g -O0 -fpre-include=/usr/include/finclude/math-vector-fortran.h
REM seed -1612103327 818966892 -1147094938 1642435939 1670250143 -724819430 -883490261 -1482588239 1711101347 -2085053126 1805299521 937177469 -824742458 30484902 1390404860 -2134208090 441744550 -2103394953 1786175617 383188095 666753031 -1355389838 -1555517779 -1860162626 -1420120510 -809305087 -921413511 723061631 -787688171 403097271 816312805 173233701 -1246055557
REM
CELL 1.54180   50.00000   50.00000   50.00000   90.00000   90.00000   90.00000
LATT -1
SFAC C  
C      1  0.4771460000000  0.4993430000000  0.5026080000000 1.0
C      1  0.5385750000000  0.5359480000000  0.5153870000000 1.0
C      1  0.4503270000000  0.5685150000000  0.5212790000000 1.0
C      1  0.4568750000000  0.5213580000000  0.5373340000000 1.0
C      1  0.5106720000000  0.5218560000000  0.5611770000000 1.0
C      1  0.5480840000000  0.5127670000000  0.4476470000000 1.0
C      1  0.5526570000000  0.4530810000000  0.4883620000000 1.0
C      1  0.4659650000000  0.4272660000000  0.4985120000000 1.0
C      1  0.4378540000000  0.4984800000000  0.4679590000000 1.0
C      1  0.4532830000000  0.4729530000000  0.5430640000000 1.0
C      1  0.5644010000000  0.4949830000000  0.5156840000000 1.0
C      1  0.5739450000000  0.5197440000000  0.4569770000000 1.0
C      1  0.4851000000000  0.4610810000000  0.5411410000000 1.0
C      1  0.4429550000000  0.5431200000000  0.4812380000000 1.0
C      1  0.5331740000000  0.4808450000000  0.5549190000000 1.0
C      1  0.5435300000000  0.5028780000000  0.4230900000000 1.0
C      1  0.5343180000000  0.4388330000000  0.4728620000000 1.0
C      1  0.5190010000000  0.4967870000000  0.5749990000000 1.0
C      1  0.4459810000000  0.4955340000000  0.5281090000000 1.0
C      1  0.5641040000000  0.5231370000000  0.5035940000000 1.0
C      1  0.5199570000000  0.4179310000000  0.4853580000000 1.0
C      1  0.5067330000000  0.4967310000000  0.4728690000000 1.0
C      1  0.5083240000000  0.4856860000000  0.5018630000000 1.0
C      1  0.5282830000000  0.5190280000000  0.4670050000000 1.0
C      1  0.4574550000000  0.5423300000000  0.5183860000000 1.0
C      1  0.4830420000000  0.4352500000000  0.5240670000000 1.0
C      1  0.5202200000000  0.4535820000000  0.4532280000000 1.0
C      1  0.5729750000000  0.5359690000000  0.4802980000000 1.0
C      1  0.5559090000000  0.5613300000000  0.4752600000000 1.0
C      1  0.5581890000000  0.5861430000000  0.4667330000000 1.0
C      1  0.4848610000000  0.5179890000000  0.5498160000000 1.0
C      1  0.5766150000000  0.4685350000000  0.4984030000000 1.0
C      1  0.4570870000000  0.4951720000000  0.4472950000000 1.0
C      1  0.4264800000000  0.5243180000000  0.4695250000000 1.0
C      1  0.4339940000000  0.6186340000000  0.5239660000000 1.0
C      1  0.4718740000000  0.5313610000000  0.4924060000000 1.0
C      1  0.4461450000000  0.4883760000000  0.4952320000000 1.0
C      1  0.4885120000000  0.5220890000000  0.4678160000000 1.0
C      1  0.5334840000000  0.5250500000000  0.5413000000000 1.0
C      1  0.5386150000000  0.4750950000000  0.5072550000000 1.0
C      1  0.4396010000000  0.4345990000000  0.4967190000000 1.0
C      1  0.4901320000000  0.4533760000000  0.5695030000000 1.0
C      1  0.4409910000000  0.5933880000000  0.5231730000000 1.0
C      1  0.4736480000000  0.4720930000000  0.4447440000000 1.0
C      1  0.5504450000000  0.5007800000000  0.5432960000000 1.0
C      1  0.5165400000000  0.4692880000000  0.5311120000000 1.0
C      1  0.5004550000000  0.4733880000000  0.4540690000000 1.0
C      1  0.4855510000000  0.4940650000000  0.5328740000000 1.0
C      1  0.5336450000000  0.5410390000000  0.4849500000000 1.0
C      1  0.4731990000000  0.5187540000000  0.4451760000000 1.0
C      1  0.4967760000000  0.4196780000000  0.4997950000000 1.0
C      1  0.4323140000000  0.4604480000000  0.5005670000000 1.0
END
