TITL C-2848497-6229-185 3.78592069528229e-07 125000 -155.819285175407 0 0 28 (C1) n - 1
REM
REM in /home/bkarasulu/work/CARBON/AIRSS/Generating-Clusters/AIREBO/with-SteepDescent/Only-C1/SD-CG-opt/Try1-1.4A-POS3A/HFTN-CG
REM
REM
REM
REM
REM
REM ./C.cell (11c1c37f851c82e70ff6c80c92926a4b)
REM
REM compiler GCC version 9.2.1 20190827 (Red Hat 9.2.1-1)
REM options -cpp -mtune=generic -march=x86-64 -g -O0 -fpre-include=/usr/include/finclude/math-vector-fortran.h
REM seed -462102457 -953776021 488627190 -1884168085 -901896660 -753779795 -610480963 1707794330 1011261862 -903904582 -1803997423 112038889 -1114094450 34913139 -1677196921 518489793 -53463517 -1586495740 1399631165 244338740 515886735 1691496446 -1554088619 -1146794263 336165443 1237042841 -2064430346 -1810841104 -2104629289 191693685 1837354620 1587399349 494629704
REM
CELL 1.54180   50.00000   50.00000   50.00000   90.00000   90.00000   90.00000
LATT -1
SFAC C  
C      1  0.5121970000000  0.4304390000000  0.5591740000000 1.0
C      1  0.5192180000000  0.5639220000000  0.5141570000000 1.0
C      1  0.4466040000000  0.5963720000000  0.5264360000000 1.0
C      1  0.4665540000000  0.5357060000000  0.4681620000000 1.0
C      1  0.4707820000000  0.5868120000000  0.5231130000000 1.0
C      1  0.5374190000000  0.5139620000000  0.4965410000000 1.0
C      1  0.4430750000000  0.5194500000000  0.4679850000000 1.0
C      1  0.4519360000000  0.4915050000000  0.4663800000000 1.0
C      1  0.4895400000000  0.5178290000000  0.4667860000000 1.0
C      1  0.4510540000000  0.4745910000000  0.4892680000000 1.0
C      1  0.5637560000000  0.5922590000000  0.5249770000000 1.0
C      1  0.5208410000000  0.5389280000000  0.5050700000000 1.0
C      1  0.4741260000000  0.4699480000000  0.5052860000000 1.0
C      1  0.4972360000000  0.4463040000000  0.4545840000000 1.0
C      1  0.5643470000000  0.4744360000000  0.5130570000000 1.0
C      1  0.5420920000000  0.5780570000000  0.5209770000000 1.0
C      1  0.5322770000000  0.4414800000000  0.5364170000000 1.0
C      1  0.4794340000000  0.4931540000000  0.4543460000000 1.0
C      1  0.5570870000000  0.4956400000000  0.4979360000000 1.0
C      1  0.5535050000000  0.4520510000000  0.5234690000000 1.0
C      1  0.4612660000000  0.4229560000000  0.5076920000000 1.0
C      1  0.4992400000000  0.4367680000000  0.4797060000000 1.0
C      1  0.4835860000000  0.4406870000000  0.5065780000000 1.0
C      1  0.4919960000000  0.4707420000000  0.4437990000000 1.0
C      1  0.4898490000000  0.4916230000000  0.5094290000000 1.0
C      1  0.4945150000000  0.5761110000000  0.5174780000000 1.0
C      1  0.5018680000000  0.4354060000000  0.5290560000000 1.0
C      1  0.5046000000000  0.5128610000000  0.4921400000000 1.0
END
