TITL C-2847945-6269-368 -0.000570545357851206 125000 -227.189708840461 0 0 43 (C1) n - 1
REM
REM in /home/bkarasulu/work/CARBON/AIRSS/Generating-Clusters/AIREBO/with-SteepDescent/Only-C1/SD-CG-opt/Try1-1.4A-POS3A/HFTN-CG
REM
REM
REM
REM
REM
REM ./C.cell (11c1c37f851c82e70ff6c80c92926a4b)
REM
REM compiler GCC version 9.2.1 20190827 (Red Hat 9.2.1-1)
REM options -cpp -mtune=generic -march=x86-64 -g -O0 -fpre-include=/usr/include/finclude/math-vector-fortran.h
REM seed 104798155 109450272 -96196292 -604920742 -1643814896 -1400378622 -1603733190 1801237801 -2089004066 -2136478511 -2133801653 -879296959 -1305446246 1951718051 711607479 1204448925 695790489 -1318298914 253022323 -1806413917 -1696141649 -1629814417 -1023595506 1919958550 -1210834200 -1741751034 -1186648409 1967044654 -3339124 -1019045157 1436451223 108611041 -1953177076
REM
CELL 1.54180   50.00000   50.00000   50.00000   90.00000   90.00000   90.00000
LATT -1
SFAC C  
C      1  0.4918610000000  0.5817680000000  0.5410640000000 1.0
C      1  0.4697230000000  0.5660360000000  0.5425390000000 1.0
C      1  0.5045730000000  0.5471730000000  0.5071200000000 1.0
C      1  0.4783220000000  0.5531570000000  0.4872840000000 1.0
C      1  0.5497930000000  0.5204180000000  0.5448940000000 1.0
C      1  0.4697280000000  0.5186990000000  0.5050250000000 1.0
C      1  0.4479130000000  0.4670470000000  0.4908930000000 1.0
C      1  0.5428190000000  0.4456660000000  0.5286450000000 1.0
C      1  0.4615900000000  0.5071130000000  0.4678140000000 1.0
C      1  0.4984970000000  0.4650470000000  0.4874620000000 1.0
C      1  0.5290400000000  0.5332950000000  0.5517640000000 1.0
C      1  0.4913660000000  0.4929650000000  0.4693410000000 1.0
C      1  0.5155530000000  0.4994930000000  0.5352480000000 1.0
C      1  0.4587740000000  0.5069540000000  0.5455350000000 1.0
C      1  0.5106750000000  0.5013370000000  0.4426260000000 1.0
C      1  0.4980990000000  0.4750570000000  0.5412980000000 1.0
C      1  0.5379280000000  0.4395110000000  0.4668970000000 1.0
C      1  0.5175710000000  0.5263690000000  0.4633960000000 1.0
C      1  0.5392870000000  0.5479820000000  0.4604410000000 1.0
C      1  0.5321360000000  0.4549020000000  0.4439020000000 1.0
C      1  0.5541850000000  0.4960270000000  0.4918550000000 1.0
C      1  0.5114650000000  0.5737260000000  0.5231640000000 1.0
C      1  0.5449870000000  0.4974290000000  0.5242340000000 1.0
C      1  0.4997970000000  0.5173400000000  0.4915030000000 1.0
C      1  0.4611040000000  0.5494900000000  0.5150730000000 1.0
C      1  0.4732230000000  0.5325820000000  0.5423220000000 1.0
C      1  0.5141860000000  0.4479630000000  0.5439060000000 1.0
C      1  0.5026100000000  0.5288100000000  0.5336770000000 1.0
C      1  0.5389540000000  0.4827330000000  0.4455420000000 1.0
C      1  0.4732140000000  0.4867130000000  0.5570360000000 1.0
C      1  0.4638750000000  0.5348970000000  0.4630180000000 1.0
C      1  0.4456560000000  0.4971890000000  0.4943460000000 1.0
C      1  0.5176600000000  0.4287080000000  0.5176580000000 1.0
C      1  0.4849890000000  0.4613960000000  0.5166110000000 1.0
C      1  0.5253710000000  0.4502380000000  0.4930430000000 1.0
C      1  0.4397650000000  0.5031410000000  0.5262490000000 1.0
C      1  0.5052330000000  0.4522330000000  0.4340040000000 1.0
C      1  0.4928530000000  0.5477760000000  0.4577070000000 1.0
C      1  0.5469730000000  0.4692440000000  0.5090900000000 1.0
C      1  0.4683680000000  0.4604090000000  0.4724030000000 1.0
C      1  0.5418190000000  0.5028500000000  0.4683320000000 1.0
C      1  0.4582730000000  0.4551200000000  0.5149050000000 1.0
C      1  0.4901940000000  0.4739960000000  0.4411330000000 1.0
END
