TITL C-2847948-6138-438 0.000451498489236379 125000 -583.836805861695 0 0 108 (C1) n - 1
REM
REM in /home/bkarasulu/work/CARBON/AIRSS/Generating-Clusters/AIREBO/with-SteepDescent/Only-C1/SD-CG-opt/Try1-1.4A-POS3A/HFTN-CG
REM
REM
REM
REM
REM
REM ./C.cell (11c1c37f851c82e70ff6c80c92926a4b)
REM
REM compiler GCC version 9.2.1 20190827 (Red Hat 9.2.1-1)
REM options -cpp -mtune=generic -march=x86-64 -g -O0 -fpre-include=/usr/include/finclude/math-vector-fortran.h
REM seed -247462055 1499998409 -499788062 -1853240262 -325184741 -395509941 90172242 1232942858 1792779950 -1755466433 1010175029 1568419386 -401402571 539525337 1786236185 102254093 696081918 -1625271292 946188464 -2031641597 101704275 811867286 378330235 458631779 295934382 363533216 2073295030 -2096659364 -1224492089 -96091939 -114699593 -1070424381 1789248201
REM
CELL 1.54180   50.00000   50.00000   50.00000   90.00000   90.00000   90.00000
LATT -1
SFAC C  
C      1  0.5408980000000  0.5602120000000  0.5948890000000 1.0
C      1  0.4932840000000  0.5748240000000  0.4687760000000 1.0
C      1  0.4550200000000  0.5050320000000  0.5321890000000 1.0
C      1  0.5285530000000  0.5068390000000  0.4951260000000 1.0
C      1  0.4579670000000  0.4041930000000  0.5339130000000 1.0
C      1  0.4458800000000  0.4862590000000  0.4339090000000 1.0
C      1  0.4937690000000  0.4775650000000  0.4612520000000 1.0
C      1  0.4744180000000  0.4661580000000  0.4867940000000 1.0
C      1  0.5625320000000  0.5186020000000  0.5343700000000 1.0
C      1  0.4729040000000  0.5816940000000  0.4527600000000 1.0
C      1  0.4267200000000  0.4441210000000  0.5356540000000 1.0
C      1  0.4552410000000  0.5568870000000  0.4388710000000 1.0
C      1  0.4690420000000  0.4580790000000  0.5347430000000 1.0
C      1  0.5354970000000  0.5290740000000  0.5199060000000 1.0
C      1  0.5562630000000  0.5742000000000  0.4854810000000 1.0
C      1  0.5078670000000  0.4736450000000  0.5728210000000 1.0
C      1  0.4795910000000  0.5409550000000  0.4258960000000 1.0
C      1  0.4786450000000  0.4752050000000  0.5859700000000 1.0
C      1  0.4162000000000  0.4973700000000  0.5367220000000 1.0
C      1  0.4477140000000  0.5688430000000  0.5256480000000 1.0
C      1  0.5474980000000  0.4629030000000  0.4978410000000 1.0
C      1  0.5253720000000  0.5087800000000  0.5526090000000 1.0
C      1  0.4535620000000  0.4327620000000  0.5181200000000 1.0
C      1  0.5733080000000  0.4782990000000  0.5070400000000 1.0
C      1  0.5378830000000  0.4482320000000  0.5237170000000 1.0
C      1  0.4589690000000  0.4544260000000  0.5776240000000 1.0
C      1  0.5875080000000  0.5224270000000  0.4912890000000 1.0
C      1  0.4239990000000  0.4689910000000  0.5471850000000 1.0
C      1  0.4828060000000  0.4291130000000  0.4666570000000 1.0
C      1  0.4748240000000  0.4923200000000  0.4075110000000 1.0
C      1  0.4878620000000  0.4957540000000  0.3775500000000 1.0
C      1  0.4712690000000  0.5814450000000  0.5228700000000 1.0
C      1  0.5595440000000  0.4337560000000  0.5437300000000 1.0
C      1  0.4496290000000  0.4240740000000  0.4645190000000 1.0
C      1  0.4357060000000  0.4332860000000  0.4908770000000 1.0
C      1  0.4848040000000  0.5191540000000  0.5406250000000 1.0
C      1  0.5128440000000  0.4965330000000  0.5234660000000 1.0
C      1  0.5098040000000  0.4318070000000  0.5194460000000 1.0
C      1  0.5528120000000  0.4665610000000  0.5486560000000 1.0
C      1  0.5370370000000  0.4818880000000  0.5696750000000 1.0
C      1  0.4806980000000  0.5255090000000  0.4028770000000 1.0
C      1  0.5437270000000  0.5993190000000  0.4882940000000 1.0
C      1  0.5396930000000  0.5597990000000  0.5187500000000 1.0
C      1  0.4640790000000  0.5433800000000  0.4932960000000 1.0
C      1  0.5313730000000  0.4334920000000  0.4338780000000 1.0
C      1  0.5809470000000  0.4863000000000  0.4625190000000 1.0
C      1  0.4967460000000  0.5685590000000  0.5381080000000 1.0
C      1  0.5909150000000  0.4932880000000  0.4901420000000 1.0
C      1  0.5554670000000  0.4243990000000  0.4908330000000 1.0
C      1  0.4203480000000  0.5241860000000  0.5380010000000 1.0
C      1  0.5707560000000  0.5320720000000  0.4650950000000 1.0
C      1  0.4346230000000  0.4859600000000  0.5126940000000 1.0
C      1  0.5341410000000  0.4137610000000  0.5040690000000 1.0
C      1  0.5056690000000  0.5283300000000  0.5658680000000 1.0
C      1  0.5008670000000  0.5962290000000  0.5182300000000 1.0
C      1  0.4927450000000  0.5253700000000  0.3741430000000 1.0
C      1  0.4860260000000  0.4783880000000  0.5163270000000 1.0
C      1  0.4194560000000  0.4613130000000  0.5002950000000 1.0
C      1  0.4987610000000  0.5333310000000  0.4468700000000 1.0
C      1  0.4904500000000  0.4364970000000  0.5433750000000 1.0
C      1  0.4923350000000  0.4870390000000  0.5488710000000 1.0
C      1  0.5697700000000  0.4871860000000  0.5335700000000 1.0
C      1  0.4961290000000  0.5670570000000  0.5673810000000 1.0
C      1  0.5568500000000  0.5089360000000  0.5652800000000 1.0
C      1  0.4466660000000  0.5093540000000  0.4162230000000 1.0
C      1  0.4876530000000  0.5099570000000  0.4641010000000 1.0
C      1  0.4478570000000  0.5576600000000  0.4721570000000 1.0
C      1  0.4756050000000  0.5255360000000  0.5790010000000 1.0
C      1  0.5472260000000  0.5376690000000  0.4259470000000 1.0
C      1  0.5218810000000  0.4834010000000  0.4430370000000 1.0
C      1  0.5478190000000  0.4473850000000  0.4675860000000 1.0
C      1  0.5025440000000  0.4433600000000  0.5727510000000 1.0
C      1  0.5036090000000  0.5405110000000  0.5236870000000 1.0
C      1  0.4473680000000  0.5366510000000  0.5221440000000 1.0
C      1  0.5265690000000  0.5462800000000  0.4369170000000 1.0
C      1  0.5447560000000  0.4625160000000  0.4398280000000 1.0
C      1  0.5689570000000  0.5627240000000  0.5115450000000 1.0
C      1  0.5648280000000  0.5129930000000  0.4375820000000 1.0
C      1  0.5206810000000  0.5544570000000  0.5781410000000 1.0
C      1  0.4687890000000  0.5155830000000  0.4828230000000 1.0
C      1  0.5198580000000  0.5316030000000  0.4734930000000 1.0
C      1  0.4301380000000  0.4777550000000  0.4533860000000 1.0
C      1  0.4731280000000  0.5547250000000  0.5786280000000 1.0
C      1  0.5173270000000  0.4423410000000  0.4817570000000 1.0
C      1  0.5197360000000  0.4762420000000  0.4831790000000 1.0
C      1  0.5189960000000  0.5725380000000  0.5053200000000 1.0
C      1  0.5802860000000  0.5360250000000  0.5146430000000 1.0
C      1  0.4756920000000  0.4090220000000  0.5544880000000 1.0
C      1  0.4424890000000  0.4617270000000  0.4759420000000 1.0
C      1  0.5126050000000  0.4251130000000  0.4531690000000 1.0
C      1  0.4652580000000  0.5010920000000  0.5795160000000 1.0
C      1  0.4974350000000  0.4142060000000  0.5755910000000 1.0
C      1  0.5091360000000  0.4096500000000  0.4863100000000 1.0
C      1  0.5620280000000  0.5663630000000  0.6091240000000 1.0
C      1  0.5556690000000  0.5042630000000  0.4754510000000 1.0
C      1  0.3894970000000  0.4603900000000  0.4994370000000 1.0
C      1  0.4655300000000  0.4430110000000  0.4422070000000 1.0
C      1  0.4405070000000  0.5348000000000  0.4205640000000 1.0
C      1  0.4429690000000  0.5868330000000  0.4623720000000 1.0
C      1  0.5252520000000  0.6119270000000  0.5041820000000 1.0
C      1  0.4821920000000  0.4357960000000  0.4999910000000 1.0
C      1  0.5337870000000  0.5096350000000  0.4510950000000 1.0
C      1  0.5472210000000  0.5517110000000  0.4707070000000 1.0
C      1  0.4572420000000  0.4942370000000  0.4939060000000 1.0
C      1  0.4535190000000  0.4802020000000  0.5553870000000 1.0
C      1  0.5703220000000  0.4794990000000  0.4354280000000 1.0
C      1  0.4976270000000  0.5499550000000  0.4915590000000 1.0
C      1  0.4741270000000  0.4713330000000  0.4342410000000 1.0
END
