TITL C-2848502-4955-20 -0.00249969031759288 125000 -958.356851125983 0 0 178 (C1) n - 1
REM
REM in /home/bkarasulu/work/CARBON/AIRSS/Generating-Clusters/AIREBO/with-SteepDescent/Only-C1/SD-CG-opt/Try1-1.4A-POS3A/HFTN-CG
REM
REM
REM
REM
REM
REM ./C.cell (11c1c37f851c82e70ff6c80c92926a4b)
REM
REM compiler GCC version 9.2.1 20190827 (Red Hat 9.2.1-1)
REM options -cpp -mtune=generic -march=x86-64 -g -O0 -fpre-include=/usr/include/finclude/math-vector-fortran.h
REM seed 936572255 -1718940820 756347013 -1997378111 1827628361 1167455810 477193124 -1827026488 -221282230 -1829841636 -1649175454 -510480250 -612110267 -1379349680 -1541801879 69485349 157153167 1671467947 -1250020231 509675726 851789053 -1182858331 -32245610 1954184279 -581719336 -1291715364 -1675426979 -1648734635 -2023600105 -384863449 -1887031533 2083673261 -5438582
REM
CELL 1.54180   50.00000   50.00000   50.00000   90.00000   90.00000   90.00000
LATT -1
SFAC C  
C      1  0.4874960000000  0.5868540000000  0.4884800000000 1.0
C      1  0.5081000000000  0.5754480000000  0.5813620000000 1.0
C      1  0.5817440000000  0.5073940000000  0.4391930000000 1.0
C      1  0.5509670000000  0.4981800000000  0.5622540000000 1.0
C      1  0.5477900000000  0.5079580000000  0.4357350000000 1.0
C      1  0.6008010000000  0.5363930000000  0.5574590000000 1.0
C      1  0.4911620000000  0.4598300000000  0.5645630000000 1.0
C      1  0.4093430000000  0.4292550000000  0.4948820000000 1.0
C      1  0.5904500000000  0.4578590000000  0.4557410000000 1.0
C      1  0.4439300000000  0.5067700000000  0.5723240000000 1.0
C      1  0.4708510000000  0.5657760000000  0.5481210000000 1.0
C      1  0.5501810000000  0.4281570000000  0.4304930000000 1.0
C      1  0.5300370000000  0.5196400000000  0.5045750000000 1.0
C      1  0.4355520000000  0.5819300000000  0.5390790000000 1.0
C      1  0.5175520000000  0.5038610000000  0.4040020000000 1.0
C      1  0.5395810000000  0.4583030000000  0.5396380000000 1.0
C      1  0.4934180000000  0.3270110000000  0.5085880000000 1.0
C      1  0.4972870000000  0.4618500000000  0.4437050000000 1.0
C      1  0.3932140000000  0.4550890000000  0.4906320000000 1.0
C      1  0.4090210000000  0.5354840000000  0.4843270000000 1.0
C      1  0.4963950000000  0.3502620000000  0.4968670000000 1.0
C      1  0.4601080000000  0.5187870000000  0.5941010000000 1.0
C      1  0.4570670000000  0.5553580000000  0.4437150000000 1.0
C      1  0.4968960000000  0.5769120000000  0.4361370000000 1.0
C      1  0.5636950000000  0.4934010000000  0.6108790000000 1.0
C      1  0.5809990000000  0.5678010000000  0.4618200000000 1.0
C      1  0.4635120000000  0.5378210000000  0.4208690000000 1.0
C      1  0.6024910000000  0.4170830000000  0.5247020000000 1.0
C      1  0.5091490000000  0.5244190000000  0.4781670000000 1.0
C      1  0.5062960000000  0.4818080000000  0.3816960000000 1.0
C      1  0.4881570000000  0.4478860000000  0.5395180000000 1.0
C      1  0.5049520000000  0.4935150000000  0.4338630000000 1.0
C      1  0.4030260000000  0.4680930000000  0.4634450000000 1.0
C      1  0.5374350000000  0.4054000000000  0.4450700000000 1.0
C      1  0.4943410000000  0.4166000000000  0.5277290000000 1.0
C      1  0.4240120000000  0.4935590000000  0.4598200000000 1.0
C      1  0.4601180000000  0.5671540000000  0.4928020000000 1.0
C      1  0.5245400000000  0.5231170000000  0.5372130000000 1.0
C      1  0.5057380000000  0.5958020000000  0.5157480000000 1.0
C      1  0.4206240000000  0.5070470000000  0.4989550000000 1.0
C      1  0.5908800000000  0.5397200000000  0.4444660000000 1.0
C      1  0.4939150000000  0.4535890000000  0.5956720000000 1.0
C      1  0.5090730000000  0.4060230000000  0.4498550000000 1.0
C      1  0.5397660000000  0.4771260000000  0.4234000000000 1.0
C      1  0.6028780000000  0.4971360000000  0.4818470000000 1.0
C      1  0.4667090000000  0.4980230000000  0.4230730000000 1.0
C      1  0.4090020000000  0.4398690000000  0.5240450000000 1.0
C      1  0.5387780000000  0.5407190000000  0.4377800000000 1.0
C      1  0.4497060000000  0.5011200000000  0.4722570000000 1.0
C      1  0.5621120000000  0.5959760000000  0.5187570000000 1.0
C      1  0.4432040000000  0.5183790000000  0.5195280000000 1.0
C      1  0.3974520000000  0.5154760000000  0.5324310000000 1.0
C      1  0.4098290000000  0.5385850000000  0.4537600000000 1.0
C      1  0.5173940000000  0.4712330000000  0.4932220000000 1.0
C      1  0.4899920000000  0.5555650000000  0.5816990000000 1.0
C      1  0.4655520000000  0.5861550000000  0.4473350000000 1.0
C      1  0.4254060000000  0.5610500000000  0.4474820000000 1.0
C      1  0.5268300000000  0.5177070000000  0.5932140000000 1.0
C      1  0.4765410000000  0.4985250000000  0.6053630000000 1.0
C      1  0.4451740000000  0.5673930000000  0.5676050000000 1.0
C      1  0.5720830000000  0.4590260000000  0.5348950000000 1.0
C      1  0.4556530000000  0.5982890000000  0.5279910000000 1.0
C      1  0.5287470000000  0.4567230000000  0.4482750000000 1.0
C      1  0.5595180000000  0.5051130000000  0.5300810000000 1.0
C      1  0.5078470000000  0.5525090000000  0.5409110000000 1.0
C      1  0.4106630000000  0.5199490000000  0.4329660000000 1.0
C      1  0.4164040000000  0.5684350000000  0.5231740000000 1.0
C      1  0.5801210000000  0.5308760000000  0.4146090000000 1.0
C      1  0.5496140000000  0.4688920000000  0.6015460000000 1.0
C      1  0.4488990000000  0.5310780000000  0.5496030000000 1.0
C      1  0.5953780000000  0.4309690000000  0.4616690000000 1.0
C      1  0.5873720000000  0.4381510000000  0.5284880000000 1.0
C      1  0.4919830000000  0.6012470000000  0.4593680000000 1.0
C      1  0.4706500000000  0.4888080000000  0.4555820000000 1.0
C      1  0.4593270000000  0.4246490000000  0.4485420000000 1.0
C      1  0.5072280000000  0.5474060000000  0.4266610000000 1.0
C      1  0.5193030000000  0.5785130000000  0.5389160000000 1.0
C      1  0.5297220000000  0.5897880000000  0.4653410000000 1.0
C      1  0.5248530000000  0.4894780000000  0.5422880000000 1.0
C      1  0.3913240000000  0.4891630000000  0.5191930000000 1.0
C      1  0.5754130000000  0.5367990000000  0.4746150000000 1.0
C      1  0.4736130000000  0.4518230000000  0.5010470000000 1.0
C      1  0.5789630000000  0.5111870000000  0.4869440000000 1.0
C      1  0.4733010000000  0.4587170000000  0.4197980000000 1.0
C      1  0.5003160000000  0.3747750000000  0.4872320000000 1.0
C      1  0.5811380000000  0.5626350000000  0.5513510000000 1.0
C      1  0.5582580000000  0.5830080000000  0.5458330000000 1.0
C      1  0.4840930000000  0.5965310000000  0.5422000000000 1.0
C      1  0.4592360000000  0.4351310000000  0.5269710000000 1.0
C      1  0.5410820000000  0.4445100000000  0.5706830000000 1.0
C      1  0.5210520000000  0.4291050000000  0.5796480000000 1.0
C      1  0.4445400000000  0.4922910000000  0.5415650000000 1.0
C      1  0.4300330000000  0.4782890000000  0.5783490000000 1.0
C      1  0.4105260000000  0.4426260000000  0.4482370000000 1.0
C      1  0.4905680000000  0.4283930000000  0.4388990000000 1.0
C      1  0.4404090000000  0.5185000000000  0.4162270000000 1.0
C      1  0.5522970000000  0.4476400000000  0.4120140000000 1.0
C      1  0.4257790000000  0.5417790000000  0.5721180000000 1.0
C      1  0.4548900000000  0.4866110000000  0.4989070000000 1.0
C      1  0.4759740000000  0.4803190000000  0.5199680000000 1.0
C      1  0.4615140000000  0.5246090000000  0.4915630000000 1.0
C      1  0.4821100000000  0.5346570000000  0.5560350000000 1.0
C      1  0.4851600000000  0.5042390000000  0.3954710000000 1.0
C      1  0.4766920000000  0.5026910000000  0.5456850000000 1.0
C      1  0.4687820000000  0.4699830000000  0.6054170000000 1.0
C      1  0.4626920000000  0.6059380000000  0.5018060000000 1.0
C      1  0.5617970000000  0.5734870000000  0.4960480000000 1.0
C      1  0.5172650000000  0.4368290000000  0.4734700000000 1.0
C      1  0.4710870000000  0.4146220000000  0.5524770000000 1.0
C      1  0.4207140000000  0.5649080000000  0.4934800000000 1.0
C      1  0.5274190000000  0.5533610000000  0.4980830000000 1.0
C      1  0.4581620000000  0.4388260000000  0.5725590000000 1.0
C      1  0.4128110000000  0.4921270000000  0.5523740000000 1.0
C      1  0.4004130000000  0.4304430000000  0.4278400000000 1.0
C      1  0.5058080000000  0.4894980000000  0.5144730000000 1.0
C      1  0.4936450000000  0.4250550000000  0.4948030000000 1.0
C      1  0.5547020000000  0.4408620000000  0.4606410000000 1.0
C      1  0.4762580000000  0.5622820000000  0.5179620000000 1.0
C      1  0.5017680000000  0.3999900000000  0.4764560000000 1.0
C      1  0.4875090000000  0.4236620000000  0.5808480000000 1.0
C      1  0.4401850000000  0.5800610000000  0.4700340000000 1.0
C      1  0.5445020000000  0.5412400000000  0.4712950000000 1.0
C      1  0.6158120000000  0.4996540000000  0.5073130000000 1.0
C      1  0.5274200000000  0.5911660000000  0.4314470000000 1.0
C      1  0.4430420000000  0.4583600000000  0.4876340000000 1.0
C      1  0.5503220000000  0.5582160000000  0.5241750000000 1.0
C      1  0.4504530000000  0.3977830000000  0.4584790000000 1.0
C      1  0.5341940000000  0.5903330000000  0.5650490000000 1.0
C      1  0.5226330000000  0.4287380000000  0.5338890000000 1.0
C      1  0.5555350000000  0.4018500000000  0.4684860000000 1.0
C      1  0.4897720000000  0.5370150000000  0.3992870000000 1.0
C      1  0.5990750000000  0.5100940000000  0.5277050000000 1.0
C      1  0.5536130000000  0.5384450000000  0.4084620000000 1.0
C      1  0.5818660000000  0.4856000000000  0.5438310000000 1.0
C      1  0.4990000000000  0.5426030000000  0.5134070000000 1.0
C      1  0.5607930000000  0.4698030000000  0.5715330000000 1.0
C      1  0.5235810000000  0.5059130000000  0.4581490000000 1.0
C      1  0.4696100000000  0.5465870000000  0.4701560000000 1.0
C      1  0.5385070000000  0.4862260000000  0.4778370000000 1.0
C      1  0.5509230000000  0.5713840000000  0.4461450000000 1.0
C      1  0.5025620000000  0.6027900000000  0.5657770000000 1.0
C      1  0.4984190000000  0.4425880000000  0.4090060000000 1.0
C      1  0.4883380000000  0.5215010000000  0.4357090000000 1.0
C      1  0.5158200000000  0.6199160000000  0.4579120000000 1.0
C      1  0.5579340000000  0.5157650000000  0.5888770000000 1.0
C      1  0.4035720000000  0.5383850000000  0.5177780000000 1.0
C      1  0.4479650000000  0.4592170000000  0.5882400000000 1.0
C      1  0.4358570000000  0.4573980000000  0.5287350000000 1.0
C      1  0.5835250000000  0.4059110000000  0.4633710000000 1.0
C      1  0.5930630000000  0.5435200000000  0.5251200000000 1.0
C      1  0.5052230000000  0.4939720000000  0.5929330000000 1.0
C      1  0.5324850000000  0.4480680000000  0.5079920000000 1.0
C      1  0.5546650000000  0.5340990000000  0.5422880000000 1.0
C      1  0.4993170000000  0.4878040000000  0.5620440000000 1.0
C      1  0.5365660000000  0.5251250000000  0.3919550000000 1.0
C      1  0.5011180000000  0.5574440000000  0.4769020000000 1.0
C      1  0.3978180000000  0.4650140000000  0.5382070000000 1.0
C      1  0.4277640000000  0.4913870000000  0.4289740000000 1.0
C      1  0.3961050000000  0.4984160000000  0.4770310000000 1.0
C      1  0.4903110000000  0.5145020000000  0.5031530000000 1.0
C      1  0.5454030000000  0.4257170000000  0.4880190000000 1.0
C      1  0.5984200000000  0.4870370000000  0.4554690000000 1.0
C      1  0.5635240000000  0.4716120000000  0.4669330000000 1.0
C      1  0.4475310000000  0.4705930000000  0.4170560000000 1.0
C      1  0.4411480000000  0.4030480000000  0.4869970000000 1.0
C      1  0.4471920000000  0.4075150000000  0.5124460000000 1.0
C      1  0.5306610000000  0.5871450000000  0.4959850000000 1.0
C      1  0.4179440000000  0.4736330000000  0.5047950000000 1.0
C      1  0.5906650000000  0.5593100000000  0.4950330000000 1.0
C      1  0.6261820000000  0.5288110000000  0.5702750000000 1.0
C      1  0.4327590000000  0.4314580000000  0.4703000000000 1.0
C      1  0.4622120000000  0.5466270000000  0.5885820000000 1.0
C      1  0.5120970000000  0.5249340000000  0.5688050000000 1.0
C      1  0.5550810000000  0.5017930000000  0.5000760000000 1.0
C      1  0.5690880000000  0.5368550000000  0.5699590000000 1.0
C      1  0.5176450000000  0.4626190000000  0.4019770000000 1.0
C      1  0.4888340000000  0.4676330000000  0.4750570000000 1.0
C      1  0.5216520000000  0.4677310000000  0.6046560000000 1.0
END
