TITL C-2847955-7945-712 0.000118582184056791 125000 -918.017043851961 0 0 171 (C1) n - 1
REM
REM in /home/bkarasulu/work/CARBON/AIRSS/Generating-Clusters/AIREBO/with-SteepDescent/Only-C1/SD-CG-opt/Try1-1.4A-POS3A/HFTN-CG
REM
REM
REM
REM
REM
REM ./C.cell (11c1c37f851c82e70ff6c80c92926a4b)
REM
REM compiler GCC version 9.2.1 20190827 (Red Hat 9.2.1-1)
REM options -cpp -mtune=generic -march=x86-64 -g -O0 -fpre-include=/usr/include/finclude/math-vector-fortran.h
REM seed 1536898923 1585074569 577021157 -595205888 1270449856 -341000129 901468709 -620792105 783189071 1878041288 -1050450311 1947158472 346593984 983697623 1450573042 -852977851 818543448 -1421802078 -344063146 14381506 1015421784 -1334311243 397649905 381066622 1535082306 66357969 347913178 -1895937377 163930902 659031989 -835967842 952450554 2146615091
REM
CELL 1.54180   50.00000   50.00000   50.00000   90.00000   90.00000   90.00000
LATT -1
SFAC C  
C      1  0.5895160000000  0.4874920000000  0.4595140000000 1.0
C      1  0.4319540000000  0.5167360000000  0.5684150000000 1.0
C      1  0.5334440000000  0.5152280000000  0.5203160000000 1.0
C      1  0.4704160000000  0.5311470000000  0.6034200000000 1.0
C      1  0.4793280000000  0.4908790000000  0.4783430000000 1.0
C      1  0.5503150000000  0.5015800000000  0.4778810000000 1.0
C      1  0.5560890000000  0.4502430000000  0.5839310000000 1.0
C      1  0.5169280000000  0.5496980000000  0.5319110000000 1.0
C      1  0.6154320000000  0.5218090000000  0.4841870000000 1.0
C      1  0.4806130000000  0.5616740000000  0.4050700000000 1.0
C      1  0.5637820000000  0.4476060000000  0.5325800000000 1.0
C      1  0.4677320000000  0.4503810000000  0.4555750000000 1.0
C      1  0.4689490000000  0.5164310000000  0.5229040000000 1.0
C      1  0.4593390000000  0.5391300000000  0.4670460000000 1.0
C      1  0.5751130000000  0.5684760000000  0.4477440000000 1.0
C      1  0.4217830000000  0.5121950000000  0.4303620000000 1.0
C      1  0.5277680000000  0.4411600000000  0.4947840000000 1.0
C      1  0.5319930000000  0.4862750000000  0.4137930000000 1.0
C      1  0.5882650000000  0.4145620000000  0.4396700000000 1.0
C      1  0.5470620000000  0.5482900000000  0.4777110000000 1.0
C      1  0.5189530000000  0.6054020000000  0.5302060000000 1.0
C      1  0.5675370000000  0.4818080000000  0.5814130000000 1.0
C      1  0.4138210000000  0.4288760000000  0.5321830000000 1.0
C      1  0.4553000000000  0.4222810000000  0.5224160000000 1.0
C      1  0.5064600000000  0.3948560000000  0.5450760000000 1.0
C      1  0.4228190000000  0.5522100000000  0.4573310000000 1.0
C      1  0.5856530000000  0.4547580000000  0.5115500000000 1.0
C      1  0.4477300000000  0.5874430000000  0.4854270000000 1.0
C      1  0.4313540000000  0.5662320000000  0.5244010000000 1.0
C      1  0.5354900000000  0.4788840000000  0.5927490000000 1.0
C      1  0.4626870000000  0.5224220000000  0.5557830000000 1.0
C      1  0.5241020000000  0.5185170000000  0.4212030000000 1.0
C      1  0.5270100000000  0.5559550000000  0.5016120000000 1.0
C      1  0.4576660000000  0.4333290000000  0.5607730000000 1.0
C      1  0.5088420000000  0.4577530000000  0.5922340000000 1.0
C      1  0.5321770000000  0.4393080000000  0.5966120000000 1.0
C      1  0.5426770000000  0.5698900000000  0.4366370000000 1.0
C      1  0.4107120000000  0.4919390000000  0.5779080000000 1.0
C      1  0.4808590000000  0.5445240000000  0.4411370000000 1.0
C      1  0.5221210000000  0.4022720000000  0.4503320000000 1.0
C      1  0.5235120000000  0.5854710000000  0.6020650000000 1.0
C      1  0.4913730000000  0.5361950000000  0.3899960000000 1.0
C      1  0.5516800000000  0.3969460000000  0.4735830000000 1.0
C      1  0.5019310000000  0.5786900000000  0.5223870000000 1.0
C      1  0.4312710000000  0.4835540000000  0.4988690000000 1.0
C      1  0.5422900000000  0.5462250000000  0.4136130000000 1.0
C      1  0.5718400000000  0.4131190000000  0.4874250000000 1.0
C      1  0.4937270000000  0.4183770000000  0.5154300000000 1.0
C      1  0.4069350000000  0.5157270000000  0.4613640000000 1.0
C      1  0.3955740000000  0.5141510000000  0.5108760000000 1.0
C      1  0.4444930000000  0.5619760000000  0.5615940000000 1.0
C      1  0.5034650000000  0.5285300000000  0.5636950000000 1.0
C      1  0.5257660000000  0.4401760000000  0.4482790000000 1.0
C      1  0.4974670000000  0.3952340000000  0.4937410000000 1.0
C      1  0.4607670000000  0.4959730000000  0.3999250000000 1.0
C      1  0.4519660000000  0.6106070000000  0.4724720000000 1.0
C      1  0.4980440000000  0.5170740000000  0.5941220000000 1.0
C      1  0.5237390000000  0.5058960000000  0.6046450000000 1.0
C      1  0.4750460000000  0.4453380000000  0.5073320000000 1.0
C      1  0.5270490000000  0.5069880000000  0.5649390000000 1.0
C      1  0.4474270000000  0.5175290000000  0.5987150000000 1.0
C      1  0.4030440000000  0.4857850000000  0.5095670000000 1.0
C      1  0.4777630000000  0.4458150000000  0.5853270000000 1.0
C      1  0.3974070000000  0.5275130000000  0.4856840000000 1.0
C      1  0.5199130000000  0.5033060000000  0.4907380000000 1.0
C      1  0.5469170000000  0.5946440000000  0.4575860000000 1.0
C      1  0.5370840000000  0.4319170000000  0.3987990000000 1.0
C      1  0.4348360000000  0.4058880000000  0.4820100000000 1.0
C      1  0.4315860000000  0.4129130000000  0.5080320000000 1.0
C      1  0.5667410000000  0.5794760000000  0.5163310000000 1.0
C      1  0.4479510000000  0.4907070000000  0.6082920000000 1.0
C      1  0.4283630000000  0.4866530000000  0.5424780000000 1.0
C      1  0.5555710000000  0.4662280000000  0.5538020000000 1.0
C      1  0.4745280000000  0.5185480000000  0.4894280000000 1.0
C      1  0.4251350000000  0.4451660000000  0.4855890000000 1.0
C      1  0.4592860000000  0.4725050000000  0.5818910000000 1.0
C      1  0.4074580000000  0.4608450000000  0.5400790000000 1.0
C      1  0.4855960000000  0.5131280000000  0.4063540000000 1.0
C      1  0.5368310000000  0.4188980000000  0.4247310000000 1.0
C      1  0.4084110000000  0.4522310000000  0.5080360000000 1.0
C      1  0.4039960000000  0.5603260000000  0.4844590000000 1.0
C      1  0.5018340000000  0.5206550000000  0.5316580000000 1.0
C      1  0.4187270000000  0.5482360000000  0.5498120000000 1.0
C      1  0.4548100000000  0.4652480000000  0.5493840000000 1.0
C      1  0.5682590000000  0.4779300000000  0.4840830000000 1.0
C      1  0.4514420000000  0.4139510000000  0.4534340000000 1.0
C      1  0.4269900000000  0.4358870000000  0.4561700000000 1.0
C      1  0.5072450000000  0.4915800000000  0.4614110000000 1.0
C      1  0.5433340000000  0.6202600000000  0.4532040000000 1.0
C      1  0.5360410000000  0.4870360000000  0.5391520000000 1.0
C      1  0.5417100000000  0.4302180000000  0.5235250000000 1.0
C      1  0.5119170000000  0.4395180000000  0.5314680000000 1.0
C      1  0.5094270000000  0.5629170000000  0.4386980000000 1.0
C      1  0.4258310000000  0.4745270000000  0.5940580000000 1.0
C      1  0.4322920000000  0.4853460000000  0.4697760000000 1.0
C      1  0.4994000000000  0.4550130000000  0.4224980000000 1.0
C      1  0.4409160000000  0.5348670000000  0.5173860000000 1.0
C      1  0.5536060000000  0.4521680000000  0.4572320000000 1.0
C      1  0.5821460000000  0.4960360000000  0.5541980000000 1.0
C      1  0.4551180000000  0.4360570000000  0.4278430000000 1.0
C      1  0.4335630000000  0.5440680000000  0.4886750000000 1.0
C      1  0.4996640000000  0.5594480000000  0.5666070000000 1.0
C      1  0.5261700000000  0.5733730000000  0.5769230000000 1.0
C      1  0.5463140000000  0.5665430000000  0.5349460000000 1.0
C      1  0.4604420000000  0.4802660000000  0.4563680000000 1.0
C      1  0.4563350000000  0.4400210000000  0.4829940000000 1.0
C      1  0.6049330000000  0.4937110000000  0.4846330000000 1.0
C      1  0.5033250000000  0.5328740000000  0.4936940000000 1.0
C      1  0.4983650000000  0.4860290000000  0.4087650000000 1.0
C      1  0.5637500000000  0.5215600000000  0.4230900000000 1.0
C      1  0.4560970000000  0.5528090000000  0.4224540000000 1.0
C      1  0.4990190000000  0.4595400000000  0.4535130000000 1.0
C      1  0.5611540000000  0.4451480000000  0.4896430000000 1.0
C      1  0.4777430000000  0.5000780000000  0.5744080000000 1.0
C      1  0.5290730000000  0.4044110000000  0.5398010000000 1.0
C      1  0.5332400000000  0.5336010000000  0.4503290000000 1.0
C      1  0.4623420000000  0.4642860000000  0.4102580000000 1.0
C      1  0.4452810000000  0.4891750000000  0.4274180000000 1.0
C      1  0.5854080000000  0.5251270000000  0.4998000000000 1.0
C      1  0.4774620000000  0.5501320000000  0.5425660000000 1.0
C      1  0.4927700000000  0.6179290000000  0.5433340000000 1.0
C      1  0.4236830000000  0.5810130000000  0.4996370000000 1.0
C      1  0.5449420000000  0.4765290000000  0.5083240000000 1.0
C      1  0.5970010000000  0.5368400000000  0.5277020000000 1.0
C      1  0.5356850000000  0.5898290000000  0.5519790000000 1.0
C      1  0.4831290000000  0.4309860000000  0.4163210000000 1.0
C      1  0.4193910000000  0.4632290000000  0.4505310000000 1.0
C      1  0.5500840000000  0.5072410000000  0.4490660000000 1.0
C      1  0.5848920000000  0.4959540000000  0.4337190000000 1.0
C      1  0.4712080000000  0.5758150000000  0.5725430000000 1.0
C      1  0.4402440000000  0.5145600000000  0.4581360000000 1.0
C      1  0.4779910000000  0.4155710000000  0.4746780000000 1.0
C      1  0.4136100000000  0.5161550000000  0.5397700000000 1.0
C      1  0.5795570000000  0.5523490000000  0.5513990000000 1.0
C      1  0.5969280000000  0.5030260000000  0.5317750000000 1.0
C      1  0.5159590000000  0.4699660000000  0.4962680000000 1.0
C      1  0.4953170000000  0.4440490000000  0.5575100000000 1.0
C      1  0.5481150000000  0.5162360000000  0.5872690000000 1.0
C      1  0.5101090000000  0.4258570000000  0.4720110000000 1.0
C      1  0.5090350000000  0.5475370000000  0.4667610000000 1.0
C      1  0.4967180000000  0.5145870000000  0.4384890000000 1.0
C      1  0.5066530000000  0.4735500000000  0.5350220000000 1.0
C      1  0.5525530000000  0.5346770000000  0.5406790000000 1.0
C      1  0.5138040000000  0.5551430000000  0.4000180000000 1.0
C      1  0.5645710000000  0.4911420000000  0.4079210000000 1.0
C      1  0.5976980000000  0.5553810000000  0.4981380000000 1.0
C      1  0.5352060000000  0.4788930000000  0.4467810000000 1.0
C      1  0.5219200000000  0.4571020000000  0.3973060000000 1.0
C      1  0.4774560000000  0.4110370000000  0.5444030000000 1.0
C      1  0.4315320000000  0.5437680000000  0.4323310000000 1.0
C      1  0.5548770000000  0.5801670000000  0.4866100000000 1.0
C      1  0.5249840000000  0.5898690000000  0.5000340000000 1.0
C      1  0.4844940000000  0.5561740000000  0.5098010000000 1.0
C      1  0.5561940000000  0.5250010000000  0.4970030000000 1.0
C      1  0.4667230000000  0.5660730000000  0.4864330000000 1.0
C      1  0.4876010000000  0.4625100000000  0.3869560000000 1.0
C      1  0.3935250000000  0.4799700000000  0.5608520000000 1.0
C      1  0.5849180000000  0.5702230000000  0.4749570000000 1.0
C      1  0.4592910000000  0.5772650000000  0.5349020000000 1.0
C      1  0.5950620000000  0.4263440000000  0.4992270000000 1.0
C      1  0.5653630000000  0.5175500000000  0.5636470000000 1.0
C      1  0.5372910000000  0.6454910000000  0.4495070000000 1.0
C      1  0.4959530000000  0.4759750000000  0.5664780000000 1.0
C      1  0.5564900000000  0.5584020000000  0.5725640000000 1.0
C      1  0.5215100000000  0.3885750000000  0.4804320000000 1.0
C      1  0.4553930000000  0.4852560000000  0.5218880000000 1.0
C      1  0.5598350000000  0.4195510000000  0.4498410000000 1.0
C      1  0.4854690000000  0.4765980000000  0.5085960000000 1.0
C      1  0.4302660000000  0.4229350000000  0.5592040000000 1.0
C      1  0.4741710000000  0.6008210000000  0.5523810000000 1.0
C      1  0.5985380000000  0.4837300000000  0.5105700000000 1.0
END
