TITL C-2847953-8112-294 -0.00335018886329153 125000 -263.068790962997 0 0 47 (C1) n - 1
REM
REM in /home/bkarasulu/work/CARBON/AIRSS/Generating-Clusters/AIREBO/with-SteepDescent/Only-C1/SD-CG-opt/Try1-1.4A-POS3A/HFTN-CG
REM
REM
REM
REM
REM
REM ./C.cell (11c1c37f851c82e70ff6c80c92926a4b)
REM
REM compiler GCC version 9.2.1 20190827 (Red Hat 9.2.1-1)
REM options -cpp -mtune=generic -march=x86-64 -g -O0 -fpre-include=/usr/include/finclude/math-vector-fortran.h
REM seed -1804452690 -1475950453 527799452 999997058 -506617575 833751423 -1187586176 -1734019199 -984439940 2064700531 -376035391 -661432734 -806652543 -1366448825 401044157 -429234753 -478742935 1866467266 -1001230713 -2124476214 843275386 -1374493681 -1927404874 1810445518 -2117571009 1709472297 981614423 149368464 1995716947 1823735120 201695107 -836678610 -641103733
REM
CELL 1.54180   50.00000   50.00000   50.00000   90.00000   90.00000   90.00000
LATT -1
SFAC C  
C      1  0.5223260000000  0.5570320000000  0.4984300000000 1.0
C      1  0.5364760000000  0.4751270000000  0.4796120000000 1.0
C      1  0.5312980000000  0.5198970000000  0.4261210000000 1.0
C      1  0.5293940000000  0.4411240000000  0.4410830000000 1.0
C      1  0.4870600000000  0.4575560000000  0.4658830000000 1.0
C      1  0.4702800000000  0.4306510000000  0.5076170000000 1.0
C      1  0.5028650000000  0.4476710000000  0.4412040000000 1.0
C      1  0.5038830000000  0.4829340000000  0.5403480000000 1.0
C      1  0.4878640000000  0.5538370000000  0.5329380000000 1.0
C      1  0.5156290000000  0.4975200000000  0.5614920000000 1.0
C      1  0.4684520000000  0.5644510000000  0.4859730000000 1.0
C      1  0.4606190000000  0.5486390000000  0.5297790000000 1.0
C      1  0.5664300000000  0.4921140000000  0.5230270000000 1.0
C      1  0.4426590000000  0.5245910000000  0.4908820000000 1.0
C      1  0.5073100000000  0.5293050000000  0.5229920000000 1.0
C      1  0.5678310000000  0.5179030000000  0.5371160000000 1.0
C      1  0.4946450000000  0.4223900000000  0.5193300000000 1.0
C      1  0.5391810000000  0.5082860000000  0.5112380000000 1.0
C      1  0.4529330000000  0.5008790000000  0.5468730000000 1.0
C      1  0.4988610000000  0.5212510000000  0.4910440000000 1.0
C      1  0.5353770000000  0.5190830000000  0.4530070000000 1.0
C      1  0.4522340000000  0.5504530000000  0.5028540000000 1.0
C      1  0.4824820000000  0.5737960000000  0.4593780000000 1.0
C      1  0.3994890000000  0.5270720000000  0.4561320000000 1.0
C      1  0.4487890000000  0.4971500000000  0.5074680000000 1.0
C      1  0.5391400000000  0.5333150000000  0.5342650000000 1.0
C      1  0.5525200000000  0.5349370000000  0.4686170000000 1.0
C      1  0.5039890000000  0.4758760000000  0.4860200000000 1.0
C      1  0.4496490000000  0.4731400000000  0.5271540000000 1.0
C      1  0.5176250000000  0.4838800000000  0.5154720000000 1.0
C      1  0.4983300000000  0.5515360000000  0.4797430000000 1.0
C      1  0.5120150000000  0.5688850000000  0.5223160000000 1.0
C      1  0.4494640000000  0.5281300000000  0.5459870000000 1.0
C      1  0.4201690000000  0.5257960000000  0.4710340000000 1.0
C      1  0.5213230000000  0.4285230000000  0.5200120000000 1.0
C      1  0.4770640000000  0.4809260000000  0.5427070000000 1.0
C      1  0.5454890000000  0.4505390000000  0.4597280000000 1.0
C      1  0.4490430000000  0.4434660000000  0.5213200000000 1.0
C      1  0.5190870000000  0.5030410000000  0.4721930000000 1.0
C      1  0.4712870000000  0.4354090000000  0.4799200000000 1.0
C      1  0.5663360000000  0.4654680000000  0.5186150000000 1.0
C      1  0.4712850000000  0.5071180000000  0.4854460000000 1.0
C      1  0.5391380000000  0.4489950000000  0.5155340000000 1.0
C      1  0.4731040000000  0.4863060000000  0.4629270000000 1.0
C      1  0.5426370000000  0.5379020000000  0.4948990000000 1.0
C      1  0.5600490000000  0.4522860000000  0.4889050000000 1.0
C      1  0.5168870000000  0.5238110000000  0.5553670000000 1.0
END
