TITL C-2848506-1665-478 0.00241459595375143 125000 -827.288572819979 0 0 156 (C1) n - 1
REM
REM in /home/bkarasulu/work/CARBON/AIRSS/Generating-Clusters/AIREBO/with-SteepDescent/Only-C1/SD-CG-opt/Try1-1.4A-POS3A/HFTN-CG
REM
REM
REM
REM
REM
REM ./C.cell (11c1c37f851c82e70ff6c80c92926a4b)
REM
REM compiler GCC version 9.2.1 20190827 (Red Hat 9.2.1-1)
REM options -cpp -mtune=generic -march=x86-64 -g -O0 -fpre-include=/usr/include/finclude/math-vector-fortran.h
REM seed 1536845054 1474087332 -1900084212 -504442709 -1803400381 -1203985223 -739540401 -508948748 -1002301817 -375409816 -2069967784 1787655794 -398758230 -389391598 -142322054 -2116108219 -1078567685 235718593 1709937621 -935663898 -1264893904 98370749 -1235267440 -40143090 211813261 448029050 1998463064 -21694495 1928267655 -441542488 1908738053 -24554090 2127029819
REM
CELL 1.54180   50.00000   50.00000   50.00000   90.00000   90.00000   90.00000
LATT -1
SFAC C  
C      1  0.4083660000000  0.4352560000000  0.4963860000000 1.0
C      1  0.4810640000000  0.3908770000000  0.5200070000000 1.0
C      1  0.5580890000000  0.4411230000000  0.5116230000000 1.0
C      1  0.4596810000000  0.5739340000000  0.4259820000000 1.0
C      1  0.4803240000000  0.4381070000000  0.4185680000000 1.0
C      1  0.4646760000000  0.5267940000000  0.4051950000000 1.0
C      1  0.4010000000000  0.5329540000000  0.4495800000000 1.0
C      1  0.5266820000000  0.5874340000000  0.4618780000000 1.0
C      1  0.4208890000000  0.5500250000000  0.4425520000000 1.0
C      1  0.5869150000000  0.5626050000000  0.5433640000000 1.0
C      1  0.5779710000000  0.5062810000000  0.4962220000000 1.0
C      1  0.5237030000000  0.4886270000000  0.5418560000000 1.0
C      1  0.5549520000000  0.5400580000000  0.5140090000000 1.0
C      1  0.4877220000000  0.5820700000000  0.4967560000000 1.0
C      1  0.5968850000000  0.4492550000000  0.4702690000000 1.0
C      1  0.5658520000000  0.4810200000000  0.4436210000000 1.0
C      1  0.4795130000000  0.4513710000000  0.4493610000000 1.0
C      1  0.4996410000000  0.5873100000000  0.4466690000000 1.0
C      1  0.4807010000000  0.4645090000000  0.5944610000000 1.0
C      1  0.5661760000000  0.4906600000000  0.5227940000000 1.0
C      1  0.4059880000000  0.4754740000000  0.4559530000000 1.0
C      1  0.5475480000000  0.4768050000000  0.4806180000000 1.0
C      1  0.4111230000000  0.4429110000000  0.4590580000000 1.0
C      1  0.6089270000000  0.5174180000000  0.5026710000000 1.0
C      1  0.5736030000000  0.4504670000000  0.4550520000000 1.0
C      1  0.5606520000000  0.4155600000000  0.4939120000000 1.0
C      1  0.4663490000000  0.5017550000000  0.5941060000000 1.0
C      1  0.5532990000000  0.4249540000000  0.4648020000000 1.0
C      1  0.5190930000000  0.5212690000000  0.5369880000000 1.0
C      1  0.4798240000000  0.4425630000000  0.5080030000000 1.0
C      1  0.4407700000000  0.4354050000000  0.5198010000000 1.0
C      1  0.4508380000000  0.5051950000000  0.3856750000000 1.0
C      1  0.5277650000000  0.5272720000000  0.5059100000000 1.0
C      1  0.5379900000000  0.5615000000000  0.5825150000000 1.0
C      1  0.5385110000000  0.5385480000000  0.5573680000000 1.0
C      1  0.4339590000000  0.5309150000000  0.5780130000000 1.0
C      1  0.4045710000000  0.5192460000000  0.4726670000000 1.0
C      1  0.5153980000000  0.5437350000000  0.5895850000000 1.0
C      1  0.4193760000000  0.5623260000000  0.4939980000000 1.0
C      1  0.4619450000000  0.5041620000000  0.4478610000000 1.0
C      1  0.5573630000000  0.5881150000000  0.4579050000000 1.0
C      1  0.4988670000000  0.5436820000000  0.5672610000000 1.0
C      1  0.5066760000000  0.4100320000000  0.4866950000000 1.0
C      1  0.5466270000000  0.4043100000000  0.5199530000000 1.0
C      1  0.4776200000000  0.4715450000000  0.4952200000000 1.0
C      1  0.5650120000000  0.4687970000000  0.5013140000000 1.0
C      1  0.4527970000000  0.4845250000000  0.5749440000000 1.0
C      1  0.5727710000000  0.5680950000000  0.4679300000000 1.0
C      1  0.4025110000000  0.4966710000000  0.5482710000000 1.0
C      1  0.4369740000000  0.5123220000000  0.4803860000000 1.0
C      1  0.4362460000000  0.5619550000000  0.4673470000000 1.0
C      1  0.6043550000000  0.5097140000000  0.5362060000000 1.0
C      1  0.4528620000000  0.5293200000000  0.5519530000000 1.0
C      1  0.5658860000000  0.5204080000000  0.5347190000000 1.0
C      1  0.4256890000000  0.4905000000000  0.5684180000000 1.0
C      1  0.5199040000000  0.4803320000000  0.5129520000000 1.0
C      1  0.4640280000000  0.4538730000000  0.4738450000000 1.0
C      1  0.5545910000000  0.4973190000000  0.5829820000000 1.0
C      1  0.5154710000000  0.4114340000000  0.5185240000000 1.0
C      1  0.4661190000000  0.4787600000000  0.5463110000000 1.0
C      1  0.5146210000000  0.5160120000000  0.4054460000000 1.0
C      1  0.5723960000000  0.5358650000000  0.4628820000000 1.0
C      1  0.4497790000000  0.5557710000000  0.5336710000000 1.0
C      1  0.4849600000000  0.5127740000000  0.4715220000000 1.0
C      1  0.5593380000000  0.5047560000000  0.4671220000000 1.0
C      1  0.4292410000000  0.5754210000000  0.5161800000000 1.0
C      1  0.5606620000000  0.5464150000000  0.4347240000000 1.0
C      1  0.4196990000000  0.5404970000000  0.5326170000000 1.0
C      1  0.4421180000000  0.5023720000000  0.5411030000000 1.0
C      1  0.5377210000000  0.4959100000000  0.3898720000000 1.0
C      1  0.4838670000000  0.4152640000000  0.5426590000000 1.0
C      1  0.5671780000000  0.5865140000000  0.5029330000000 1.0
C      1  0.4328740000000  0.4677790000000  0.5129680000000 1.0
C      1  0.5976900000000  0.5155360000000  0.4704250000000 1.0
C      1  0.4330570000000  0.4884330000000  0.4565010000000 1.0
C      1  0.4089150000000  0.4239510000000  0.5230310000000 1.0
C      1  0.4933700000000  0.5351080000000  0.4166170000000 1.0
C      1  0.4876380000000  0.4685200000000  0.4058540000000 1.0
C      1  0.5291830000000  0.4397870000000  0.5825170000000 1.0
C      1  0.4668290000000  0.4417580000000  0.5761910000000 1.0
C      1  0.5489520000000  0.4754560000000  0.4146260000000 1.0
C      1  0.5543620000000  0.4779380000000  0.5520660000000 1.0
C      1  0.4364320000000  0.4288290000000  0.5673750000000 1.0
C      1  0.5612780000000  0.4446510000000  0.5509590000000 1.0
C      1  0.4913530000000  0.5386450000000  0.4503930000000 1.0
C      1  0.4313290000000  0.4563800000000  0.4828670000000 1.0
C      1  0.5307450000000  0.4512600000000  0.4231640000000 1.0
C      1  0.4793620000000  0.4015040000000  0.4937190000000 1.0
C      1  0.4695940000000  0.5955950000000  0.5311580000000 1.0
C      1  0.4906130000000  0.5687330000000  0.4206850000000 1.0
C      1  0.5204620000000  0.4600390000000  0.4769420000000 1.0
C      1  0.5193500000000  0.5931810000000  0.4907100000000 1.0
C      1  0.5904240000000  0.4796400000000  0.5439280000000 1.0
C      1  0.5362950000000  0.5031810000000  0.4283130000000 1.0
C      1  0.5215770000000  0.4939300000000  0.5902070000000 1.0
C      1  0.4778260000000  0.5900340000000  0.4652120000000 1.0
C      1  0.5191000000000  0.5546810000000  0.4617570000000 1.0
C      1  0.5402090000000  0.5884540000000  0.5086130000000 1.0
C      1  0.5564530000000  0.5657150000000  0.5475590000000 1.0
C      1  0.4126700000000  0.4690970000000  0.5376130000000 1.0
C      1  0.4722970000000  0.5188170000000  0.5022280000000 1.0
C      1  0.4582050000000  0.5367710000000  0.4430520000000 1.0
C      1  0.4401840000000  0.4253140000000  0.4604560000000 1.0
C      1  0.5065900000000  0.4341170000000  0.4398720000000 1.0
C      1  0.5024260000000  0.4876700000000  0.4851770000000 1.0
C      1  0.4490980000000  0.5231680000000  0.6006180000000 1.0
C      1  0.5892620000000  0.5050920000000  0.4408390000000 1.0
C      1  0.5276050000000  0.4505110000000  0.5094390000000 1.0
C      1  0.4415360000000  0.5960120000000  0.5328640000000 1.0
C      1  0.5197420000000  0.4157350000000  0.5603420000000 1.0
C      1  0.5780730000000  0.5548320000000  0.4975950000000 1.0
C      1  0.4292970000000  0.5072900000000  0.5129140000000 1.0
C      1  0.5640130000000  0.5207650000000  0.5672400000000 1.0
C      1  0.5170600000000  0.4720930000000  0.4462940000000 1.0
C      1  0.4531820000000  0.4131240000000  0.5422950000000 1.0
C      1  0.5023860000000  0.4408830000000  0.5301190000000 1.0
C      1  0.4884790000000  0.5310350000000  0.5257310000000 1.0
C      1  0.4131410000000  0.5259680000000  0.5552440000000 1.0
C      1  0.4512560000000  0.4520620000000  0.5477710000000 1.0
C      1  0.5396150000000  0.4667530000000  0.5806070000000 1.0
C      1  0.4575810000000  0.4902550000000  0.5065680000000 1.0
C      1  0.5936670000000  0.5394590000000  0.5236100000000 1.0
C      1  0.4124150000000  0.4418330000000  0.5472260000000 1.0
C      1  0.4564570000000  0.4623280000000  0.4187870000000 1.0
C      1  0.4845950000000  0.5180310000000  0.5569360000000 1.0
C      1  0.4980790000000  0.4678850000000  0.5503900000000 1.0
C      1  0.5858590000000  0.4498320000000  0.5294260000000 1.0
C      1  0.4420680000000  0.5485710000000  0.4171330000000 1.0
C      1  0.5304980000000  0.5068580000000  0.4850450000000 1.0
C      1  0.5056720000000  0.5653880000000  0.5461790000000 1.0
C      1  0.5102750000000  0.4848810000000  0.4162700000000 1.0
C      1  0.5316060000000  0.5625020000000  0.5243770000000 1.0
C      1  0.5941980000000  0.5229870000000  0.5626310000000 1.0
C      1  0.4815100000000  0.6128690000000  0.5107100000000 1.0
C      1  0.5062070000000  0.3901710000000  0.5433930000000 1.0
C      1  0.5162650000000  0.5207090000000  0.6057050000000 1.0
C      1  0.4841140000000  0.5522440000000  0.4808100000000 1.0
C      1  0.4857510000000  0.4813180000000  0.4471290000000 1.0
C      1  0.4591330000000  0.4946750000000  0.4153260000000 1.0
C      1  0.5372110000000  0.5598070000000  0.4352120000000 1.0
C      1  0.5205930000000  0.4283330000000  0.4670590000000 1.0
C      1  0.4990760000000  0.4400510000000  0.5699100000000 1.0
C      1  0.5452100000000  0.4264910000000  0.4328490000000 1.0
C      1  0.4383840000000  0.4560460000000  0.4435440000000 1.0
C      1  0.5635850000000  0.5178830000000  0.4284940000000 1.0
C      1  0.5298760000000  0.5819780000000  0.5592490000000 1.0
C      1  0.5927840000000  0.4534260000000  0.4963310000000 1.0
C      1  0.4923380000000  0.4902050000000  0.5754450000000 1.0
C      1  0.5224240000000  0.5734000000000  0.4168810000000 1.0
C      1  0.4102710000000  0.5330730000000  0.5015440000000 1.0
C      1  0.4556180000000  0.4256250000000  0.4907990000000 1.0
C      1  0.4543890000000  0.5397470000000  0.4822850000000 1.0
C      1  0.4543460000000  0.5819140000000  0.4531590000000 1.0
C      1  0.5146270000000  0.5526590000000  0.4954060000000 1.0
C      1  0.5481030000000  0.4193710000000  0.5468100000000 1.0
C      1  0.4815530000000  0.5643400000000  0.5251250000000 1.0
END
