TITL C-2848500-1637-374 0.00014657147493643 125000 -1023.70408454804 0 0 191 (C1) n - 1
REM
REM in /home/bkarasulu/work/CARBON/AIRSS/Generating-Clusters/AIREBO/with-SteepDescent/Only-C1/SD-CG-opt/Try1-1.4A-POS3A/HFTN-CG
REM
REM
REM
REM
REM
REM ./C.cell (11c1c37f851c82e70ff6c80c92926a4b)
REM
REM compiler GCC version 9.2.1 20190827 (Red Hat 9.2.1-1)
REM options -cpp -mtune=generic -march=x86-64 -g -O0 -fpre-include=/usr/include/finclude/math-vector-fortran.h
REM seed -1347448208 -1992263891 -457293504 969138478 -633326414 1902779714 -119593931 -1570727913 984417138 134886643 863790238 -1765669373 1813778970 -99014235 327114801 -1675281762 2044927895 736626724 644138358 933656430 1604978572 -795355771 -1393431856 161618144 -136883615 -1880932829 458429005 144600998 -1099342772 -223728953 -1655347708 111415150 -1184293379
REM
CELL 1.54180   50.00000   50.00000   50.00000   90.00000   90.00000   90.00000
LATT -1
SFAC C  
C      1  0.5354110000000  0.4809680000000  0.5035330000000 1.0
C      1  0.5538530000000  0.4032050000000  0.4692120000000 1.0
C      1  0.4198740000000  0.4474060000000  0.5066980000000 1.0
C      1  0.5736540000000  0.4221460000000  0.4752240000000 1.0
C      1  0.4417580000000  0.4213500000000  0.5067480000000 1.0
C      1  0.5565570000000  0.5149840000000  0.5412840000000 1.0
C      1  0.4563470000000  0.4631140000000  0.5036310000000 1.0
C      1  0.5017110000000  0.5193750000000  0.5426300000000 1.0
C      1  0.4070800000000  0.4484460000000  0.4665730000000 1.0
C      1  0.4628090000000  0.5303020000000  0.4179350000000 1.0
C      1  0.5143420000000  0.5773380000000  0.5219750000000 1.0
C      1  0.4767170000000  0.5902150000000  0.5508670000000 1.0
C      1  0.4521510000000  0.5612290000000  0.4104030000000 1.0
C      1  0.4288320000000  0.4795800000000  0.4998960000000 1.0
C      1  0.6159420000000  0.4612810000000  0.4828110000000 1.0
C      1  0.6095440000000  0.5162280000000  0.4625020000000 1.0
C      1  0.5218670000000  0.5402980000000  0.6111050000000 1.0
C      1  0.5056260000000  0.5384100000000  0.3973640000000 1.0
C      1  0.3983860000000  0.4751370000000  0.4744170000000 1.0
C      1  0.5089630000000  0.5337470000000  0.4296850000000 1.0
C      1  0.5060350000000  0.4610630000000  0.4737350000000 1.0
C      1  0.5646260000000  0.5438750000000  0.4593060000000 1.0
C      1  0.5541630000000  0.4646970000000  0.5938900000000 1.0
C      1  0.5576680000000  0.5824390000000  0.4514980000000 1.0
C      1  0.5523510000000  0.5160170000000  0.4441430000000 1.0
C      1  0.5746010000000  0.5834640000000  0.5156080000000 1.0
C      1  0.4330640000000  0.5342070000000  0.4326000000000 1.0
C      1  0.5236610000000  0.4871490000000  0.4722190000000 1.0
C      1  0.4071540000000  0.4948420000000  0.4552820000000 1.0
C      1  0.5821340000000  0.4369210000000  0.4522270000000 1.0
C      1  0.4848060000000  0.6136510000000  0.4701910000000 1.0
C      1  0.5184140000000  0.5284000000000  0.5020740000000 1.0
C      1  0.4727660000000  0.4269250000000  0.4096690000000 1.0
C      1  0.4415780000000  0.4995050000000  0.5414140000000 1.0
C      1  0.5829980000000  0.4574200000000  0.5799330000000 1.0
C      1  0.5333760000000  0.5468570000000  0.4699840000000 1.0
C      1  0.4375290000000  0.5440710000000  0.4835690000000 1.0
C      1  0.5289820000000  0.3974100000000  0.4887610000000 1.0
C      1  0.4882930000000  0.5673580000000  0.5352000000000 1.0
C      1  0.5611060000000  0.4311460000000  0.4279810000000 1.0
C      1  0.4117990000000  0.4568960000000  0.4384120000000 1.0
C      1  0.5238880000000  0.4055910000000  0.5709280000000 1.0
C      1  0.4600240000000  0.4439070000000  0.4794310000000 1.0
C      1  0.5934080000000  0.5108950000000  0.5780960000000 1.0
C      1  0.3921370000000  0.4989050000000  0.5497330000000 1.0
C      1  0.4735250000000  0.5250860000000  0.5607710000000 1.0
C      1  0.5665560000000  0.4713840000000  0.4646950000000 1.0
C      1  0.5983530000000  0.4650600000000  0.4580960000000 1.0
C      1  0.6111610000000  0.4844470000000  0.5023490000000 1.0
C      1  0.5165910000000  0.4160880000000  0.4638610000000 1.0
C      1  0.5373620000000  0.5534590000000  0.5835000000000 1.0
C      1  0.4703840000000  0.5641910000000  0.5889020000000 1.0
C      1  0.4632470000000  0.5845910000000  0.4858530000000 1.0
C      1  0.4534840000000  0.4471660000000  0.4006380000000 1.0
C      1  0.5827080000000  0.5068920000000  0.5257830000000 1.0
C      1  0.4720240000000  0.5462890000000  0.5171530000000 1.0
C      1  0.5610090000000  0.4972690000000  0.5967950000000 1.0
C      1  0.4639460000000  0.5918470000000  0.4533960000000 1.0
C      1  0.5247100000000  0.4670560000000  0.5326630000000 1.0
C      1  0.4805940000000  0.3956400000000  0.5409310000000 1.0
C      1  0.5457300000000  0.4283390000000  0.5100960000000 1.0
C      1  0.5089780000000  0.4839130000000  0.4186020000000 1.0
C      1  0.5177070000000  0.4037090000000  0.4325900000000 1.0
C      1  0.5617050000000  0.5225350000000  0.5740350000000 1.0
C      1  0.4397940000000  0.5964410000000  0.5576850000000 1.0
C      1  0.4323200000000  0.4838160000000  0.4352240000000 1.0
C      1  0.5590270000000  0.5825930000000  0.4854900000000 1.0
C      1  0.4115420000000  0.5645530000000  0.4915170000000 1.0
C      1  0.4625630000000  0.4127620000000  0.4337210000000 1.0
C      1  0.5780660000000  0.4373790000000  0.5046750000000 1.0
C      1  0.4844960000000  0.4334270000000  0.5900280000000 1.0
C      1  0.4565950000000  0.4445850000000  0.5769620000000 1.0
C      1  0.4046070000000  0.5235440000000  0.4481030000000 1.0
C      1  0.5493410000000  0.5405890000000  0.4208320000000 1.0
C      1  0.5495720000000  0.4227620000000  0.5603540000000 1.0
C      1  0.4933150000000  0.5691370000000  0.4034020000000 1.0
C      1  0.5612250000000  0.4670340000000  0.4951230000000 1.0
C      1  0.5189570000000  0.5767320000000  0.5730330000000 1.0
C      1  0.5789160000000  0.5026510000000  0.4276410000000 1.0
C      1  0.4707250000000  0.4624550000000  0.6022040000000 1.0
C      1  0.4993330000000  0.4060570000000  0.5012450000000 1.0
C      1  0.3966330000000  0.4805300000000  0.5056780000000 1.0
C      1  0.4102330000000  0.5248740000000  0.4876110000000 1.0
C      1  0.4361750000000  0.5041930000000  0.4839360000000 1.0
C      1  0.4959790000000  0.4111190000000  0.5670170000000 1.0
C      1  0.5108390000000  0.3906020000000  0.5362380000000 1.0
C      1  0.4231190000000  0.4745280000000  0.5799510000000 1.0
C      1  0.4445200000000  0.5655660000000  0.5695340000000 1.0
C      1  0.4886270000000  0.5826070000000  0.5767760000000 1.0
C      1  0.4779890000000  0.4763030000000  0.4647510000000 1.0
C      1  0.5125300000000  0.4856920000000  0.6042640000000 1.0
C      1  0.4565800000000  0.5453110000000  0.5454160000000 1.0
C      1  0.4672250000000  0.3988450000000  0.5100300000000 1.0
C      1  0.5078110000000  0.4485760000000  0.5741780000000 1.0
C      1  0.5650730000000  0.5555910000000  0.5637910000000 1.0
C      1  0.4812840000000  0.5553480000000  0.4529210000000 1.0
C      1  0.5095940000000  0.5507530000000  0.5531850000000 1.0
C      1  0.4725320000000  0.4950640000000  0.6020750000000 1.0
C      1  0.5690680000000  0.4199970000000  0.5333930000000 1.0
C      1  0.4534750000000  0.4779960000000  0.4092230000000 1.0
C      1  0.3997240000000  0.5120100000000  0.5128060000000 1.0
C      1  0.5202600000000  0.5047030000000  0.4432870000000 1.0
C      1  0.5346260000000  0.6005200000000  0.4970910000000 1.0
C      1  0.4395960000000  0.4450590000000  0.4292710000000 1.0
C      1  0.4890510000000  0.4556460000000  0.5466380000000 1.0
C      1  0.5737650000000  0.5366440000000  0.5125900000000 1.0
C      1  0.5836390000000  0.5622350000000  0.4737910000000 1.0
C      1  0.5294000000000  0.5522860000000  0.5186180000000 1.0
C      1  0.4882210000000  0.4881740000000  0.5366850000000 1.0
C      1  0.5141130000000  0.4534270000000  0.4119700000000 1.0
C      1  0.4763280000000  0.5335420000000  0.5923520000000 1.0
C      1  0.4584450000000  0.4570120000000  0.4490920000000 1.0
C      1  0.5958320000000  0.4837440000000  0.5715830000000 1.0
C      1  0.5143960000000  0.5620430000000  0.4462060000000 1.0
C      1  0.5005760000000  0.5406640000000  0.4767830000000 1.0
C      1  0.5473210000000  0.4054720000000  0.4407540000000 1.0
C      1  0.4780260000000  0.4007030000000  0.4782880000000 1.0
C      1  0.4301640000000  0.5358160000000  0.5729190000000 1.0
C      1  0.4940600000000  0.5128310000000  0.4633930000000 1.0
C      1  0.5095600000000  0.4982340000000  0.5754690000000 1.0
C      1  0.4986730000000  0.5158290000000  0.6096790000000 1.0
C      1  0.4768410000000  0.4921350000000  0.5684800000000 1.0
C      1  0.5988840000000  0.4950570000000  0.4483180000000 1.0
C      1  0.5795670000000  0.4804850000000  0.5440370000000 1.0
C      1  0.4692430000000  0.5158000000000  0.4458470000000 1.0
C      1  0.5261490000000  0.4420900000000  0.5495680000000 1.0
C      1  0.5020200000000  0.4784240000000  0.5094130000000 1.0
C      1  0.4237730000000  0.5510540000000  0.5385690000000 1.0
C      1  0.5239490000000  0.4164930000000  0.5304780000000 1.0
C      1  0.5295950000000  0.4885670000000  0.5543350000000 1.0
C      1  0.5245000000000  0.4600980000000  0.5990340000000 1.0
C      1  0.6109950000000  0.4369590000000  0.4962120000000 1.0
C      1  0.5856910000000  0.5045170000000  0.4925200000000 1.0
C      1  0.5988790000000  0.5355820000000  0.4883560000000 1.0
C      1  0.3923760000000  0.4753600000000  0.5354750000000 1.0
C      1  0.5906740000000  0.5151820000000  0.4054940000000 1.0
C      1  0.6211210000000  0.5165530000000  0.5062180000000 1.0
C      1  0.4935750000000  0.4304570000000  0.5242480000000 1.0
C      1  0.5221880000000  0.4467850000000  0.4503570000000 1.0
C      1  0.4504850000000  0.5490090000000  0.4579000000000 1.0
C      1  0.4555380000000  0.5252720000000  0.5025690000000 1.0
C      1  0.5357220000000  0.6000580000000  0.5595530000000 1.0
C      1  0.4336310000000  0.4148730000000  0.4435290000000 1.0
C      1  0.5861950000000  0.4681340000000  0.5167300000000 1.0
C      1  0.5294850000000  0.5213800000000  0.5848620000000 1.0
C      1  0.5341480000000  0.6027250000000  0.5310280000000 1.0
C      1  0.4310630000000  0.4271100000000  0.4749470000000 1.0
C      1  0.4219210000000  0.5191880000000  0.4045150000000 1.0
C      1  0.5498840000000  0.4598950000000  0.4411690000000 1.0
C      1  0.3972440000000  0.5495100000000  0.4681080000000 1.0
C      1  0.4829940000000  0.5788460000000  0.4284020000000 1.0
C      1  0.4403670000000  0.5783570000000  0.5298360000000 1.0
C      1  0.4623900000000  0.4145070000000  0.5629580000000 1.0
C      1  0.5278490000000  0.5062040000000  0.5253150000000 1.0
C      1  0.5553070000000  0.4838240000000  0.4206730000000 1.0
C      1  0.4086250000000  0.4548020000000  0.5442330000000 1.0
C      1  0.4626640000000  0.4944880000000  0.5151470000000 1.0
C      1  0.5501380000000  0.5278280000000  0.4926500000000 1.0
C      1  0.4857380000000  0.4947870000000  0.4897070000000 1.0
C      1  0.5060780000000  0.6102810000000  0.5152420000000 1.0
C      1  0.5346800000000  0.4975490000000  0.4066960000000 1.0
C      1  0.5398760000000  0.4442940000000  0.4058140000000 1.0
C      1  0.5771310000000  0.4401060000000  0.5591910000000 1.0
C      1  0.4501590000000  0.4948610000000  0.4584710000000 1.0
C      1  0.4371900000000  0.5806360000000  0.4994460000000 1.0
C      1  0.5063100000000  0.5892420000000  0.4819790000000 1.0
C      1  0.4874740000000  0.5646760000000  0.4953000000000 1.0
C      1  0.5607710000000  0.5016490000000  0.4737900000000 1.0
C      1  0.4821500000000  0.4910310000000  0.4053290000000 1.0
C      1  0.5409680000000  0.5424820000000  0.5452260000000 1.0
C      1  0.4778430000000  0.4236030000000  0.4587390000000 1.0
C      1  0.4476910000000  0.5174860000000  0.5958200000000 1.0
C      1  0.5252420000000  0.4368320000000  0.4882830000000 1.0
C      1  0.4612870000000  0.4298250000000  0.5339990000000 1.0
C      1  0.4415310000000  0.5730770000000  0.4359900000000 1.0
C      1  0.4155760000000  0.5214030000000  0.5407140000000 1.0
C      1  0.5348850000000  0.5253920000000  0.4007750000000 1.0
C      1  0.4579170000000  0.6074750000000  0.5303460000000 1.0
C      1  0.5440510000000  0.5662630000000  0.4333630000000 1.0
C      1  0.4299350000000  0.5034840000000  0.5731160000000 1.0
C      1  0.4816950000000  0.5189140000000  0.3989580000000 1.0
C      1  0.4506550000000  0.4720890000000  0.5601500000000 1.0
C      1  0.4977950000000  0.4315220000000  0.4322300000000 1.0
C      1  0.5036980000000  0.5941250000000  0.4497490000000 1.0
C      1  0.5739290000000  0.5602010000000  0.5312690000000 1.0
C      1  0.4405910000000  0.4548530000000  0.5326170000000 1.0
C      1  0.4780370000000  0.6097290000000  0.5033440000000 1.0
C      1  0.5563370000000  0.4835620000000  0.5658780000000 1.0
C      1  0.4033410000000  0.5657850000000  0.5218750000000 1.0
C      1  0.4109920000000  0.5588250000000  0.4405380000000 1.0
C      1  0.4295640000000  0.4964200000000  0.3974190000000 1.0
END
