TITL C-2847959-7740-674 -0.00262538972834749 125000 -1045.71518951907 0 0 195 (C1) n - 1
REM
REM in /home/bkarasulu/work/CARBON/AIRSS/Generating-Clusters/AIREBO/with-SteepDescent/Only-C1/SD-CG-opt/Try1-1.4A-POS3A/HFTN-CG
REM
REM
REM
REM
REM
REM ./C.cell (11c1c37f851c82e70ff6c80c92926a4b)
REM
REM compiler GCC version 9.2.1 20190827 (Red Hat 9.2.1-1)
REM options -cpp -mtune=generic -march=x86-64 -g -O0 -fpre-include=/usr/include/finclude/math-vector-fortran.h
REM seed -1617669574 1552050109 1697163258 470898123 377576028 919973723 -306381031 -34831052 -477092763 -920330041 -612992402 2115421762 -1810061689 388399511 -383692658 1468858879 1869848631 835606377 -676682035 2121226094 1143523910 -1555756363 -398703325 1390636330 2027497129 47002993 791947369 1504802955 110113998 -593432526 900911383 128789734 -1177983180
REM
CELL 1.54180   50.00000   50.00000   50.00000   90.00000   90.00000   90.00000
LATT -1
SFAC C  
C      1  0.5473890000000  0.5768510000000  0.4437530000000 1.0
C      1  0.6005350000000  0.5501640000000  0.4663700000000 1.0
C      1  0.3972390000000  0.5327010000000  0.4862790000000 1.0
C      1  0.4939260000000  0.5263190000000  0.4970740000000 1.0
C      1  0.4149800000000  0.5727650000000  0.5329780000000 1.0
C      1  0.5425380000000  0.6175620000000  0.4965690000000 1.0
C      1  0.5108850000000  0.4388470000000  0.3976730000000 1.0
C      1  0.3690190000000  0.4316980000000  0.5076770000000 1.0
C      1  0.5846600000000  0.4561160000000  0.4490640000000 1.0
C      1  0.4787760000000  0.5086020000000  0.6170910000000 1.0
C      1  0.4768340000000  0.5072690000000  0.4556350000000 1.0
C      1  0.4623350000000  0.5677710000000  0.5492780000000 1.0
C      1  0.4575450000000  0.4134940000000  0.4526460000000 1.0
C      1  0.4622060000000  0.4719840000000  0.5945020000000 1.0
C      1  0.5807260000000  0.4798170000000  0.4284500000000 1.0
C      1  0.5446420000000  0.5819810000000  0.4772560000000 1.0
C      1  0.4417170000000  0.5674340000000  0.4708090000000 1.0
C      1  0.4290950000000  0.4157610000000  0.4711310000000 1.0
C      1  0.5165130000000  0.4369410000000  0.5314690000000 1.0
C      1  0.4860450000000  0.4493870000000  0.6034000000000 1.0
C      1  0.5995230000000  0.5260520000000  0.5044680000000 1.0
C      1  0.4527620000000  0.5233670000000  0.5792880000000 1.0
C      1  0.5144460000000  0.3850810000000  0.5285170000000 1.0
C      1  0.4747590000000  0.5677840000000  0.5769620000000 1.0
C      1  0.5620420000000  0.4429140000000  0.3915320000000 1.0
C      1  0.4441130000000  0.4380020000000  0.5841410000000 1.0
C      1  0.5558300000000  0.4758790000000  0.5637880000000 1.0
C      1  0.4851630000000  0.5205820000000  0.5692580000000 1.0
C      1  0.4463440000000  0.4675180000000  0.4499870000000 1.0
C      1  0.4851870000000  0.5308480000000  0.4245520000000 1.0
C      1  0.4508960000000  0.4999370000000  0.6031790000000 1.0
C      1  0.5585620000000  0.5111310000000  0.5174380000000 1.0
C      1  0.5050900000000  0.4896580000000  0.4636710000000 1.0
C      1  0.4629290000000  0.4947570000000  0.4812320000000 1.0
C      1  0.5406330000000  0.5543250000000  0.5236250000000 1.0
C      1  0.4849500000000  0.4978140000000  0.5054750000000 1.0
C      1  0.5101630000000  0.5142410000000  0.4085230000000 1.0
C      1  0.5659340000000  0.4959120000000  0.4690730000000 1.0
C      1  0.5870200000000  0.4329010000000  0.4704790000000 1.0
C      1  0.4547510000000  0.4903730000000  0.5473550000000 1.0
C      1  0.4821490000000  0.5082920000000  0.5376990000000 1.0
C      1  0.4898580000000  0.6139580000000  0.5142140000000 1.0
C      1  0.5505030000000  0.5487120000000  0.4796590000000 1.0
C      1  0.5825460000000  0.5240010000000  0.4595280000000 1.0
C      1  0.4889190000000  0.6302910000000  0.4307400000000 1.0
C      1  0.5719430000000  0.4470180000000  0.5589050000000 1.0
C      1  0.5208660000000  0.4053040000000  0.4376540000000 1.0
C      1  0.4336030000000  0.4540790000000  0.5368100000000 1.0
C      1  0.5221820000000  0.5697010000000  0.4220780000000 1.0
C      1  0.6116790000000  0.4764360000000  0.4526940000000 1.0
C      1  0.4533690000000  0.5413770000000  0.4179820000000 1.0
C      1  0.5452900000000  0.4141790000000  0.4282500000000 1.0
C      1  0.5888910000000  0.4798100000000  0.5232460000000 1.0
C      1  0.4904540000000  0.4617620000000  0.5495810000000 1.0
C      1  0.4795310000000  0.4686110000000  0.4714260000000 1.0
C      1  0.5700340000000  0.5290490000000  0.4907610000000 1.0
C      1  0.4153560000000  0.5751780000000  0.5037270000000 1.0
C      1  0.5554840000000  0.5647730000000  0.5670690000000 1.0
C      1  0.4199530000000  0.5388010000000  0.4239150000000 1.0
C      1  0.4214940000000  0.5284480000000  0.5667700000000 1.0
C      1  0.5264280000000  0.5716880000000  0.5736240000000 1.0
C      1  0.4362670000000  0.5012000000000  0.4995440000000 1.0
C      1  0.4203040000000  0.5474930000000  0.4977360000000 1.0
C      1  0.4925800000000  0.5405820000000  0.5354120000000 1.0
C      1  0.5907430000000  0.5630350000000  0.4946130000000 1.0
C      1  0.5374900000000  0.5072450000000  0.4839880000000 1.0
C      1  0.4627020000000  0.4698290000000  0.4196290000000 1.0
C      1  0.3934890000000  0.5284930000000  0.5198560000000 1.0
C      1  0.4353870000000  0.5098590000000  0.3892830000000 1.0
C      1  0.4518270000000  0.6058740000000  0.4709330000000 1.0
C      1  0.5173370000000  0.5557330000000  0.4822680000000 1.0
C      1  0.4072730000000  0.4612220000000  0.4845870000000 1.0
C      1  0.5131520000000  0.4150430000000  0.4859630000000 1.0
C      1  0.5862440000000  0.5245070000000  0.5650780000000 1.0
C      1  0.5151800000000  0.4460470000000  0.4720260000000 1.0
C      1  0.5567500000000  0.5186250000000  0.4107150000000 1.0
C      1  0.4344160000000  0.5405940000000  0.4609980000000 1.0
C      1  0.4858610000000  0.5181870000000  0.3866650000000 1.0
C      1  0.5769010000000  0.5809900000000  0.4745690000000 1.0
C      1  0.4449840000000  0.4422420000000  0.4120780000000 1.0
C      1  0.5014250000000  0.4488440000000  0.5030250000000 1.0
C      1  0.5863380000000  0.5088510000000  0.5372080000000 1.0
C      1  0.4136190000000  0.5266330000000  0.3987300000000 1.0
C      1  0.5630410000000  0.5322570000000  0.4345180000000 1.0
C      1  0.4509340000000  0.3947690000000  0.5413160000000 1.0
C      1  0.4664620000000  0.4465870000000  0.5321930000000 1.0
C      1  0.4717170000000  0.4411280000000  0.4990450000000 1.0
C      1  0.5652490000000  0.4156420000000  0.5106190000000 1.0
C      1  0.4352930000000  0.4300970000000  0.4347640000000 1.0
C      1  0.5253170000000  0.5021740000000  0.6051470000000 1.0
C      1  0.4972840000000  0.4200310000000  0.4218020000000 1.0
C      1  0.4255900000000  0.5098610000000  0.4705460000000 1.0
C      1  0.4863100000000  0.5356150000000  0.4642490000000 1.0
C      1  0.5048690000000  0.4474310000000  0.5740860000000 1.0
C      1  0.5881750000000  0.4320100000000  0.4980050000000 1.0
C      1  0.4243700000000  0.5940930000000  0.4805720000000 1.0
C      1  0.5326550000000  0.4653880000000  0.5411990000000 1.0
C      1  0.5096690000000  0.4793640000000  0.4957570000000 1.0
C      1  0.5185620000000  0.5949460000000  0.4440910000000 1.0
C      1  0.5286700000000  0.5118510000000  0.4533000000000 1.0
C      1  0.5222480000000  0.3890130000000  0.5523780000000 1.0
C      1  0.4852370000000  0.4133550000000  0.5676030000000 1.0
C      1  0.4722540000000  0.5514790000000  0.4908420000000 1.0
C      1  0.4373880000000  0.5861870000000  0.5436660000000 1.0
C      1  0.5954800000000  0.4881060000000  0.4756410000000 1.0
C      1  0.4782380000000  0.5975630000000  0.4645510000000 1.0
C      1  0.5293310000000  0.5153800000000  0.5343380000000 1.0
C      1  0.4068150000000  0.4816280000000  0.5521940000000 1.0
C      1  0.5858630000000  0.5501740000000  0.5242550000000 1.0
C      1  0.4835200000000  0.4810000000000  0.5738760000000 1.0
C      1  0.5631690000000  0.4257800000000  0.4473090000000 1.0
C      1  0.4488900000000  0.4636530000000  0.5643410000000 1.0
C      1  0.4993360000000  0.4114670000000  0.5168480000000 1.0
C      1  0.4052230000000  0.4670510000000  0.5247310000000 1.0
C      1  0.5154760000000  0.5335560000000  0.5595530000000 1.0
C      1  0.4714600000000  0.3949470000000  0.5065380000000 1.0
C      1  0.5342930000000  0.5290200000000  0.3982860000000 1.0
C      1  0.3886960000000  0.4479120000000  0.5060620000000 1.0
C      1  0.5092940000000  0.4986820000000  0.5779790000000 1.0
C      1  0.4617630000000  0.4773670000000  0.5185320000000 1.0
C      1  0.4624490000000  0.5979170000000  0.5236610000000 1.0
C      1  0.5046080000000  0.5508490000000  0.4442660000000 1.0
C      1  0.5703040000000  0.6239780000000  0.5311360000000 1.0
C      1  0.4326810000000  0.4926580000000  0.4351050000000 1.0
C      1  0.5151930000000  0.4646870000000  0.5987070000000 1.0
C      1  0.4549010000000  0.5786850000000  0.5000660000000 1.0
C      1  0.4523320000000  0.4041260000000  0.4910290000000 1.0
C      1  0.5510320000000  0.4691420000000  0.3891160000000 1.0
C      1  0.5943260000000  0.5768070000000  0.4492930000000 1.0
C      1  0.4029130000000  0.5018970000000  0.4479550000000 1.0
C      1  0.4373060000000  0.4863330000000  0.4041670000000 1.0
C      1  0.4614040000000  0.4419930000000  0.4666510000000 1.0
C      1  0.4602630000000  0.5249440000000  0.3907110000000 1.0
C      1  0.5386620000000  0.4626300000000  0.5017500000000 1.0
C      1  0.4987920000000  0.4887630000000  0.6166480000000 1.0
C      1  0.4918060000000  0.4522950000000  0.4226670000000 1.0
C      1  0.4000370000000  0.4908930000000  0.4802040000000 1.0
C      1  0.5644860000000  0.5973600000000  0.5296730000000 1.0
C      1  0.5073920000000  0.3964000000000  0.4630510000000 1.0
C      1  0.5363250000000  0.5439510000000  0.4491250000000 1.0
C      1  0.4501900000000  0.5192220000000  0.4410690000000 1.0
C      1  0.4188250000000  0.4531370000000  0.5900590000000 1.0
C      1  0.4649530000000  0.5472660000000  0.5947650000000 1.0
C      1  0.6009520000000  0.4486340000000  0.5170240000000 1.0
C      1  0.5671000000000  0.3880820000000  0.5050110000000 1.0
C      1  0.5488830000000  0.4446250000000  0.4677400000000 1.0
C      1  0.5562900000000  0.5094730000000  0.6007490000000 1.0
C      1  0.5246840000000  0.5311130000000  0.5045430000000 1.0
C      1  0.6034020000000  0.4970180000000  0.5003990000000 1.0
C      1  0.5991540000000  0.5029880000000  0.4388040000000 1.0
C      1  0.4698930000000  0.4265370000000  0.5879070000000 1.0
C      1  0.4466950000000  0.5333060000000  0.5039940000000 1.0
C      1  0.4819630000000  0.4011010000000  0.4431090000000 1.0
C      1  0.5302470000000  0.5557830000000  0.3964900000000 1.0
C      1  0.5460850000000  0.4773490000000  0.5948230000000 1.0
C      1  0.4063690000000  0.5454000000000  0.5414340000000 1.0
C      1  0.4868130000000  0.5352960000000  0.6104560000000 1.0
C      1  0.5992910000000  0.4613100000000  0.5498190000000 1.0
C      1  0.5402430000000  0.5866910000000  0.5106490000000 1.0
C      1  0.5033270000000  0.5522780000000  0.5852310000000 1.0
C      1  0.4049670000000  0.4989590000000  0.5128650000000 1.0
C      1  0.5865800000000  0.4903980000000  0.5633960000000 1.0
C      1  0.4933410000000  0.5768570000000  0.4826110000000 1.0
C      1  0.5066230000000  0.5905650000000  0.5072940000000 1.0
C      1  0.4792180000000  0.4973880000000  0.4232110000000 1.0
C      1  0.5244370000000  0.4642270000000  0.3817230000000 1.0
C      1  0.5178600000000  0.4206030000000  0.5612850000000 1.0
C      1  0.5556180000000  0.4871380000000  0.4128850000000 1.0
C      1  0.5422410000000  0.4263160000000  0.4033340000000 1.0
C      1  0.4384190000000  0.4342910000000  0.4982730000000 1.0
C      1  0.4620780000000  0.5437810000000  0.5287510000000 1.0
C      1  0.5566470000000  0.4773440000000  0.5214870000000 1.0
C      1  0.4882900000000  0.5862820000000  0.5425380000000 1.0
C      1  0.5648390000000  0.4218720000000  0.5394060000000 1.0
C      1  0.5385320000000  0.5332010000000  0.5845640000000 1.0
C      1  0.4952770000000  0.6088090000000  0.4455260000000 1.0
C      1  0.4206190000000  0.5036750000000  0.5909120000000 1.0
C      1  0.4220610000000  0.4466700000000  0.4614790000000 1.0
C      1  0.5415820000000  0.4758640000000  0.4722170000000 1.0
C      1  0.5617710000000  0.5389450000000  0.5458610000000 1.0
C      1  0.4374530000000  0.4672730000000  0.4973070000000 1.0
C      1  0.5097520000000  0.4897600000000  0.5451670000000 1.0
C      1  0.5257670000000  0.4914870000000  0.4285750000000 1.0
C      1  0.5111050000000  0.5658700000000  0.5284650000000 1.0
C      1  0.4017780000000  0.5358980000000  0.4526880000000 1.0
C      1  0.5511800000000  0.5083800000000  0.5564250000000 1.0
C      1  0.5694980000000  0.5417090000000  0.5849420000000 1.0
C      1  0.5117390000000  0.4639640000000  0.4432240000000 1.0
C      1  0.5758060000000  0.5760680000000  0.5438630000000 1.0
C      1  0.4276960000000  0.5018230000000  0.5516220000000 1.0
C      1  0.4100700000000  0.4787700000000  0.5808860000000 1.0
C      1  0.5415530000000  0.4296750000000  0.4968980000000 1.0
C      1  0.5490150000000  0.4242100000000  0.5668260000000 1.0
C      1  0.5127890000000  0.5931800000000  0.5619050000000 1.0
C      1  0.4735800000000  0.4141220000000  0.5389200000000 1.0
END
