TITL C-2848502-4955-564 0.00293573357660612 125000 -1045.36658507665 0 0 194 (C1) n - 1
REM
REM in /home/bkarasulu/work/CARBON/AIRSS/Generating-Clusters/AIREBO/with-SteepDescent/Only-C1/SD-CG-opt/Try1-1.4A-POS3A/HFTN-CG
REM
REM
REM
REM
REM
REM ./C.cell (11c1c37f851c82e70ff6c80c92926a4b)
REM
REM compiler GCC version 9.2.1 20190827 (Red Hat 9.2.1-1)
REM options -cpp -mtune=generic -march=x86-64 -g -O0 -fpre-include=/usr/include/finclude/math-vector-fortran.h
REM seed -2004430059 -869042002 862674092 190046722 569201032 1333134955 -1423582048 -555607756 -1599322178 -965981943 629425563 -1188891567 1652358833 -1830646777 89287763 -1713523038 -614514189 -1027285586 -135635141 -1597493514 274937327 1102514207 1705480768 -1564908114 436717200 1613294695 -1470149460 1793840702 -1232972815 -1376432707 -84113968 1601325707 2028138198
REM
CELL 1.54180   50.00000   50.00000   50.00000   90.00000   90.00000   90.00000
LATT -1
SFAC C  
C      1  0.4550180000000  0.5838280000000  0.4536000000000 1.0
C      1  0.6100120000000  0.4354910000000  0.4926470000000 1.0
C      1  0.4458290000000  0.4880590000000  0.5777680000000 1.0
C      1  0.4687030000000  0.5001930000000  0.3918970000000 1.0
C      1  0.4409360000000  0.4446410000000  0.4808220000000 1.0
C      1  0.4448280000000  0.4841760000000  0.3914900000000 1.0
C      1  0.4691420000000  0.5524720000000  0.5658840000000 1.0
C      1  0.4394080000000  0.4894660000000  0.4420740000000 1.0
C      1  0.5745820000000  0.4459850000000  0.5665120000000 1.0
C      1  0.3812970000000  0.4827640000000  0.4903680000000 1.0
C      1  0.5445660000000  0.4570820000000  0.5149880000000 1.0
C      1  0.4695420000000  0.5751620000000  0.4831080000000 1.0
C      1  0.5423140000000  0.4461340000000  0.4565040000000 1.0
C      1  0.4856920000000  0.5137400000000  0.4250140000000 1.0
C      1  0.4319930000000  0.5608400000000  0.4436920000000 1.0
C      1  0.4956680000000  0.5673670000000  0.5914510000000 1.0
C      1  0.4310730000000  0.4224750000000  0.5639010000000 1.0
C      1  0.4558810000000  0.4746880000000  0.4752930000000 1.0
C      1  0.5277810000000  0.5914750000000  0.4606540000000 1.0
C      1  0.4882510000000  0.4091390000000  0.5711680000000 1.0
C      1  0.4132630000000  0.4308510000000  0.5386730000000 1.0
C      1  0.5422780000000  0.5651700000000  0.4244360000000 1.0
C      1  0.5685680000000  0.4106970000000  0.5288220000000 1.0
C      1  0.5821550000000  0.4330390000000  0.5423170000000 1.0
C      1  0.4857970000000  0.4147030000000  0.4745630000000 1.0
C      1  0.4967430000000  0.4663020000000  0.6031930000000 1.0
C      1  0.4992320000000  0.5214310000000  0.5282190000000 1.0
C      1  0.4624920000000  0.5329090000000  0.3988230000000 1.0
C      1  0.5319280000000  0.4173810000000  0.4518540000000 1.0
C      1  0.5264580000000  0.4575370000000  0.4843550000000 1.0
C      1  0.6017610000000  0.5136410000000  0.4773610000000 1.0
C      1  0.4399110000000  0.5692000000000  0.5705610000000 1.0
C      1  0.5583900000000  0.4939080000000  0.4502540000000 1.0
C      1  0.5918590000000  0.4889360000000  0.5471560000000 1.0
C      1  0.5387940000000  0.3926600000000  0.5650850000000 1.0
C      1  0.5151510000000  0.4152850000000  0.4292780000000 1.0
C      1  0.5474670000000  0.6068050000000  0.5392880000000 1.0
C      1  0.5965230000000  0.5034240000000  0.4453480000000 1.0
C      1  0.5541430000000  0.4992540000000  0.5388230000000 1.0
C      1  0.5457400000000  0.5316120000000  0.5325970000000 1.0
C      1  0.5027910000000  0.4999730000000  0.4490740000000 1.0
C      1  0.5344390000000  0.4660130000000  0.3922410000000 1.0
C      1  0.5966340000000  0.5364370000000  0.4547480000000 1.0
C      1  0.5323720000000  0.5131500000000  0.4579470000000 1.0
C      1  0.5677920000000  0.5141830000000  0.4759340000000 1.0
C      1  0.4441790000000  0.4596860000000  0.5591000000000 1.0
C      1  0.5201390000000  0.4880860000000  0.4223570000000 1.0
C      1  0.4505690000000  0.5034340000000  0.5207820000000 1.0
C      1  0.6123480000000  0.5220300000000  0.5047360000000 1.0
C      1  0.5553790000000  0.5430760000000  0.5935180000000 1.0
C      1  0.5035060000000  0.4598270000000  0.5216660000000 1.0
C      1  0.5243390000000  0.6191560000000  0.4450350000000 1.0
C      1  0.5272920000000  0.4557520000000  0.4301130000000 1.0
C      1  0.4865090000000  0.6187310000000  0.5138550000000 1.0
C      1  0.5560530000000  0.5595010000000  0.5295660000000 1.0
C      1  0.3997060000000  0.5317640000000  0.4877150000000 1.0
C      1  0.4128560000000  0.4756450000000  0.5012090000000 1.0
C      1  0.3944860000000  0.4111910000000  0.5313010000000 1.0
C      1  0.5754210000000  0.5078040000000  0.4188630000000 1.0
C      1  0.4127580000000  0.4605970000000  0.4347430000000 1.0
C      1  0.4151730000000  0.4488970000000  0.4590070000000 1.0
C      1  0.5160920000000  0.6153570000000  0.5028330000000 1.0
C      1  0.4718550000000  0.4374960000000  0.3858540000000 1.0
C      1  0.4406930000000  0.4575710000000  0.6079880000000 1.0
C      1  0.4736470000000  0.5251070000000  0.5083710000000 1.0
C      1  0.4232980000000  0.5540120000000  0.5378480000000 1.0
C      1  0.5962780000000  0.4511250000000  0.5192470000000 1.0
C      1  0.5243530000000  0.5214620000000  0.3841580000000 1.0
C      1  0.5416620000000  0.5142420000000  0.4191580000000 1.0
C      1  0.6275340000000  0.4570050000000  0.4675980000000 1.0
C      1  0.5055990000000  0.5588810000000  0.4108960000000 1.0
C      1  0.5212580000000  0.4773430000000  0.5447480000000 1.0
C      1  0.5214590000000  0.3976960000000  0.5191720000000 1.0
C      1  0.5658850000000  0.4908510000000  0.5851330000000 1.0
C      1  0.4854700000000  0.5460800000000  0.4853580000000 1.0
C      1  0.3978390000000  0.5050600000000  0.4793110000000 1.0
C      1  0.4931300000000  0.4610720000000  0.4828320000000 1.0
C      1  0.4405000000000  0.5822150000000  0.5291150000000 1.0
C      1  0.5769950000000  0.4904570000000  0.4978760000000 1.0
C      1  0.5812960000000  0.5577140000000  0.5143930000000 1.0
C      1  0.5410880000000  0.5313200000000  0.4832570000000 1.0
C      1  0.5154950000000  0.5530370000000  0.5696850000000 1.0
C      1  0.4946710000000  0.4498480000000  0.3932700000000 1.0
C      1  0.4729120000000  0.4388700000000  0.4908470000000 1.0
C      1  0.5134540000000  0.5315830000000  0.4270850000000 1.0
C      1  0.4729700000000  0.4873190000000  0.5572770000000 1.0
C      1  0.4913820000000  0.4790510000000  0.4059690000000 1.0
C      1  0.4931640000000  0.5142910000000  0.4760560000000 1.0
C      1  0.5886520000000  0.5183240000000  0.5480590000000 1.0
C      1  0.5408530000000  0.4523780000000  0.5465850000000 1.0
C      1  0.4903980000000  0.5473960000000  0.4459070000000 1.0
C      1  0.4742190000000  0.4614760000000  0.4295120000000 1.0
C      1  0.5142030000000  0.5833690000000  0.4305430000000 1.0
C      1  0.4614010000000  0.5900280000000  0.5548890000000 1.0
C      1  0.4979940000000  0.4651290000000  0.5634110000000 1.0
C      1  0.5417810000000  0.5440190000000  0.4027330000000 1.0
C      1  0.5351150000000  0.5286240000000  0.5625030000000 1.0
C      1  0.5722860000000  0.4748070000000  0.5236750000000 1.0
C      1  0.4967410000000  0.4342370000000  0.5922970000000 1.0
C      1  0.5423340000000  0.6079560000000  0.5089780000000 1.0
C      1  0.4962800000000  0.5736390000000  0.5283900000000 1.0
C      1  0.4166170000000  0.4829240000000  0.5335830000000 1.0
C      1  0.5657520000000  0.4174730000000  0.5009480000000 1.0
C      1  0.5519630000000  0.4764830000000  0.4265590000000 1.0
C      1  0.4932440000000  0.5866830000000  0.5664620000000 1.0
C      1  0.5613540000000  0.4750520000000  0.4762090000000 1.0
C      1  0.3950280000000  0.5180240000000  0.5439750000000 1.0
C      1  0.5278940000000  0.4583610000000  0.5987770000000 1.0
C      1  0.4682580000000  0.4428630000000  0.5762320000000 1.0
C      1  0.5191750000000  0.5941460000000  0.5533030000000 1.0
C      1  0.4623780000000  0.5049260000000  0.4828100000000 1.0
C      1  0.5249810000000  0.4082950000000  0.4776650000000 1.0
C      1  0.5058210000000  0.5662820000000  0.4670610000000 1.0
C      1  0.4956870000000  0.5203490000000  0.3931880000000 1.0
C      1  0.5421930000000  0.4406410000000  0.5754120000000 1.0
C      1  0.5448420000000  0.3951920000000  0.5371010000000 1.0
C      1  0.4665310000000  0.4297590000000  0.5448970000000 1.0
C      1  0.5800450000000  0.5709700000000  0.4892160000000 1.0
C      1  0.5985710000000  0.4739110000000  0.4622770000000 1.0
C      1  0.5672680000000  0.5222470000000  0.5721540000000 1.0
C      1  0.5218020000000  0.4368410000000  0.4043250000000 1.0
C      1  0.4268980000000  0.4466600000000  0.5117880000000 1.0
C      1  0.5288360000000  0.4953860000000  0.5185290000000 1.0
C      1  0.4389810000000  0.5129780000000  0.5976580000000 1.0
C      1  0.4880380000000  0.4085110000000  0.4384780000000 1.0
C      1  0.5834590000000  0.4732780000000  0.5708200000000 1.0
C      1  0.4726750000000  0.4497510000000  0.5203690000000 1.0
C      1  0.5836190000000  0.4269350000000  0.4818080000000 1.0
C      1  0.4578690000000  0.4012800000000  0.4493160000000 1.0
C      1  0.5558270000000  0.5789020000000  0.5546010000000 1.0
C      1  0.5265840000000  0.5254640000000  0.5084170000000 1.0
C      1  0.4368670000000  0.5378420000000  0.4206810000000 1.0
C      1  0.4793600000000  0.5957440000000  0.5301640000000 1.0
C      1  0.4422620000000  0.4647400000000  0.4183600000000 1.0
C      1  0.4343050000000  0.5302840000000  0.5076940000000 1.0
C      1  0.5115450000000  0.4284920000000  0.5217020000000 1.0
C      1  0.4654030000000  0.5322950000000  0.4538010000000 1.0
C      1  0.5623590000000  0.4852710000000  0.3970070000000 1.0
C      1  0.5033380000000  0.4907030000000  0.4965220000000 1.0
C      1  0.5819110000000  0.5583100000000  0.4629120000000 1.0
C      1  0.4041050000000  0.5360510000000  0.5189880000000 1.0
C      1  0.4876690000000  0.4891590000000  0.5266660000000 1.0
C      1  0.4558980000000  0.4042120000000  0.5646550000000 1.0
C      1  0.4907660000000  0.3655710000000  0.4920270000000 1.0
C      1  0.4275630000000  0.5909800000000  0.5005060000000 1.0
C      1  0.5197880000000  0.5760380000000  0.4964860000000 1.0
C      1  0.5212300000000  0.4152850000000  0.5782270000000 1.0
C      1  0.4660980000000  0.4797170000000  0.6037850000000 1.0
C      1  0.4514900000000  0.5596330000000  0.5061850000000 1.0
C      1  0.4214570000000  0.5039960000000  0.5601550000000 1.0
C      1  0.5450930000000  0.5646580000000  0.5765690000000 1.0
C      1  0.4559930000000  0.5464920000000  0.5369150000000 1.0
C      1  0.4987190000000  0.4349090000000  0.5520050000000 1.0
C      1  0.5434240000000  0.5597530000000  0.4782270000000 1.0
C      1  0.4259870000000  0.4887250000000  0.4726820000000 1.0
C      1  0.4531150000000  0.5382690000000  0.5916040000000 1.0
C      1  0.4766540000000  0.4364620000000  0.4500700000000 1.0
C      1  0.4463070000000  0.5325080000000  0.4773210000000 1.0
C      1  0.5380120000000  0.4952800000000  0.5684890000000 1.0
C      1  0.5318840000000  0.4892990000000  0.4792780000000 1.0
C      1  0.4009230000000  0.4584310000000  0.5491060000000 1.0
C      1  0.5021430000000  0.3907170000000  0.4919290000000 1.0
C      1  0.4193230000000  0.5470500000000  0.4718520000000 1.0
C      1  0.5536290000000  0.5917970000000  0.4833140000000 1.0
C      1  0.4753100000000  0.5606980000000  0.4058710000000 1.0
C      1  0.4804920000000  0.5769590000000  0.4353860000000 1.0
C      1  0.4638290000000  0.5182020000000  0.5463740000000 1.0
C      1  0.4480910000000  0.6139420000000  0.4464390000000 1.0
C      1  0.4127630000000  0.4915790000000  0.4238840000000 1.0
C      1  0.5747930000000  0.4495130000000  0.4623070000000 1.0
C      1  0.4948070000000  0.5131270000000  0.5608980000000 1.0
C      1  0.5365360000000  0.4283610000000  0.4986360000000 1.0
C      1  0.3970540000000  0.4817450000000  0.5682750000000 1.0
C      1  0.4946710000000  0.5500230000000  0.5460580000000 1.0
C      1  0.4768370000000  0.5083940000000  0.6133670000000 1.0
C      1  0.5369510000000  0.5306000000000  0.6102280000000 1.0
C      1  0.6106080000000  0.4693700000000  0.4943040000000 1.0
C      1  0.5964450000000  0.5349960000000  0.5247270000000 1.0
C      1  0.5091190000000  0.5162960000000  0.6061840000000 1.0
C      1  0.4479720000000  0.4374740000000  0.3996720000000 1.0
C      1  0.4457530000000  0.4137550000000  0.4674360000000 1.0
C      1  0.4554270000000  0.5128880000000  0.4324840000000 1.0
C      1  0.5074880000000  0.4914760000000  0.5829970000000 1.0
C      1  0.4308750000000  0.5363180000000  0.5659540000000 1.0
C      1  0.4290600000000  0.5778430000000  0.4749710000000 1.0
C      1  0.4115890000000  0.5166760000000  0.4128570000000 1.0
C      1  0.5368100000000  0.4970430000000  0.3791950000000 1.0
C      1  0.5278520000000  0.5750530000000  0.5264390000000 1.0
C      1  0.4827420000000  0.4752710000000  0.4561420000000 1.0
C      1  0.4848000000000  0.5388820000000  0.6000700000000 1.0
C      1  0.4302200000000  0.4442400000000  0.5859810000000 1.0
C      1  0.5573250000000  0.5638330000000  0.4474620000000 1.0
C      1  0.4471300000000  0.4701770000000  0.5271990000000 1.0
C      1  0.4916920000000  0.5937290000000  0.4922090000000 1.0
END
