TITL C-2847946-5639-1 -0.000127010043079791 125000 -895.573890300155 0 0 158 (C1) n - 1
REM
REM in /home/bkarasulu/work/CARBON/AIRSS/Generating-Clusters/AIREBO/with-SteepDescent/Only-C1/SD-CG-opt/Try1-1.4A-POS3A/HFTN-CG
REM
REM
REM
REM
REM
REM ./C.cell (11c1c37f851c82e70ff6c80c92926a4b)
REM
REM compiler GCC version 9.2.1 20190827 (Red Hat 9.2.1-1)
REM options -cpp -mtune=generic -march=x86-64 -g -O0 -fpre-include=/usr/include/finclude/math-vector-fortran.h
REM seed 1573852311 -1963482712 284067776 -542731599 1005291225 -597067420 -1523238939 368449405 995674748 -472194478 1442278536 -1263297638 1215212331 -1967828373 1764398321 -967344770 -1845049475 -640595546 1409707891 1861413486 -845674776 887360432 1044327696 -2136294732 986462096 -45469054 -1170928504 -1957043119 -195380906 -2118722921 -1825804573 403939610 1227132784
REM
CELL 1.54180   50.00000   50.00000   50.00000   90.00000   90.00000   90.00000
LATT -1
SFAC C  
C      1  0.4462970000000  0.5417810000000  0.5903260000000 1.0
C      1  0.4369200000000  0.4701760000000  0.5726950000000 1.0
C      1  0.5226960000000  0.3932420000000  0.5199100000000 1.0
C      1  0.5323370000000  0.4106270000000  0.4687360000000 1.0
C      1  0.4442070000000  0.4397580000000  0.4842340000000 1.0
C      1  0.5333560000000  0.4740470000000  0.4790720000000 1.0
C      1  0.4859310000000  0.5429540000000  0.5916150000000 1.0
C      1  0.4125700000000  0.4824890000000  0.5562670000000 1.0
C      1  0.5834030000000  0.5070140000000  0.5510740000000 1.0
C      1  0.5640430000000  0.4749290000000  0.5163380000000 1.0
C      1  0.4623990000000  0.4140390000000  0.5205540000000 1.0
C      1  0.5586230000000  0.4968480000000  0.4771400000000 1.0
C      1  0.4913810000000  0.5604830000000  0.4777390000000 1.0
C      1  0.4950730000000  0.5278300000000  0.5415310000000 1.0
C      1  0.5900500000000  0.4905240000000  0.5009210000000 1.0
C      1  0.5441510000000  0.5868610000000  0.4428340000000 1.0
C      1  0.5021830000000  0.4474990000000  0.4023180000000 1.0
C      1  0.5548790000000  0.4284510000000  0.4582850000000 1.0
C      1  0.5653370000000  0.5132950000000  0.5061510000000 1.0
C      1  0.5518500000000  0.5544500000000  0.5712900000000 1.0
C      1  0.5159270000000  0.5404950000000  0.5178440000000 1.0
C      1  0.5355960000000  0.4866840000000  0.5080560000000 1.0
C      1  0.5339850000000  0.4516540000000  0.5464560000000 1.0
C      1  0.4922860000000  0.4998160000000  0.4278790000000 1.0
C      1  0.5602640000000  0.5419510000000  0.4642170000000 1.0
C      1  0.5320070000000  0.4816270000000  0.5392900000000 1.0
C      1  0.4071070000000  0.4430660000000  0.4534800000000 1.0
C      1  0.5129420000000  0.4726430000000  0.3926280000000 1.0
C      1  0.4538420000000  0.5102260000000  0.4602270000000 1.0
C      1  0.4191940000000  0.5453090000000  0.5527590000000 1.0
C      1  0.5386850000000  0.4255460000000  0.4956370000000 1.0
C      1  0.4383480000000  0.4686140000000  0.5387530000000 1.0
C      1  0.4344970000000  0.4695110000000  0.4418680000000 1.0
C      1  0.5651670000000  0.4642490000000  0.5680450000000 1.0
C      1  0.4682370000000  0.4703560000000  0.4461230000000 1.0
C      1  0.4650980000000  0.4612450000000  0.4774220000000 1.0
C      1  0.5620530000000  0.5752590000000  0.5574300000000 1.0
C      1  0.5182170000000  0.4933190000000  0.5827400000000 1.0
C      1  0.5170230000000  0.5373970000000  0.6042230000000 1.0
C      1  0.5463580000000  0.5065090000000  0.5843570000000 1.0
C      1  0.5802520000000  0.4943630000000  0.4567690000000 1.0
C      1  0.4889670000000  0.4147910000000  0.4453380000000 1.0
C      1  0.4604260000000  0.4990910000000  0.4039530000000 1.0
C      1  0.4476470000000  0.4913650000000  0.5910850000000 1.0
C      1  0.4027630000000  0.5118140000000  0.4497600000000 1.0
C      1  0.5060810000000  0.5905220000000  0.4811610000000 1.0
C      1  0.4888670000000  0.5046510000000  0.3953130000000 1.0
C      1  0.5043890000000  0.5606020000000  0.4474170000000 1.0
C      1  0.5043720000000  0.5279050000000  0.4418080000000 1.0
C      1  0.4082620000000  0.4658600000000  0.4999440000000 1.0
C      1  0.4603840000000  0.4204150000000  0.4534600000000 1.0
C      1  0.4379530000000  0.5631780000000  0.4861800000000 1.0
C      1  0.5743340000000  0.5436270000000  0.5032810000000 1.0
C      1  0.4474080000000  0.5192590000000  0.4277060000000 1.0
C      1  0.5755280000000  0.4816600000000  0.4275070000000 1.0
C      1  0.4944430000000  0.4478390000000  0.5509070000000 1.0
C      1  0.5573930000000  0.5889570000000  0.4979300000000 1.0
C      1  0.5472160000000  0.5447760000000  0.5232350000000 1.0
C      1  0.5989560000000  0.4508540000000  0.4694620000000 1.0
C      1  0.4493130000000  0.5558750000000  0.5532000000000 1.0
C      1  0.4684090000000  0.5467690000000  0.5321870000000 1.0
C      1  0.5375480000000  0.5218020000000  0.4732310000000 1.0
C      1  0.4439440000000  0.5159190000000  0.5701270000000 1.0
C      1  0.4729180000000  0.4454100000000  0.4072400000000 1.0
C      1  0.5527000000000  0.5078930000000  0.5372560000000 1.0
C      1  0.4646520000000  0.5670760000000  0.5804810000000 1.0
C      1  0.3919990000000  0.4837310000000  0.5141730000000 1.0
C      1  0.4664840000000  0.5117920000000  0.5505960000000 1.0
C      1  0.4785410000000  0.4455350000000  0.5736500000000 1.0
C      1  0.5221630000000  0.5039700000000  0.4021930000000 1.0
C      1  0.4734900000000  0.5393660000000  0.4192240000000 1.0
C      1  0.4642430000000  0.5092750000000  0.5189320000000 1.0
C      1  0.5459640000000  0.4376060000000  0.5233260000000 1.0
C      1  0.4209760000000  0.4994410000000  0.4329120000000 1.0
C      1  0.5339450000000  0.5955630000000  0.4741030000000 1.0
C      1  0.5429480000000  0.4031820000000  0.5431080000000 1.0
C      1  0.5192570000000  0.4638110000000  0.5910250000000 1.0
C      1  0.4366580000000  0.5514460000000  0.4300200000000 1.0
C      1  0.4959790000000  0.4087540000000  0.5214600000000 1.0
C      1  0.4896270000000  0.4182080000000  0.4921780000000 1.0
C      1  0.5019590000000  0.5961860000000  0.5515910000000 1.0
C      1  0.4906390000000  0.4602200000000  0.5950210000000 1.0
C      1  0.4219480000000  0.5601900000000  0.5223570000000 1.0
C      1  0.4481980000000  0.4404460000000  0.4300620000000 1.0
C      1  0.6089550000000  0.5148470000000  0.4752700000000 1.0
C      1  0.5057740000000  0.5662930000000  0.5058850000000 1.0
C      1  0.4580670000000  0.4109260000000  0.4867240000000 1.0
C      1  0.5761730000000  0.4344720000000  0.5114280000000 1.0
C      1  0.5287370000000  0.4838280000000  0.4275170000000 1.0
C      1  0.5530050000000  0.4668320000000  0.4254740000000 1.0
C      1  0.4944410000000  0.5014610000000  0.4609890000000 1.0
C      1  0.5770300000000  0.5135910000000  0.4291720000000 1.0
C      1  0.5398850000000  0.4511770000000  0.5773850000000 1.0
C      1  0.4114670000000  0.5188890000000  0.4750060000000 1.0
C      1  0.5123850000000  0.5769680000000  0.5662180000000 1.0
C      1  0.4330540000000  0.4958640000000  0.4830490000000 1.0
C      1  0.4735640000000  0.5980550000000  0.4773700000000 1.0
C      1  0.4140140000000  0.4714480000000  0.4689650000000 1.0
C      1  0.4458620000000  0.5824860000000  0.4692710000000 1.0
C      1  0.4614710000000  0.4733110000000  0.4130710000000 1.0
C      1  0.4124330000000  0.5455570000000  0.4927590000000 1.0
C      1  0.4730450000000  0.6050540000000  0.5374730000000 1.0
C      1  0.5108010000000  0.4405360000000  0.4494560000000 1.0
C      1  0.5246100000000  0.4952580000000  0.4566030000000 1.0
C      1  0.5667610000000  0.4921330000000  0.5728200000000 1.0
C      1  0.5076030000000  0.5458900000000  0.5664520000000 1.0
C      1  0.5153930000000  0.4231860000000  0.5453630000000 1.0
C      1  0.4910610000000  0.4495660000000  0.4919430000000 1.0
C      1  0.4744320000000  0.5347410000000  0.4524300000000 1.0
C      1  0.5778850000000  0.4543450000000  0.5390180000000 1.0
C      1  0.5864770000000  0.5538800000000  0.5318200000000 1.0
C      1  0.4786760000000  0.5828480000000  0.4471070000000 1.0
C      1  0.4521800000000  0.5885320000000  0.5568550000000 1.0
C      1  0.3998790000000  0.5056890000000  0.5271880000000 1.0
C      1  0.5324030000000  0.5590940000000  0.4321620000000 1.0
C      1  0.5293120000000  0.5325690000000  0.4109920000000 1.0
C      1  0.4904630000000  0.5122740000000  0.4991910000000 1.0
C      1  0.5199990000000  0.4473390000000  0.4785390000000 1.0
C      1  0.5213640000000  0.5139690000000  0.4999530000000 1.0
C      1  0.4269740000000  0.4464450000000  0.5079360000000 1.0
C      1  0.4932440000000  0.4720440000000  0.5375980000000 1.0
C      1  0.5066130000000  0.4976160000000  0.5523390000000 1.0
C      1  0.5549850000000  0.4006320000000  0.5120690000000 1.0
C      1  0.4514790000000  0.4434000000000  0.5666010000000 1.0
C      1  0.4462800000000  0.5749880000000  0.4402620000000 1.0
C      1  0.5870460000000  0.4023530000000  0.5100050000000 1.0
C      1  0.5200660000000  0.4328730000000  0.4196430000000 1.0
C      1  0.5558160000000  0.5345310000000  0.4320860000000 1.0
C      1  0.5887830000000  0.5330660000000  0.4766700000000 1.0
C      1  0.5053270000000  0.4059360000000  0.4686210000000 1.0
C      1  0.4796320000000  0.4880750000000  0.5978510000000 1.0
C      1  0.5613630000000  0.5753660000000  0.5237180000000 1.0
C      1  0.5038280000000  0.5102090000000  0.6064510000000 1.0
C      1  0.4433390000000  0.4352330000000  0.5345510000000 1.0
C      1  0.5070340000000  0.4087370000000  0.5718030000000 1.0
C      1  0.6031630000000  0.4813760000000  0.4737310000000 1.0
C      1  0.4741440000000  0.5354280000000  0.4837270000000 1.0
C      1  0.5932760000000  0.4838970000000  0.5329270000000 1.0
C      1  0.4482600000000  0.4842400000000  0.5111920000000 1.0
C      1  0.5764790000000  0.4368780000000  0.4775140000000 1.0
C      1  0.5357180000000  0.5334800000000  0.5518410000000 1.0
C      1  0.5423760000000  0.5340590000000  0.5912550000000 1.0
C      1  0.4617560000000  0.5960720000000  0.5066830000000 1.0
C      1  0.4999070000000  0.5928000000000  0.5205490000000 1.0
C      1  0.4427580000000  0.5827720000000  0.5245350000000 1.0
C      1  0.4156540000000  0.5145660000000  0.5550850000000 1.0
C      1  0.4207220000000  0.5265550000000  0.5175160000000 1.0
C      1  0.5003470000000  0.4687380000000  0.4390890000000 1.0
C      1  0.4654520000000  0.5184370000000  0.6036200000000 1.0
C      1  0.5972630000000  0.5345610000000  0.5479950000000 1.0
C      1  0.4796670000000  0.4713470000000  0.5130440000000 1.0
C      1  0.5473930000000  0.4400100000000  0.4319950000000 1.0
C      1  0.5031630000000  0.5502060000000  0.4064470000000 1.0
C      1  0.4809300000000  0.5715520000000  0.4170550000000 1.0
C      1  0.4504230000000  0.5378370000000  0.5053860000000 1.0
C      1  0.4273300000000  0.4248160000000  0.4601180000000 1.0
C      1  0.4724780000000  0.4917660000000  0.4794900000000 1.0
C      1  0.5562140000000  0.5704280000000  0.4697520000000 1.0
END
