TITL C-2847953-8112-494 -0.000591275919365146 125000 -340.880631105969 0 0 67 (C1) n - 1
REM
REM in /home/bkarasulu/work/CARBON/AIRSS/Generating-Clusters/AIREBO/with-SteepDescent/Only-C1/SD-CG-opt/Try1-1.4A-POS3A/HFTN-CG
REM
REM
REM
REM
REM
REM ./C.cell (11c1c37f851c82e70ff6c80c92926a4b)
REM
REM compiler GCC version 9.2.1 20190827 (Red Hat 9.2.1-1)
REM options -cpp -mtune=generic -march=x86-64 -g -O0 -fpre-include=/usr/include/finclude/math-vector-fortran.h
REM seed 583960542 444625059 1082581730 -775767114 804433013 -1449490982 -1178431504 1293256249 -292465873 -1865674506 -1786980975 339021053 272919812 -759359200 877942244 73501313 372616373 1281346881 1724528268 -1769185931 1961277805 1390945548 178371319 1669557081 1966838 -293222576 -977355894 -1232344324 1058617741 1317493603 -278251138 318507773 -1243938796
REM
CELL 1.54180   50.00000   50.00000   50.00000   90.00000   90.00000   90.00000
LATT -1
SFAC C  
C      1  0.5302090000000  0.4763790000000  0.5702410000000 1.0
C      1  0.4407750000000  0.4450070000000  0.5069300000000 1.0
C      1  0.4778510000000  0.4782500000000  0.4553090000000 1.0
C      1  0.4952050000000  0.4733680000000  0.5248770000000 1.0
C      1  0.5434170000000  0.5260460000000  0.4860240000000 1.0
C      1  0.4422470000000  0.5410760000000  0.4865000000000 1.0
C      1  0.5462880000000  0.5328580000000  0.5189690000000 1.0
C      1  0.5762040000000  0.5598190000000  0.4898650000000 1.0
C      1  0.5676980000000  0.5085350000000  0.4596660000000 1.0
C      1  0.4920340000000  0.5293750000000  0.5007290000000 1.0
C      1  0.4973000000000  0.4329620000000  0.4559500000000 1.0
C      1  0.5150550000000  0.5283580000000  0.4673780000000 1.0
C      1  0.4295670000000  0.4730250000000  0.4585850000000 1.0
C      1  0.5006770000000  0.4936070000000  0.5750400000000 1.0
C      1  0.4764750000000  0.5734460000000  0.4652830000000 1.0
C      1  0.4835470000000  0.4878550000000  0.4259970000000 1.0
C      1  0.4656790000000  0.4565950000000  0.5269800000000 1.0
C      1  0.4700360000000  0.5536750000000  0.4916030000000 1.0
C      1  0.5357430000000  0.4880610000000  0.4958030000000 1.0
C      1  0.4988690000000  0.5103620000000  0.4259890000000 1.0
C      1  0.4320260000000  0.4910660000000  0.5026190000000 1.0
C      1  0.4644370000000  0.5064310000000  0.4836790000000 1.0
C      1  0.4553350000000  0.4763960000000  0.5487020000000 1.0
C      1  0.4650250000000  0.5332150000000  0.4460250000000 1.0
C      1  0.4729830000000  0.4741050000000  0.5720750000000 1.0
C      1  0.5526570000000  0.4868920000000  0.4662870000000 1.0
C      1  0.5042020000000  0.4779180000000  0.4738530000000 1.0
C      1  0.5645760000000  0.4521090000000  0.5004890000000 1.0
C      1  0.5296830000000  0.4639780000000  0.4645850000000 1.0
C      1  0.5332720000000  0.5597900000000  0.5323810000000 1.0
C      1  0.5162530000000  0.4352480000000  0.5118670000000 1.0
C      1  0.4871900000000  0.5107820000000  0.4587400000000 1.0
C      1  0.4410200000000  0.5292790000000  0.4607860000000 1.0
C      1  0.5162760000000  0.5595350000000  0.4809140000000 1.0
C      1  0.5536960000000  0.5050920000000  0.5319480000000 1.0
C      1  0.4640350000000  0.5231460000000  0.5595790000000 1.0
C      1  0.4370120000000  0.5001240000000  0.4640210000000 1.0
C      1  0.4492880000000  0.5190250000000  0.5114230000000 1.0
C      1  0.4933130000000  0.5222220000000  0.5686130000000 1.0
C      1  0.4813360000000  0.5565570000000  0.4425450000000 1.0
C      1  0.5653120000000  0.5038650000000  0.5000140000000 1.0
C      1  0.5300020000000  0.5002040000000  0.5486550000000 1.0
C      1  0.5088370000000  0.5471420000000  0.4397200000000 1.0
C      1  0.5141230000000  0.4494450000000  0.4397530000000 1.0
C      1  0.5365830000000  0.4351890000000  0.5375720000000 1.0
C      1  0.4482370000000  0.5502390000000  0.5249170000000 1.0
C      1  0.5659030000000  0.4755280000000  0.5188000000000 1.0
C      1  0.4670610000000  0.5666770000000  0.5300720000000 1.0
C      1  0.5124160000000  0.5358350000000  0.5453630000000 1.0
C      1  0.5456420000000  0.4639060000000  0.5436000000000 1.0
C      1  0.5380290000000  0.4413170000000  0.4864880000000 1.0
C      1  0.4972710000000  0.5686730000000  0.4988910000000 1.0
C      1  0.5732820000000  0.5343450000000  0.4755930000000 1.0
C      1  0.5617280000000  0.5614310000000  0.5134580000000 1.0
C      1  0.5098060000000  0.5056100000000  0.4913020000000 1.0
C      1  0.5027600000000  0.5052410000000  0.5339880000000 1.0
C      1  0.5136660000000  0.4206630000000  0.4748330000000 1.0
C      1  0.4507370000000  0.4688970000000  0.4848740000000 1.0
C      1  0.5003300000000  0.5629860000000  0.5295950000000 1.0
C      1  0.5010840000000  0.4646340000000  0.5572080000000 1.0
C      1  0.4477400000000  0.5026100000000  0.5417790000000 1.0
C      1  0.4802360000000  0.4795120000000  0.4952130000000 1.0
C      1  0.4876460000000  0.4334110000000  0.5147000000000 1.0
C      1  0.5271420000000  0.4668200000000  0.5152160000000 1.0
C      1  0.4715750000000  0.4467310000000  0.4664370000000 1.0
C      1  0.4781540000000  0.5241260000000  0.5286640000000 1.0
C      1  0.4662080000000  0.4333970000000  0.4944440000000 1.0
END
