TITL C-2848503-6230-665 0.000856700760003444 125000 -187.4796214815 0 0 35 (C1) n - 1
REM
REM in /home/bkarasulu/work/CARBON/AIRSS/Generating-Clusters/AIREBO/with-SteepDescent/Only-C1/SD-CG-opt/Try1-1.4A-POS3A/HFTN-CG
REM
REM
REM
REM
REM
REM ./C.cell (11c1c37f851c82e70ff6c80c92926a4b)
REM
REM compiler GCC version 9.2.1 20190827 (Red Hat 9.2.1-1)
REM options -cpp -mtune=generic -march=x86-64 -g -O0 -fpre-include=/usr/include/finclude/math-vector-fortran.h
REM seed -901781042 1858280342 974082495 2018569595 340197653 914098194 -267806440 -272906474 -84881997 -486368637 1440978205 794508809 -1450217163 1578555281 1098872812 -1230512951 585942347 -807638726 -878015678 -1504222900 -1836447309 -1874190830 1555945928 -881934362 1273761723 1487622488 -884232532 2115436317 -532332512 -842848864 1513396842 674672826 -1563236708
REM
CELL 1.54180   50.00000   50.00000   50.00000   90.00000   90.00000   90.00000
LATT -1
SFAC C  
C      1  0.4974010000000  0.5284790000000  0.5224110000000 1.0
C      1  0.4942270000000  0.5358530000000  0.4615090000000 1.0
C      1  0.4552210000000  0.4740480000000  0.4370640000000 1.0
C      1  0.4843550000000  0.5688610000000  0.5372240000000 1.0
C      1  0.4953810000000  0.4635440000000  0.4655510000000 1.0
C      1  0.4491490000000  0.5280320000000  0.5288520000000 1.0
C      1  0.5437240000000  0.4989920000000  0.4703030000000 1.0
C      1  0.4439620000000  0.5078730000000  0.5039020000000 1.0
C      1  0.5399990000000  0.5261110000000  0.4705120000000 1.0
C      1  0.4860590000000  0.4440950000000  0.4843530000000 1.0
C      1  0.5185490000000  0.4782950000000  0.4767770000000 1.0
C      1  0.4213740000000  0.5116580000000  0.5266860000000 1.0
C      1  0.5729830000000  0.4125490000000  0.5248570000000 1.0
C      1  0.5141040000000  0.5263680000000  0.5685840000000 1.0
C      1  0.5168500000000  0.5403870000000  0.4777260000000 1.0
C      1  0.4723270000000  0.4823970000000  0.4585450000000 1.0
C      1  0.5007280000000  0.4594440000000  0.5327790000000 1.0
C      1  0.4724050000000  0.5417990000000  0.5314720000000 1.0
C      1  0.4306660000000  0.4558240000000  0.4263050000000 1.0
C      1  0.4982490000000  0.5003420000000  0.5736500000000 1.0
C      1  0.4495960000000  0.4710720000000  0.4052810000000 1.0
C      1  0.4778020000000  0.5144380000000  0.4635930000000 1.0
C      1  0.5038940000000  0.4506520000000  0.4413130000000 1.0
C      1  0.5028610000000  0.5733850000000  0.5149760000000 1.0
C      1  0.5130810000000  0.5533470000000  0.5729500000000 1.0
C      1  0.5524970000000  0.4546050000000  0.4999810000000 1.0
C      1  0.5078760000000  0.5068970000000  0.5414140000000 1.0
C      1  0.4581070000000  0.5003580000000  0.4832010000000 1.0
C      1  0.5111680000000  0.5474440000000  0.5046560000000 1.0
C      1  0.4949770000000  0.5718890000000  0.5633770000000 1.0
C      1  0.5541700000000  0.4697540000000  0.4736530000000 1.0
C      1  0.5524860000000  0.5041050000000  0.5089790000000 1.0
C      1  0.5639020000000  0.4340410000000  0.5129170000000 1.0
C      1  0.5349970000000  0.4820060000000  0.5063130000000 1.0
C      1  0.5148730000000  0.4810570000000  0.5283330000000 1.0
END
