TITL C-2848506-1665-32 -7.49908553808676e-05 125000 -761.788623783701 0 0 140 (C1) n - 1
REM
REM in /home/bkarasulu/work/CARBON/AIRSS/Generating-Clusters/AIREBO/with-SteepDescent/Only-C1/SD-CG-opt/Try1-1.4A-POS3A/HFTN-CG
REM
REM
REM
REM
REM
REM ./C.cell (11c1c37f851c82e70ff6c80c92926a4b)
REM
REM compiler GCC version 9.2.1 20190827 (Red Hat 9.2.1-1)
REM options -cpp -mtune=generic -march=x86-64 -g -O0 -fpre-include=/usr/include/finclude/math-vector-fortran.h
REM seed -57675117 764614184 1129058897 -326705024 907070381 956097957 -1985166596 -1681944781 -1244451666 -1046844959 63131165 908945835 627586711 -1077108606 -2056576459 -1580336893 379823787 1145513819 1063919270 -862530378 -2021797091 454139374 -1714306259 2049545460 265623673 1822046468 -201748165 -481169097 1246781701 -297626129 1685615176 -366229335 856045481
REM
CELL 1.54180   50.00000   50.00000   50.00000   90.00000   90.00000   90.00000
LATT -1
SFAC C  
C      1  0.4376420000000  0.4962480000000  0.5244810000000 1.0
C      1  0.4318620000000  0.4569600000000  0.4328790000000 1.0
C      1  0.5142920000000  0.5730770000000  0.5738200000000 1.0
C      1  0.5260750000000  0.4964250000000  0.4453560000000 1.0
C      1  0.4874600000000  0.5865240000000  0.5547710000000 1.0
C      1  0.5882010000000  0.4989380000000  0.4541960000000 1.0
C      1  0.4706540000000  0.4912670000000  0.4332110000000 1.0
C      1  0.5548970000000  0.4772670000000  0.4773860000000 1.0
C      1  0.4960930000000  0.4057070000000  0.4918870000000 1.0
C      1  0.5702580000000  0.4994450000000  0.5513690000000 1.0
C      1  0.4291250000000  0.4391240000000  0.5479710000000 1.0
C      1  0.5390660000000  0.4146320000000  0.4692200000000 1.0
C      1  0.4604680000000  0.5908940000000  0.5189450000000 1.0
C      1  0.5109250000000  0.4175010000000  0.5192310000000 1.0
C      1  0.4935410000000  0.4709130000000  0.4378060000000 1.0
C      1  0.5917440000000  0.5083670000000  0.5302350000000 1.0
C      1  0.5106560000000  0.4532410000000  0.5494910000000 1.0
C      1  0.4441560000000  0.4563920000000  0.4645750000000 1.0
C      1  0.4820670000000  0.5305530000000  0.4086930000000 1.0
C      1  0.5420080000000  0.4733430000000  0.5352570000000 1.0
C      1  0.5089500000000  0.5286450000000  0.5018760000000 1.0
C      1  0.4387330000000  0.4402210000000  0.5006400000000 1.0
C      1  0.4723850000000  0.4735750000000  0.4961570000000 1.0
C      1  0.5381230000000  0.5067960000000  0.4754270000000 1.0
C      1  0.5122390000000  0.4690100000000  0.5194050000000 1.0
C      1  0.4991290000000  0.5094490000000  0.4291790000000 1.0
C      1  0.5659290000000  0.4958870000000  0.5027050000000 1.0
C      1  0.4795220000000  0.4288550000000  0.5614800000000 1.0
C      1  0.4392930000000  0.4742150000000  0.5014230000000 1.0
C      1  0.4569650000000  0.5671500000000  0.4502180000000 1.0
C      1  0.4930040000000  0.4896160000000  0.4662070000000 1.0
C      1  0.4922550000000  0.3997030000000  0.5738250000000 1.0
C      1  0.4611970000000  0.4116400000000  0.5204410000000 1.0
C      1  0.4897430000000  0.5529160000000  0.5501390000000 1.0
C      1  0.5883550000000  0.4582260000000  0.4881770000000 1.0
C      1  0.4582000000000  0.5770430000000  0.5799610000000 1.0
C      1  0.4497180000000  0.4251460000000  0.4768160000000 1.0
C      1  0.4848910000000  0.5052160000000  0.4953090000000 1.0
C      1  0.5316710000000  0.4146530000000  0.5437330000000 1.0
C      1  0.5791560000000  0.4721400000000  0.5670650000000 1.0
C      1  0.5449870000000  0.5349420000000  0.4576010000000 1.0
C      1  0.4170770000000  0.5016040000000  0.4436310000000 1.0
C      1  0.4084270000000  0.5405630000000  0.4894760000000 1.0
C      1  0.5588960000000  0.5459240000000  0.5759940000000 1.0
C      1  0.5331360000000  0.5385960000000  0.5387580000000 1.0
C      1  0.4776000000000  0.4528250000000  0.4696800000000 1.0
C      1  0.4120100000000  0.4583130000000  0.4771630000000 1.0
C      1  0.4233630000000  0.5294830000000  0.4397620000000 1.0
C      1  0.5541990000000  0.4292060000000  0.4507830000000 1.0
C      1  0.4138060000000  0.5592680000000  0.5127220000000 1.0
C      1  0.5003510000000  0.4697450000000  0.5776940000000 1.0
C      1  0.5268790000000  0.5793990000000  0.4313840000000 1.0
C      1  0.4676150000000  0.4074060000000  0.4928920000000 1.0
C      1  0.5073270000000  0.4348310000000  0.4275720000000 1.0
C      1  0.5373780000000  0.5816890000000  0.5503720000000 1.0
C      1  0.5271240000000  0.5442060000000  0.5698890000000 1.0
C      1  0.5051660000000  0.5214460000000  0.5791010000000 1.0
C      1  0.5567330000000  0.4178660000000  0.5127680000000 1.0
C      1  0.5740360000000  0.4757920000000  0.4404370000000 1.0
C      1  0.4277210000000  0.4839030000000  0.4232930000000 1.0
C      1  0.5859740000000  0.5233410000000  0.5015150000000 1.0
C      1  0.5681960000000  0.5139450000000  0.4279670000000 1.0
C      1  0.5944730000000  0.4777430000000  0.5281690000000 1.0
C      1  0.4341260000000  0.5780290000000  0.5053930000000 1.0
C      1  0.4511210000000  0.4951390000000  0.4095780000000 1.0
C      1  0.5306870000000  0.4322420000000  0.4962820000000 1.0
C      1  0.4274010000000  0.4851640000000  0.5478920000000 1.0
C      1  0.5538450000000  0.5598070000000  0.5074160000000 1.0
C      1  0.5291460000000  0.4773470000000  0.4021950000000 1.0
C      1  0.5186000000000  0.5936390000000  0.4570770000000 1.0
C      1  0.5125500000000  0.4265950000000  0.5691900000000 1.0
C      1  0.4860820000000  0.5973880000000  0.4973790000000 1.0
C      1  0.4810890000000  0.5643050000000  0.5192650000000 1.0
C      1  0.4849510000000  0.5584080000000  0.5829850000000 1.0
C      1  0.5728650000000  0.5500900000000  0.5522600000000 1.0
C      1  0.5761970000000  0.4523240000000  0.5183420000000 1.0
C      1  0.5434190000000  0.4898020000000  0.5650520000000 1.0
C      1  0.5429650000000  0.5281130000000  0.5015270000000 1.0
C      1  0.5091720000000  0.4604460000000  0.4107840000000 1.0
C      1  0.4524320000000  0.5453290000000  0.5396830000000 1.0
C      1  0.4233470000000  0.4903070000000  0.4751060000000 1.0
C      1  0.4562060000000  0.5746430000000  0.5485160000000 1.0
C      1  0.4822160000000  0.4591780000000  0.5223520000000 1.0
C      1  0.4082280000000  0.4637660000000  0.5105110000000 1.0
C      1  0.5363660000000  0.5003430000000  0.5198910000000 1.0
C      1  0.5492090000000  0.4863820000000  0.4254240000000 1.0
C      1  0.4887980000000  0.4971110000000  0.5618910000000 1.0
C      1  0.4838380000000  0.4289820000000  0.5302630000000 1.0
C      1  0.4537290000000  0.4484190000000  0.5656920000000 1.0
C      1  0.5134340000000  0.5949120000000  0.5401170000000 1.0
C      1  0.5223700000000  0.4640310000000  0.4503950000000 1.0
C      1  0.4615610000000  0.5179290000000  0.3956260000000 1.0
C      1  0.5502940000000  0.5599000000000  0.4784350000000 1.0
C      1  0.5612660000000  0.4503990000000  0.5673550000000 1.0
C      1  0.5636460000000  0.5274830000000  0.5285940000000 1.0
C      1  0.4565150000000  0.5379200000000  0.4402910000000 1.0
C      1  0.5132230000000  0.5579110000000  0.5186730000000 1.0
C      1  0.5778180000000  0.5300580000000  0.4547190000000 1.0
C      1  0.4330860000000  0.5249280000000  0.5544970000000 1.0
C      1  0.4484720000000  0.5676960000000  0.4798730000000 1.0
C      1  0.5930310000000  0.5371010000000  0.4785410000000 1.0
C      1  0.5096420000000  0.5910570000000  0.5119050000000 1.0
C      1  0.5240630000000  0.5670060000000  0.4691640000000 1.0
C      1  0.4745780000000  0.5530120000000  0.4916030000000 1.0
C      1  0.5594050000000  0.4342220000000  0.5417200000000 1.0
C      1  0.5335760000000  0.5078530000000  0.5846500000000 1.0
C      1  0.5092550000000  0.5161860000000  0.5335100000000 1.0
C      1  0.5216780000000  0.5057920000000  0.4039930000000 1.0
C      1  0.5020220000000  0.5487720000000  0.4753630000000 1.0
C      1  0.4942460000000  0.4294070000000  0.4514890000000 1.0
C      1  0.4904340000000  0.5998840000000  0.4685890000000 1.0
C      1  0.4130170000000  0.4615520000000  0.5404680000000 1.0
C      1  0.5087350000000  0.4113780000000  0.4681510000000 1.0
C      1  0.4933220000000  0.5222180000000  0.4601150000000 1.0
C      1  0.5175030000000  0.3884260000000  0.5600880000000 1.0
C      1  0.4482740000000  0.5125940000000  0.5756470000000 1.0
C      1  0.5173370000000  0.4835950000000  0.4891110000000 1.0
C      1  0.4362110000000  0.4246910000000  0.5251610000000 1.0
C      1  0.4733350000000  0.4704180000000  0.5487190000000 1.0
C      1  0.5393080000000  0.5244930000000  0.4184660000000 1.0
C      1  0.4505130000000  0.4822660000000  0.5694740000000 1.0
C      1  0.4286290000000  0.5451280000000  0.4678550000000 1.0
C      1  0.4532140000000  0.4886810000000  0.4589240000000 1.0
C      1  0.5708110000000  0.4518270000000  0.4613930000000 1.0
C      1  0.5369060000000  0.4420380000000  0.4329440000000 1.0
C      1  0.4091090000000  0.5116040000000  0.4975600000000 1.0
C      1  0.4448270000000  0.5241410000000  0.5162970000000 1.0
C      1  0.4131470000000  0.5282330000000  0.5269880000000 1.0
C      1  0.5327020000000  0.4610020000000  0.5719500000000 1.0
C      1  0.4501470000000  0.5188120000000  0.4670190000000 1.0
C      1  0.4892700000000  0.5472860000000  0.4375010000000 1.0
C      1  0.4626280000000  0.5252900000000  0.4936030000000 1.0
C      1  0.5233270000000  0.5474120000000  0.4343230000000 1.0
C      1  0.4721160000000  0.5268950000000  0.5843620000000 1.0
C      1  0.5584130000000  0.5693640000000  0.5348910000000 1.0
C      1  0.4780870000000  0.5234830000000  0.5450050000000 1.0
C      1  0.5102460000000  0.4531500000000  0.4791990000000 1.0
C      1  0.5481580000000  0.4601330000000  0.5045200000000 1.0
C      1  0.4828700000000  0.5793240000000  0.4469490000000 1.0
C      1  0.5925100000000  0.4888550000000  0.4826830000000 1.0
END
