TITL C-2848498-1409-155 0.00175894412110513 125000 -615.245640195212 0 0 116 (C1) n - 1
REM
REM in /home/bkarasulu/work/CARBON/AIRSS/Generating-Clusters/AIREBO/with-SteepDescent/Only-C1/SD-CG-opt/Try1-1.4A-POS3A/HFTN-CG
REM
REM
REM
REM
REM
REM ./C.cell (11c1c37f851c82e70ff6c80c92926a4b)
REM
REM compiler GCC version 9.2.1 20190827 (Red Hat 9.2.1-1)
REM options -cpp -mtune=generic -march=x86-64 -g -O0 -fpre-include=/usr/include/finclude/math-vector-fortran.h
REM seed 654484444 -1021292491 1888979870 966026481 1375926209 -1175252480 1298143219 -150236193 876818760 1785583214 940941507 -1972513599 1638049069 643208962 1412975558 1916236448 2009960240 561002002 2080632548 1613518723 -987943518 1163641495 -178713866 -737954404 1225792243 1507183827 206241247 2075612380 -7354684 -450187454 -1342964032 1660662337 812325687
REM
CELL 1.54180   50.00000   50.00000   50.00000   90.00000   90.00000   90.00000
LATT -1
SFAC C  
C      1  0.5050780000000  0.5786210000000  0.4639550000000 1.0
C      1  0.5412990000000  0.5256320000000  0.4916850000000 1.0
C      1  0.4347870000000  0.5545770000000  0.4932760000000 1.0
C      1  0.5607950000000  0.5920330000000  0.5079330000000 1.0
C      1  0.5399070000000  0.5460570000000  0.4388300000000 1.0
C      1  0.4975220000000  0.5352700000000  0.6057360000000 1.0
C      1  0.4359830000000  0.5774460000000  0.5184180000000 1.0
C      1  0.4559920000000  0.4887240000000  0.5571530000000 1.0
C      1  0.4777810000000  0.4823420000000  0.5084340000000 1.0
C      1  0.5891490000000  0.4694030000000  0.5307370000000 1.0
C      1  0.5144550000000  0.4818630000000  0.4418660000000 1.0
C      1  0.5579500000000  0.4995950000000  0.5021370000000 1.0
C      1  0.5411160000000  0.5686500000000  0.5042010000000 1.0
C      1  0.5474870000000  0.5168280000000  0.5896350000000 1.0
C      1  0.4998810000000  0.5937440000000  0.5184250000000 1.0
C      1  0.5174600000000  0.5602780000000  0.5484730000000 1.0
C      1  0.4626930000000  0.5879950000000  0.4555290000000 1.0
C      1  0.5365760000000  0.5062350000000  0.4388160000000 1.0
C      1  0.5021420000000  0.4915510000000  0.4782220000000 1.0
C      1  0.5896360000000  0.4884740000000  0.5074990000000 1.0
C      1  0.5330830000000  0.5013510000000  0.4709090000000 1.0
C      1  0.4139310000000  0.5123930000000  0.5342910000000 1.0
C      1  0.5212170000000  0.4139180000000  0.4632680000000 1.0
C      1  0.4688400000000  0.5982790000000  0.4783330000000 1.0
C      1  0.4798340000000  0.4065030000000  0.5292660000000 1.0
C      1  0.5218130000000  0.5810410000000  0.5293030000000 1.0
C      1  0.4628470000000  0.5188680000000  0.5699640000000 1.0
C      1  0.5128030000000  0.4371690000000  0.5612830000000 1.0
C      1  0.4429260000000  0.4289140000000  0.4463450000000 1.0
C      1  0.4810910000000  0.4910220000000  0.6043310000000 1.0
C      1  0.4852110000000  0.5017960000000  0.4231810000000 1.0
C      1  0.4683190000000  0.5415080000000  0.5340030000000 1.0
C      1  0.5532590000000  0.5017850000000  0.5531310000000 1.0
C      1  0.4961710000000  0.4883790000000  0.5585550000000 1.0
C      1  0.5201160000000  0.4605930000000  0.5745040000000 1.0
C      1  0.5347750000000  0.4012270000000  0.5298930000000 1.0
C      1  0.5342270000000  0.4684660000000  0.4736630000000 1.0
C      1  0.5830420000000  0.5352410000000  0.5298750000000 1.0
C      1  0.5551160000000  0.5415780000000  0.5177300000000 1.0
C      1  0.5394810000000  0.4363400000000  0.4638150000000 1.0
C      1  0.4188420000000  0.4454310000000  0.4915450000000 1.0
C      1  0.5112630000000  0.5525660000000  0.5014960000000 1.0
C      1  0.4356980000000  0.4894390000000  0.5341180000000 1.0
C      1  0.5835760000000  0.4887630000000  0.4733990000000 1.0
C      1  0.4610900000000  0.5201540000000  0.4490980000000 1.0
C      1  0.4141080000000  0.4715380000000  0.4622550000000 1.0
C      1  0.4230970000000  0.5049770000000  0.4937360000000 1.0
C      1  0.5669820000000  0.4635790000000  0.4704900000000 1.0
C      1  0.4775710000000  0.4701600000000  0.5385530000000 1.0
C      1  0.5263410000000  0.5404390000000  0.4669590000000 1.0
C      1  0.4861550000000  0.4372030000000  0.4889940000000 1.0
C      1  0.4347170000000  0.5464440000000  0.5323240000000 1.0
C      1  0.4941930000000  0.5140900000000  0.4539910000000 1.0
C      1  0.4633170000000  0.4969380000000  0.4706870000000 1.0
C      1  0.4246510000000  0.5158890000000  0.4647770000000 1.0
C      1  0.4935330000000  0.5409440000000  0.4748660000000 1.0
C      1  0.4823670000000  0.5152490000000  0.5432380000000 1.0
C      1  0.4722580000000  0.5210310000000  0.4923960000000 1.0
C      1  0.5690280000000  0.5303770000000  0.4390080000000 1.0
C      1  0.4908380000000  0.5527520000000  0.4261140000000 1.0
C      1  0.5757310000000  0.4459970000000  0.5210040000000 1.0
C      1  0.5130020000000  0.5668200000000  0.4403000000000 1.0
C      1  0.5690740000000  0.4976360000000  0.4439420000000 1.0
C      1  0.4990700000000  0.4761900000000  0.4055000000000 1.0
C      1  0.4905960000000  0.4444230000000  0.4413310000000 1.0
C      1  0.5743700000000  0.5415230000000  0.4661460000000 1.0
C      1  0.4094310000000  0.4759970000000  0.4934440000000 1.0
C      1  0.5985720000000  0.5210740000000  0.5111770000000 1.0
C      1  0.4345380000000  0.4925680000000  0.4245480000000 1.0
C      1  0.4838380000000  0.4748500000000  0.4549320000000 1.0
C      1  0.4868570000000  0.4380160000000  0.5399470000000 1.0
C      1  0.4904040000000  0.4211070000000  0.4628330000000 1.0
C      1  0.5369800000000  0.5435310000000  0.5706320000000 1.0
C      1  0.4427820000000  0.5442580000000  0.4625810000000 1.0
C      1  0.4697830000000  0.4613960000000  0.4828280000000 1.0
C      1  0.4778870000000  0.5176670000000  0.5967160000000 1.0
C      1  0.4158110000000  0.5317110000000  0.5098010000000 1.0
C      1  0.4580660000000  0.4171450000000  0.4692110000000 1.0
C      1  0.5047400000000  0.4431070000000  0.5112720000000 1.0
C      1  0.4548210000000  0.5159500000000  0.4174700000000 1.0
C      1  0.5253420000000  0.4296570000000  0.5334260000000 1.0
C      1  0.4174350000000  0.4952670000000  0.4469060000000 1.0
C      1  0.5129670000000  0.5328430000000  0.5260160000000 1.0
C      1  0.5531960000000  0.5593130000000  0.4740990000000 1.0
C      1  0.5338120000000  0.4847210000000  0.5213310000000 1.0
C      1  0.5564410000000  0.4420110000000  0.4930950000000 1.0
C      1  0.4726570000000  0.5577610000000  0.4534620000000 1.0
C      1  0.5025760000000  0.4692830000000  0.5940510000000 1.0
C      1  0.4512810000000  0.5008330000000  0.5082100000000 1.0
C      1  0.4999770000000  0.5294030000000  0.4128580000000 1.0
C      1  0.5798600000000  0.5229600000000  0.5541320000000 1.0
C      1  0.5432780000000  0.4520470000000  0.5211960000000 1.0
C      1  0.5243780000000  0.5367110000000  0.5998890000000 1.0
C      1  0.4610280000000  0.4787920000000  0.4300220000000 1.0
C      1  0.5799820000000  0.5193510000000  0.4851250000000 1.0
C      1  0.5070810000000  0.4518010000000  0.4173330000000 1.0
C      1  0.4571910000000  0.4023810000000  0.5184910000000 1.0
C      1  0.4659340000000  0.5518250000000  0.5016860000000 1.0
C      1  0.4238570000000  0.4614480000000  0.5277780000000 1.0
C      1  0.4733840000000  0.4721360000000  0.5787420000000 1.0
C      1  0.5279940000000  0.5262160000000  0.4160480000000 1.0
C      1  0.4621900000000  0.5750580000000  0.5339190000000 1.0
C      1  0.5694770000000  0.4972090000000  0.5826800000000 1.0
C      1  0.5805540000000  0.4815320000000  0.5542550000000 1.0
C      1  0.5612100000000  0.4707960000000  0.4270120000000 1.0
C      1  0.4429850000000  0.4220070000000  0.4966550000000 1.0
C      1  0.5276550000000  0.4834320000000  0.5547490000000 1.0
C      1  0.4366010000000  0.4375330000000  0.5262330000000 1.0
C      1  0.5348970000000  0.4554830000000  0.4360900000000 1.0
C      1  0.4413720000000  0.4533880000000  0.4687470000000 1.0
C      1  0.4404400000000  0.5394040000000  0.5634330000000 1.0
C      1  0.4540220000000  0.4317990000000  0.5462440000000 1.0
C      1  0.4880330000000  0.5759930000000  0.4932730000000 1.0
C      1  0.5036580000000  0.5004860000000  0.5211920000000 1.0
C      1  0.5405160000000  0.5291790000000  0.5424840000000 1.0
C      1  0.5149710000000  0.4693270000000  0.4988770000000 1.0
END
