TITL C-2848499-1157-616 -0.000808905535500999 125000 -740.986479281331 0 0 137 (C1) n - 1
REM
REM in /home/bkarasulu/work/CARBON/AIRSS/Generating-Clusters/AIREBO/with-SteepDescent/Only-C1/SD-CG-opt/Try1-1.4A-POS3A/HFTN-CG
REM
REM
REM
REM
REM
REM ./C.cell (11c1c37f851c82e70ff6c80c92926a4b)
REM
REM compiler GCC version 9.2.1 20190827 (Red Hat 9.2.1-1)
REM options -cpp -mtune=generic -march=x86-64 -g -O0 -fpre-include=/usr/include/finclude/math-vector-fortran.h
REM seed -1894239135 2029263619 1432101580 258580820 6347560 -1167521547 -1793570009 1969024374 1779685779 1075342138 1693203210 147306058 -1662686100 1261231193 -1832078240 303209073 1462125776 -1451428194 922983773 -1017833091 -1842905231 -1424749975 -1733853215 418876766 -410308274 518676059 1877541728 905021078 -151261209 -1388988835 1638743055 -306051854 -1022158271
REM
CELL 1.54180   50.00000   50.00000   50.00000   90.00000   90.00000   90.00000
LATT -1
SFAC C  
C      1  0.5119730000000  0.4595940000000  0.4651100000000 1.0
C      1  0.5989480000000  0.4782330000000  0.5145920000000 1.0
C      1  0.4521530000000  0.4362250000000  0.4890330000000 1.0
C      1  0.4003180000000  0.4957840000000  0.4814340000000 1.0
C      1  0.4627890000000  0.5017950000000  0.4733150000000 1.0
C      1  0.4534070000000  0.4450170000000  0.5276420000000 1.0
C      1  0.4188310000000  0.5596240000000  0.4826440000000 1.0
C      1  0.4666430000000  0.5938660000000  0.5667760000000 1.0
C      1  0.4284710000000  0.5536290000000  0.4504600000000 1.0
C      1  0.4286390000000  0.4495900000000  0.4684230000000 1.0
C      1  0.4199930000000  0.5289740000000  0.4284700000000 1.0
C      1  0.5631520000000  0.4240520000000  0.5071180000000 1.0
C      1  0.4883990000000  0.4904620000000  0.4133070000000 1.0
C      1  0.4947620000000  0.5452760000000  0.5633960000000 1.0
C      1  0.5512520000000  0.5508140000000  0.5037850000000 1.0
C      1  0.4569330000000  0.4927780000000  0.4090790000000 1.0
C      1  0.4899040000000  0.5137630000000  0.5637590000000 1.0
C      1  0.4600890000000  0.4658190000000  0.5039510000000 1.0
C      1  0.5515460000000  0.4684310000000  0.4832260000000 1.0
C      1  0.5056160000000  0.5548310000000  0.4587080000000 1.0
C      1  0.4560290000000  0.5243900000000  0.5138620000000 1.0
C      1  0.4227690000000  0.5042190000000  0.4642360000000 1.0
C      1  0.5803840000000  0.4637440000000  0.4562200000000 1.0
C      1  0.5368770000000  0.4405030000000  0.5606420000000 1.0
C      1  0.5360230000000  0.5530810000000  0.5926140000000 1.0
C      1  0.5893390000000  0.4316430000000  0.4976500000000 1.0
C      1  0.4902660000000  0.4799220000000  0.4516990000000 1.0
C      1  0.4428360000000  0.4730720000000  0.3958100000000 1.0
C      1  0.4811880000000  0.4089660000000  0.5359680000000 1.0
C      1  0.5683290000000  0.4695980000000  0.5252640000000 1.0
C      1  0.5352130000000  0.5146790000000  0.5005770000000 1.0
C      1  0.4811890000000  0.5368540000000  0.4687150000000 1.0
C      1  0.4910580000000  0.5043500000000  0.4893610000000 1.0
C      1  0.5398150000000  0.4450310000000  0.4278840000000 1.0
C      1  0.5551650000000  0.5082510000000  0.4468200000000 1.0
C      1  0.4851940000000  0.4577070000000  0.4844510000000 1.0
C      1  0.4282710000000  0.4632740000000  0.5381060000000 1.0
C      1  0.5267320000000  0.4083540000000  0.5121090000000 1.0
C      1  0.4257050000000  0.4461330000000  0.5079760000000 1.0
C      1  0.4962840000000  0.4663660000000  0.5788830000000 1.0
C      1  0.5543260000000  0.4152720000000  0.5354270000000 1.0
C      1  0.4285660000000  0.5027550000000  0.5418810000000 1.0
C      1  0.5225630000000  0.4149700000000  0.5451990000000 1.0
C      1  0.5047240000000  0.4899770000000  0.6104200000000 1.0
C      1  0.5343120000000  0.5869920000000  0.5034870000000 1.0
C      1  0.5932080000000  0.4930420000000  0.5449780000000 1.0
C      1  0.5530770000000  0.4970510000000  0.5315730000000 1.0
C      1  0.4385810000000  0.5026130000000  0.4360390000000 1.0
C      1  0.4079480000000  0.5380640000000  0.5028000000000 1.0
C      1  0.4753900000000  0.4158130000000  0.4868300000000 1.0
C      1  0.4499390000000  0.5700470000000  0.4675240000000 1.0
C      1  0.4223750000000  0.4856160000000  0.5131480000000 1.0
C      1  0.4778490000000  0.5390340000000  0.5354450000000 1.0
C      1  0.5595680000000  0.4650890000000  0.4292350000000 1.0
C      1  0.4954200000000  0.5185990000000  0.5167780000000 1.0
C      1  0.4286390000000  0.4577390000000  0.4143880000000 1.0
C      1  0.4622530000000  0.5228250000000  0.4465310000000 1.0
C      1  0.5949810000000  0.5466140000000  0.4816020000000 1.0
C      1  0.5335070000000  0.5474630000000  0.4748680000000 1.0
C      1  0.5840330000000  0.4995620000000  0.4580740000000 1.0
C      1  0.5412410000000  0.4974780000000  0.4712770000000 1.0
C      1  0.4450790000000  0.5686340000000  0.5006680000000 1.0
C      1  0.4783180000000  0.5766270000000  0.4591740000000 1.0
C      1  0.4816720000000  0.4950770000000  0.5880540000000 1.0
C      1  0.4883190000000  0.4601210000000  0.5504290000000 1.0
C      1  0.5083310000000  0.4426130000000  0.5029720000000 1.0
C      1  0.4606860000000  0.5649200000000  0.5281270000000 1.0
C      1  0.4949480000000  0.5236680000000  0.4092690000000 1.0
C      1  0.4702590000000  0.5475750000000  0.4934470000000 1.0
C      1  0.5777220000000  0.5634360000000  0.4961630000000 1.0
C      1  0.5007460000000  0.5545740000000  0.4023230000000 1.0
C      1  0.5678620000000  0.5144990000000  0.4989430000000 1.0
C      1  0.4930500000000  0.4059620000000  0.5076770000000 1.0
C      1  0.5991890000000  0.5265530000000  0.4632590000000 1.0
C      1  0.4878760000000  0.4181980000000  0.4599450000000 1.0
C      1  0.5153560000000  0.5189460000000  0.4346740000000 1.0
C      1  0.4469930000000  0.4319140000000  0.4458420000000 1.0
C      1  0.4615250000000  0.4718400000000  0.4644350000000 1.0
C      1  0.4837930000000  0.5784210000000  0.4987220000000 1.0
C      1  0.5812110000000  0.5160140000000  0.5527520000000 1.0
C      1  0.4869860000000  0.6009980000000  0.4748850000000 1.0
C      1  0.5519450000000  0.5562650000000  0.4260770000000 1.0
C      1  0.4395630000000  0.5525880000000  0.4185810000000 1.0
C      1  0.5136390000000  0.4216270000000  0.4768090000000 1.0
C      1  0.5406510000000  0.4469240000000  0.5041330000000 1.0
C      1  0.4741400000000  0.4332640000000  0.4409250000000 1.0
C      1  0.5301760000000  0.5825150000000  0.5576670000000 1.0
C      1  0.5143310000000  0.4850330000000  0.4838020000000 1.0
C      1  0.5008060000000  0.4364690000000  0.5321080000000 1.0
C      1  0.5855660000000  0.4607020000000  0.5522300000000 1.0
C      1  0.4484660000000  0.5774860000000  0.5547590000000 1.0
C      1  0.4353790000000  0.4429100000000  0.5626810000000 1.0
C      1  0.4617680000000  0.5050880000000  0.5488640000000 1.0
C      1  0.5446780000000  0.5296650000000  0.5296120000000 1.0
C      1  0.5222530000000  0.4949440000000  0.4129300000000 1.0
C      1  0.4264530000000  0.5336680000000  0.5278460000000 1.0
C      1  0.3906660000000  0.5179650000000  0.4959110000000 1.0
C      1  0.5130220000000  0.5400150000000  0.4996260000000 1.0
C      1  0.5610660000000  0.4395810000000  0.4704070000000 1.0
C      1  0.5066460000000  0.5663230000000  0.5421940000000 1.0
C      1  0.4342040000000  0.5181170000000  0.5707700000000 1.0
C      1  0.4983560000000  0.5099570000000  0.4569490000000 1.0
C      1  0.4658030000000  0.4920320000000  0.5177310000000 1.0
C      1  0.5353040000000  0.4983550000000  0.5759590000000 1.0
C      1  0.4793730000000  0.5920700000000  0.5289380000000 1.0
C      1  0.5215010000000  0.5180780000000  0.5517790000000 1.0
C      1  0.5369430000000  0.4608170000000  0.5349570000000 1.0
C      1  0.5696880000000  0.4361270000000  0.5563220000000 1.0
C      1  0.5174620000000  0.4471520000000  0.4121270000000 1.0
C      1  0.5934520000000  0.4583060000000  0.4875790000000 1.0
C      1  0.5443470000000  0.4128540000000  0.4833520000000 1.0
C      1  0.5082750000000  0.5514700000000  0.5911510000000 1.0
C      1  0.4906060000000  0.4586180000000  0.4251940000000 1.0
C      1  0.5202200000000  0.4842530000000  0.5504630000000 1.0
C      1  0.4352190000000  0.4695230000000  0.4430970000000 1.0
C      1  0.4985590000000  0.5956630000000  0.5557670000000 1.0
C      1  0.4075390000000  0.4658390000000  0.4897220000000 1.0
C      1  0.5612650000000  0.5889640000000  0.4979970000000 1.0
C      1  0.5102730000000  0.5679550000000  0.5123630000000 1.0
C      1  0.4279460000000  0.5570580000000  0.5495070000000 1.0
C      1  0.4669740000000  0.4336430000000  0.5527960000000 1.0
C      1  0.5399870000000  0.5360080000000  0.4452030000000 1.0
C      1  0.4941730000000  0.4888000000000  0.5331130000000 1.0
C      1  0.5323060000000  0.4388950000000  0.4557630000000 1.0
C      1  0.4269470000000  0.5164470000000  0.6026920000000 1.0
C      1  0.4536380000000  0.5022540000000  0.5937110000000 1.0
C      1  0.5237060000000  0.4538180000000  0.5848470000000 1.0
C      1  0.5492170000000  0.4902750000000  0.4237820000000 1.0
C      1  0.5285750000000  0.4809050000000  0.5973520000000 1.0
C      1  0.5484610000000  0.5638860000000  0.5695360000000 1.0
C      1  0.5840910000000  0.5631750000000  0.5356230000000 1.0
C      1  0.4685580000000  0.5411550000000  0.4211860000000 1.0
C      1  0.4374750000000  0.5051480000000  0.4928480000000 1.0
C      1  0.5283080000000  0.4840370000000  0.5116650000000 1.0
C      1  0.5783870000000  0.4887930000000  0.4878140000000 1.0
C      1  0.5660920000000  0.5463630000000  0.5500750000000 1.0
C      1  0.4906460000000  0.5642550000000  0.4307690000000 1.0
END
