TITL C-2847946-5639-148 -0.00322195944148177 125000 -889.850444373505 0 0 166 (C1) n - 1
REM
REM in /home/bkarasulu/work/CARBON/AIRSS/Generating-Clusters/AIREBO/with-SteepDescent/Only-C1/SD-CG-opt/Try1-1.4A-POS3A/HFTN-CG
REM
REM
REM
REM
REM
REM ./C.cell (11c1c37f851c82e70ff6c80c92926a4b)
REM
REM compiler GCC version 9.2.1 20190827 (Red Hat 9.2.1-1)
REM options -cpp -mtune=generic -march=x86-64 -g -O0 -fpre-include=/usr/include/finclude/math-vector-fortran.h
REM seed 1267783913 1038201387 -1512270649 467646429 -849169434 1023920445 -416385196 84768673 1942215639 -386433900 -1460753679 1682199075 1000889749 1853848476 1397550475 -312125913 564582056 -6080677 1000690394 -901376640 366649082 1786139761 82542299 -1916550282 843072629 -853531824 -232505169 2028281854 -1179904080 -2147249461 124769095 -358412698 604565505
REM
CELL 1.54180   50.00000   50.00000   50.00000   90.00000   90.00000   90.00000
LATT -1
SFAC C  
C      1  0.4815840000000  0.4441010000000  0.6008330000000 1.0
C      1  0.4994170000000  0.4711580000000  0.5585890000000 1.0
C      1  0.5100110000000  0.6020890000000  0.5015520000000 1.0
C      1  0.4529290000000  0.5136560000000  0.5277070000000 1.0
C      1  0.5251530000000  0.4867770000000  0.5291680000000 1.0
C      1  0.5298820000000  0.5559860000000  0.4559420000000 1.0
C      1  0.5065530000000  0.4991910000000  0.5739570000000 1.0
C      1  0.5186880000000  0.4148250000000  0.4596770000000 1.0
C      1  0.5183630000000  0.5660800000000  0.5692120000000 1.0
C      1  0.5498370000000  0.4688840000000  0.6085690000000 1.0
C      1  0.4021980000000  0.4750560000000  0.5150100000000 1.0
C      1  0.5282570000000  0.5305300000000  0.4369240000000 1.0
C      1  0.4696570000000  0.5235770000000  0.5971190000000 1.0
C      1  0.5143290000000  0.5080430000000  0.4519080000000 1.0
C      1  0.4923230000000  0.5108210000000  0.4863200000000 1.0
C      1  0.5007130000000  0.5802130000000  0.4411540000000 1.0
C      1  0.4873900000000  0.5550380000000  0.4546840000000 1.0
C      1  0.5656910000000  0.4309400000000  0.4774660000000 1.0
C      1  0.4624870000000  0.5202170000000  0.4889870000000 1.0
C      1  0.5336680000000  0.4911000000000  0.5606580000000 1.0
C      1  0.5510070000000  0.5571490000000  0.5653330000000 1.0
C      1  0.5738880000000  0.4838680000000  0.4440950000000 1.0
C      1  0.4656270000000  0.4719780000000  0.4753140000000 1.0
C      1  0.4066730000000  0.4755020000000  0.5487200000000 1.0
C      1  0.5422180000000  0.5780320000000  0.5399080000000 1.0
C      1  0.5966080000000  0.4432410000000  0.4704580000000 1.0
C      1  0.4412300000000  0.4133270000000  0.4673890000000 1.0
C      1  0.5418040000000  0.4525010000000  0.5610920000000 1.0
C      1  0.6138960000000  0.4652970000000  0.4879700000000 1.0
C      1  0.5360750000000  0.5211280000000  0.6060240000000 1.0
C      1  0.4773410000000  0.4074490000000  0.5427570000000 1.0
C      1  0.4695630000000  0.4670800000000  0.5558060000000 1.0
C      1  0.5316870000000  0.5147170000000  0.4807070000000 1.0
C      1  0.5519720000000  0.5284980000000  0.5838500000000 1.0
C      1  0.5637480000000  0.5189140000000  0.4759040000000 1.0
C      1  0.4667430000000  0.4332120000000  0.4212520000000 1.0
C      1  0.4614730000000  0.4097260000000  0.4945580000000 1.0
C      1  0.4948420000000  0.4363380000000  0.4210410000000 1.0
C      1  0.4994830000000  0.4723560000000  0.6022970000000 1.0
C      1  0.4099630000000  0.4496500000000  0.4937400000000 1.0
C      1  0.4951700000000  0.4837180000000  0.4659650000000 1.0
C      1  0.5168590000000  0.4215510000000  0.4118070000000 1.0
C      1  0.4993500000000  0.4808990000000  0.4157500000000 1.0
C      1  0.5366050000000  0.5022410000000  0.3968910000000 1.0
C      1  0.5620190000000  0.4616760000000  0.4632320000000 1.0
C      1  0.4318320000000  0.5216280000000  0.5751670000000 1.0
C      1  0.5767420000000  0.5412190000000  0.4392250000000 1.0
C      1  0.5886480000000  0.5248370000000  0.5375040000000 1.0
C      1  0.4883840000000  0.4695440000000  0.5108310000000 1.0
C      1  0.5647920000000  0.5531700000000  0.4971930000000 1.0
C      1  0.3976470000000  0.4729450000000  0.4753950000000 1.0
C      1  0.4726850000000  0.4825330000000  0.4322120000000 1.0
C      1  0.5571710000000  0.5256960000000  0.4218090000000 1.0
C      1  0.5746460000000  0.4318660000000  0.5519520000000 1.0
C      1  0.4056240000000  0.5227510000000  0.4735880000000 1.0
C      1  0.4415120000000  0.4988880000000  0.4924610000000 1.0
C      1  0.4218900000000  0.5216310000000  0.4293130000000 1.0
C      1  0.4520410000000  0.4610180000000  0.4197680000000 1.0
C      1  0.6096030000000  0.4920130000000  0.4984550000000 1.0
C      1  0.4649910000000  0.4739330000000  0.6006380000000 1.0
C      1  0.5009220000000  0.5352720000000  0.5248020000000 1.0
C      1  0.4301530000000  0.4533020000000  0.4447820000000 1.0
C      1  0.4282620000000  0.5200220000000  0.4013660000000 1.0
C      1  0.5125330000000  0.5386570000000  0.5545100000000 1.0
C      1  0.4738050000000  0.3914370000000  0.5203580000000 1.0
C      1  0.4422800000000  0.4788190000000  0.4578720000000 1.0
C      1  0.4465330000000  0.4236070000000  0.5217760000000 1.0
C      1  0.4253050000000  0.4984490000000  0.5220040000000 1.0
C      1  0.5324400000000  0.5834410000000  0.4746990000000 1.0
C      1  0.4563160000000  0.5432360000000  0.5120440000000 1.0
C      1  0.4067810000000  0.5371990000000  0.5354460000000 1.0
C      1  0.4731510000000  0.6091370000000  0.5297370000000 1.0
C      1  0.4762600000000  0.4918470000000  0.5334690000000 1.0
C      1  0.4233840000000  0.4352510000000  0.4668930000000 1.0
C      1  0.6098110000000  0.5185610000000  0.4627470000000 1.0
C      1  0.4937550000000  0.5925910000000  0.4724560000000 1.0
C      1  0.5629450000000  0.5253820000000  0.5152420000000 1.0
C      1  0.4578380000000  0.5308160000000  0.4442010000000 1.0
C      1  0.4830570000000  0.4319190000000  0.4589430000000 1.0
C      1  0.5018660000000  0.5063790000000  0.5171120000000 1.0
C      1  0.5410210000000  0.5750500000000  0.5003000000000 1.0
C      1  0.5683260000000  0.4736950000000  0.5181710000000 1.0
C      1  0.5182840000000  0.4542950000000  0.5366010000000 1.0
C      1  0.4173590000000  0.4937450000000  0.4714940000000 1.0
C      1  0.5687860000000  0.5792510000000  0.5186920000000 1.0
C      1  0.4113160000000  0.4617770000000  0.5794870000000 1.0
C      1  0.5260270000000  0.4737410000000  0.4298750000000 1.0
C      1  0.5858800000000  0.5052650000000  0.4583280000000 1.0
C      1  0.5169280000000  0.5016820000000  0.6035990000000 1.0
C      1  0.4932910000000  0.4080330000000  0.4808750000000 1.0
C      1  0.4324360000000  0.5598780000000  0.4546730000000 1.0
C      1  0.5604150000000  0.5491380000000  0.4660380000000 1.0
C      1  0.5742630000000  0.5544060000000  0.5403090000000 1.0
C      1  0.5809640000000  0.4651250000000  0.4912620000000 1.0
C      1  0.4877210000000  0.5503630000000  0.5007370000000 1.0
C      1  0.5416000000000  0.4277580000000  0.4226960000000 1.0
C      1  0.5900850000000  0.5156950000000  0.4971860000000 1.0
C      1  0.4605540000000  0.4821950000000  0.3942530000000 1.0
C      1  0.5214880000000  0.5600020000000  0.5198730000000 1.0
C      1  0.5424360000000  0.6069980000000  0.4493650000000 1.0
C      1  0.4910220000000  0.5604140000000  0.4152380000000 1.0
C      1  0.4254810000000  0.5539670000000  0.5126960000000 1.0
C      1  0.5021090000000  0.4564800000000  0.4468100000000 1.0
C      1  0.5992180000000  0.5536760000000  0.5171880000000 1.0
C      1  0.4591860000000  0.5492330000000  0.4727670000000 1.0
C      1  0.4110380000000  0.5085890000000  0.5515300000000 1.0
C      1  0.5907530000000  0.5054340000000  0.5568530000000 1.0
C      1  0.4497960000000  0.5640850000000  0.5486330000000 1.0
C      1  0.4351620000000  0.4477570000000  0.5446250000000 1.0
C      1  0.4607730000000  0.4437390000000  0.5749510000000 1.0
C      1  0.5222230000000  0.4103840000000  0.4984350000000 1.0
C      1  0.5195220000000  0.6147700000000  0.4719050000000 1.0
C      1  0.5288850000000  0.4684500000000  0.5856000000000 1.0
C      1  0.4521620000000  0.4203910000000  0.5555000000000 1.0
C      1  0.5627540000000  0.5005180000000  0.5693400000000 1.0
C      1  0.4790690000000  0.5289420000000  0.4103780000000 1.0
C      1  0.4856620000000  0.4388870000000  0.5195410000000 1.0
C      1  0.4810410000000  0.5097340000000  0.5615490000000 1.0
C      1  0.5671800000000  0.4714270000000  0.5520700000000 1.0
C      1  0.5044970000000  0.5136790000000  0.3937250000000 1.0
C      1  0.4362860000000  0.4584320000000  0.5910270000000 1.0
C      1  0.4589130000000  0.5921540000000  0.5120380000000 1.0
C      1  0.4724560000000  0.4412830000000  0.4882630000000 1.0
C      1  0.5177300000000  0.5986630000000  0.5284730000000 1.0
C      1  0.4549020000000  0.4725770000000  0.5056970000000 1.0
C      1  0.4387010000000  0.5366550000000  0.5471530000000 1.0
C      1  0.6052770000000  0.5436750000000  0.4852480000000 1.0
C      1  0.4955540000000  0.5832030000000  0.5677140000000 1.0
C      1  0.4609510000000  0.5703370000000  0.4393820000000 1.0
C      1  0.5395630000000  0.4755530000000  0.4816720000000 1.0
C      1  0.4420380000000  0.5496630000000  0.5848280000000 1.0
C      1  0.4011020000000  0.5338400000000  0.5033910000000 1.0
C      1  0.5471220000000  0.4969750000000  0.5053020000000 1.0
C      1  0.4587790000000  0.4167190000000  0.4444070000000 1.0
C      1  0.5394540000000  0.5359970000000  0.5335960000000 1.0
C      1  0.4348430000000  0.4522550000000  0.5129550000000 1.0
C      1  0.5675400000000  0.4402120000000  0.5242210000000 1.0
C      1  0.4844280000000  0.5116120000000  0.4394500000000 1.0
C      1  0.5117360000000  0.4626350000000  0.4868770000000 1.0
C      1  0.4898830000000  0.4838490000000  0.3870430000000 1.0
C      1  0.4689010000000  0.5670450000000  0.5729190000000 1.0
C      1  0.5026840000000  0.4254830000000  0.5457460000000 1.0
C      1  0.5364520000000  0.4351440000000  0.5169200000000 1.0
C      1  0.5490630000000  0.4227750000000  0.5647800000000 1.0
C      1  0.5318420000000  0.5825170000000  0.4347550000000 1.0
C      1  0.4391990000000  0.4790130000000  0.5568800000000 1.0
C      1  0.5083560000000  0.5390700000000  0.4761750000000 1.0
C      1  0.5523340000000  0.4921190000000  0.4237690000000 1.0
C      1  0.5422620000000  0.4481940000000  0.4404360000000 1.0
C      1  0.5320960000000  0.4365070000000  0.4789800000000 1.0
C      1  0.5300240000000  0.5340780000000  0.4031200000000 1.0
C      1  0.5692810000000  0.4166340000000  0.5037650000000 1.0
C      1  0.4528440000000  0.5494470000000  0.4173230000000 1.0
C      1  0.4954320000000  0.6005750000000  0.5453580000000 1.0
C      1  0.5916760000000  0.4518280000000  0.5651810000000 1.0
C      1  0.4542950000000  0.5103420000000  0.3963080000000 1.0
C      1  0.4457060000000  0.5022520000000  0.4385040000000 1.0
C      1  0.5498560000000  0.3967340000000  0.5073240000000 1.0
C      1  0.5980570000000  0.5555420000000  0.4544090000000 1.0
C      1  0.4717760000000  0.5761470000000  0.4893350000000 1.0
C      1  0.4858510000000  0.5403480000000  0.5755370000000 1.0
C      1  0.4142770000000  0.5386740000000  0.4501760000000 1.0
C      1  0.4548000000000  0.4979340000000  0.5804530000000 1.0
C      1  0.5260100000000  0.4088840000000  0.5603530000000 1.0
C      1  0.3917690000000  0.5030220000000  0.5007330000000 1.0
C      1  0.4406040000000  0.5774270000000  0.5256100000000 1.0
END
