TITL C-2848506-1665-659 9.83134187274962e-05 125000 -452.428025028906 0 0 82 (C1) n - 1
REM
REM in /home/bkarasulu/work/CARBON/AIRSS/Generating-Clusters/AIREBO/with-SteepDescent/Only-C1/SD-CG-opt/Try1-1.4A-POS3A/HFTN-CG
REM
REM
REM
REM
REM
REM ./C.cell (11c1c37f851c82e70ff6c80c92926a4b)
REM
REM compiler GCC version 9.2.1 20190827 (Red Hat 9.2.1-1)
REM options -cpp -mtune=generic -march=x86-64 -g -O0 -fpre-include=/usr/include/finclude/math-vector-fortran.h
REM seed -2042968826 1426121848 -170816536 733010276 -920237054 -320129805 -763749347 -319841815 522102020 1608985654 -1210976228 1289543144 50160435 -470812206 2008393430 -1683421033 -1508972630 758126737 1962557219 964729467 -1842712394 -909780845 -999609238 1990559354 1974329553 -2051523151 588603499 -161249349 2042988650 -451426422 -257903695 1966687951 -1596980843
REM
CELL 1.54180   50.00000   50.00000   50.00000   90.00000   90.00000   90.00000
LATT -1
SFAC C  
C      1  0.4721080000000  0.4651650000000  0.5623740000000 1.0
C      1  0.4354190000000  0.4550320000000  0.4715360000000 1.0
C      1  0.5398890000000  0.5441560000000  0.5544170000000 1.0
C      1  0.4982390000000  0.4672030000000  0.5323870000000 1.0
C      1  0.4933350000000  0.5417090000000  0.5618070000000 1.0
C      1  0.4446600000000  0.4384930000000  0.5286160000000 1.0
C      1  0.5278650000000  0.5133420000000  0.5455040000000 1.0
C      1  0.4978970000000  0.4058990000000  0.5259560000000 1.0
C      1  0.4980550000000  0.5389210000000  0.4305640000000 1.0
C      1  0.4511290000000  0.4826160000000  0.5544880000000 1.0
C      1  0.5060440000000  0.4624020000000  0.4253410000000 1.0
C      1  0.4816240000000  0.4986240000000  0.5087700000000 1.0
C      1  0.5172840000000  0.5327650000000  0.5229030000000 1.0
C      1  0.4747820000000  0.4649830000000  0.4710660000000 1.0
C      1  0.5413640000000  0.4439480000000  0.4510330000000 1.0
C      1  0.5335530000000  0.5288430000000  0.4940710000000 1.0
C      1  0.5329280000000  0.4608640000000  0.4294280000000 1.0
C      1  0.5452230000000  0.5644030000000  0.5076840000000 1.0
C      1  0.4585710000000  0.5237040000000  0.4655570000000 1.0
C      1  0.4686770000000  0.4686820000000  0.5183680000000 1.0
C      1  0.4615460000000  0.5004690000000  0.4428460000000 1.0
C      1  0.4738880000000  0.5466240000000  0.4504190000000 1.0
C      1  0.5218290000000  0.4336140000000  0.4719180000000 1.0
C      1  0.5560480000000  0.4865910000000  0.5554860000000 1.0
C      1  0.5185760000000  0.4540140000000  0.4943190000000 1.0
C      1  0.5325500000000  0.4493580000000  0.5229550000000 1.0
C      1  0.5254700000000  0.5490270000000  0.4374430000000 1.0
C      1  0.4394770000000  0.5372740000000  0.4864840000000 1.0
C      1  0.5582930000000  0.4979270000000  0.4647390000000 1.0
C      1  0.4326970000000  0.4909320000000  0.5009440000000 1.0
C      1  0.5649500000000  0.5399390000000  0.4969430000000 1.0
C      1  0.4496540000000  0.4491560000000  0.4976020000000 1.0
C      1  0.5260450000000  0.5248290000000  0.5774550000000 1.0
C      1  0.5374640000000  0.5653020000000  0.5340700000000 1.0
C      1  0.5302660000000  0.4736840000000  0.5737480000000 1.0
C      1  0.5533400000000  0.5338570000000  0.4377610000000 1.0
C      1  0.4936000000000  0.5121420000000  0.4471160000000 1.0
C      1  0.4732690000000  0.4235670000000  0.5166920000000 1.0
C      1  0.5273850000000  0.5689090000000  0.4858870000000 1.0
C      1  0.4940580000000  0.5285860000000  0.4985660000000 1.0
C      1  0.4960570000000  0.5260100000000  0.5918430000000 1.0
C      1  0.4305780000000  0.4966090000000  0.4507530000000 1.0
C      1  0.4375980000000  0.5288210000000  0.5334170000000 1.0
C      1  0.4981890000000  0.4776110000000  0.4877970000000 1.0
C      1  0.4767680000000  0.5746720000000  0.5054720000000 1.0
C      1  0.4730610000000  0.4397300000000  0.5466110000000 1.0
C      1  0.4469860000000  0.5136150000000  0.5597520000000 1.0
C      1  0.4990210000000  0.4180870000000  0.4719300000000 1.0
C      1  0.5297660000000  0.4811900000000  0.5345940000000 1.0
C      1  0.5446970000000  0.5008620000000  0.5834650000000 1.0
C      1  0.5118140000000  0.5123870000000  0.4737430000000 1.0
C      1  0.4660140000000  0.5377120000000  0.5163070000000 1.0
C      1  0.4361210000000  0.4714050000000  0.5277950000000 1.0
C      1  0.4473990000000  0.4467060000000  0.4484100000000 1.0
C      1  0.4795060000000  0.5685150000000  0.4659090000000 1.0
C      1  0.4651760000000  0.5316590000000  0.5780050000000 1.0
C      1  0.4761370000000  0.4340370000000  0.4850880000000 1.0
C      1  0.5388220000000  0.5626730000000  0.4610330000000 1.0
C      1  0.5496100000000  0.4831010000000  0.4218970000000 1.0
C      1  0.5572270000000  0.4464670000000  0.4997410000000 1.0
C      1  0.5562990000000  0.5054230000000  0.4383490000000 1.0
C      1  0.5058320000000  0.4343860000000  0.5370250000000 1.0
C      1  0.4735000000000  0.5130360000000  0.5384740000000 1.0
C      1  0.5798160000000  0.5006790000000  0.5382440000000 1.0
C      1  0.5301010000000  0.4840060000000  0.4779220000000 1.0
C      1  0.4246440000000  0.4805670000000  0.4722440000000 1.0
C      1  0.4930040000000  0.5072880000000  0.5636200000000 1.0
C      1  0.4754310000000  0.4598570000000  0.4399460000000 1.0
C      1  0.4509220000000  0.5623330000000  0.4983560000000 1.0
C      1  0.4991430000000  0.5608400000000  0.4890440000000 1.0
C      1  0.5634870000000  0.5003550000000  0.4933200000000 1.0
C      1  0.5658400000000  0.5480720000000  0.4647590000000 1.0
C      1  0.4857270000000  0.4875660000000  0.4251880000000 1.0
C      1  0.5400030000000  0.4920120000000  0.5080350000000 1.0
C      1  0.4858320000000  0.5799380000000  0.5303940000000 1.0
C      1  0.5527530000000  0.4587940000000  0.4749490000000 1.0
C      1  0.4608610000000  0.4941280000000  0.4822220000000 1.0
C      1  0.4289600000000  0.5204800000000  0.5064190000000 1.0
C      1  0.5797070000000  0.5145570000000  0.5141120000000 1.0
C      1  0.5013640000000  0.4785630000000  0.5641160000000 1.0
C      1  0.5051980000000  0.5587950000000  0.5411430000000 1.0
C      1  0.4919780000000  0.5389020000000  0.4032940000000 1.0
END
