TITL C-2848507-1641-548 0.00121767402830227 125000 -389.981208685156 0 0 71 (C1) n - 1
REM
REM in /home/bkarasulu/work/CARBON/AIRSS/Generating-Clusters/AIREBO/with-SteepDescent/Only-C1/SD-CG-opt/Try1-1.4A-POS3A/HFTN-CG
REM
REM
REM
REM
REM
REM ./C.cell (11c1c37f851c82e70ff6c80c92926a4b)
REM
REM compiler GCC version 9.2.1 20190827 (Red Hat 9.2.1-1)
REM options -cpp -mtune=generic -march=x86-64 -g -O0 -fpre-include=/usr/include/finclude/math-vector-fortran.h
REM seed 1202919948 -309854139 -587402913 200034803 1381104355 -1170962415 -293965861 -243839436 2118066910 2117439494 -719222599 -174112052 -320714768 -1340646198 1131265614 -1354405931 603002812 -1096176989 774952339 1931489650 -1596405116 31792849 1353860826 1540702403 -1180096022 -1551817579 1819606381 806046328 1824671420 -844398817 -1924873911 471602465 1521040654
REM
CELL 1.54180   50.00000   50.00000   50.00000   90.00000   90.00000   90.00000
LATT -1
SFAC C  
C      1  0.4601060000000  0.5358890000000  0.5456000000000 1.0
C      1  0.4726550000000  0.4603660000000  0.4556700000000 1.0
C      1  0.5552650000000  0.4619490000000  0.4787520000000 1.0
C      1  0.4756710000000  0.4301420000000  0.4517140000000 1.0
C      1  0.4772630000000  0.5098830000000  0.4342470000000 1.0
C      1  0.5559630000000  0.5464470000000  0.4693370000000 1.0
C      1  0.5423140000000  0.5320030000000  0.5289560000000 1.0
C      1  0.4982320000000  0.5089770000000  0.5485710000000 1.0
C      1  0.5434460000000  0.4326230000000  0.4694310000000 1.0
C      1  0.5072120000000  0.5770800000000  0.5340890000000 1.0
C      1  0.5284560000000  0.5200570000000  0.4404400000000 1.0
C      1  0.4901390000000  0.5419170000000  0.5836770000000 1.0
C      1  0.4646940000000  0.4757160000000  0.5650480000000 1.0
C      1  0.4663950000000  0.4717090000000  0.4303910000000 1.0
C      1  0.5490930000000  0.5267680000000  0.5618600000000 1.0
C      1  0.4739180000000  0.4064480000000  0.4791920000000 1.0
C      1  0.4498490000000  0.4533360000000  0.5240270000000 1.0
C      1  0.4968140000000  0.5253430000000  0.4991860000000 1.0
C      1  0.4370430000000  0.5195260000000  0.5465880000000 1.0
C      1  0.5250250000000  0.4523450000000  0.5771360000000 1.0
C      1  0.4787690000000  0.4165350000000  0.5023640000000 1.0
C      1  0.4353040000000  0.4619500000000  0.5009970000000 1.0
C      1  0.5663320000000  0.4648060000000  0.5061320000000 1.0
C      1  0.4997600000000  0.4733840000000  0.4680910000000 1.0
C      1  0.5466240000000  0.5413580000000  0.4423430000000 1.0
C      1  0.4406690000000  0.4975270000000  0.4839740000000 1.0
C      1  0.5373390000000  0.5590820000000  0.5149090000000 1.0
C      1  0.5867090000000  0.5067860000000  0.4906150000000 1.0
C      1  0.5390230000000  0.4934580000000  0.4458630000000 1.0
C      1  0.5255410000000  0.4582840000000  0.4594920000000 1.0
C      1  0.5328870000000  0.4841010000000  0.5374340000000 1.0
C      1  0.5549320000000  0.5559870000000  0.4213320000000 1.0
C      1  0.5374310000000  0.5618260000000  0.4840890000000 1.0
C      1  0.4851640000000  0.4167750000000  0.5610400000000 1.0
C      1  0.5402690000000  0.5078970000000  0.4950770000000 1.0
C      1  0.4293300000000  0.4940320000000  0.5367070000000 1.0
C      1  0.5179970000000  0.5097020000000  0.5207230000000 1.0
C      1  0.5527770000000  0.4964090000000  0.5585450000000 1.0
C      1  0.4405820000000  0.5440140000000  0.4541960000000 1.0
C      1  0.4213640000000  0.4884150000000  0.5094980000000 1.0
C      1  0.4525200000000  0.5176920000000  0.4381330000000 1.0
C      1  0.4912250000000  0.4365850000000  0.5452420000000 1.0
C      1  0.5014450000000  0.5521300000000  0.5175420000000 1.0
C      1  0.5472120000000  0.4076350000000  0.4672070000000 1.0
C      1  0.4902720000000  0.4839680000000  0.5573180000000 1.0
C      1  0.4421390000000  0.5405880000000  0.4856690000000 1.0
C      1  0.5336350000000  0.5849760000000  0.5339190000000 1.0
C      1  0.5644690000000  0.5235860000000  0.4836740000000 1.0
C      1  0.4716270000000  0.5717090000000  0.4996120000000 1.0
C      1  0.4242630000000  0.5524960000000  0.5007760000000 1.0
C      1  0.4636740000000  0.5177430000000  0.4987450000000 1.0
C      1  0.5051150000000  0.5303570000000  0.4711010000000 1.0
C      1  0.5184760000000  0.4586460000000  0.5207270000000 1.0
C      1  0.4389250000000  0.5686510000000  0.4427820000000 1.0
C      1  0.4938550000000  0.4673730000000  0.5010980000000 1.0
C      1  0.5462200000000  0.4899860000000  0.4720520000000 1.0
C      1  0.4835220000000  0.5300740000000  0.5604930000000 1.0
C      1  0.4780910000000  0.4426830000000  0.5184950000000 1.0
C      1  0.5500920000000  0.4510490000000  0.5230840000000 1.0
C      1  0.4303070000000  0.5122490000000  0.4601170000000 1.0
C      1  0.5114820000000  0.5585220000000  0.4723900000000 1.0
C      1  0.5651960000000  0.5067620000000  0.5315290000000 1.0
C      1  0.4443870000000  0.4710530000000  0.5460990000000 1.0
C      1  0.5106570000000  0.4608170000000  0.5537540000000 1.0
C      1  0.5012230000000  0.5041550000000  0.4532170000000 1.0
C      1  0.4507440000000  0.4668610000000  0.4756750000000 1.0
C      1  0.4681830000000  0.5451320000000  0.5185410000000 1.0
C      1  0.4807030000000  0.4915860000000  0.5122540000000 1.0
C      1  0.5779010000000  0.4902440000000  0.5124290000000 1.0
C      1  0.4898550000000  0.5752260000000  0.4794500000000 1.0
C      1  0.5342320000000  0.4686090000000  0.4295420000000 1.0
END
