TITL C-2848494-1720-65 2.5543816448757e-07 125000 -72.9109429070749 0 0 14 (C1) n - 1
REM
REM in /home/bkarasulu/work/CARBON/AIRSS/Generating-Clusters/AIREBO/with-SteepDescent/Only-C1/SD-CG-opt/Try1-1.4A-POS3A/HFTN-CG
REM
REM
REM
REM
REM
REM ./C.cell (11c1c37f851c82e70ff6c80c92926a4b)
REM
REM compiler GCC version 9.2.1 20190827 (Red Hat 9.2.1-1)
REM options -cpp -mtune=generic -march=x86-64 -g -O0 -fpre-include=/usr/include/finclude/math-vector-fortran.h
REM seed -1292122923 -603006027 41589985 747811548 1661495603 2061853764 2028707590 255243014 540280902 -481553883 2002780722 -545018964 1994750459 1420229604 -375295868 -680546834 -1863707778 1551305647 -655127329 -33579259 1922429156 461966125 421011769 -1390516713 -155823337 -1188714089 1712369068 1670106067 -1678488976 701286317 -747458248 -1340037371 1380344137
REM
CELL 1.54180   50.00000   50.00000   50.00000   90.00000   90.00000   90.00000
LATT -1
SFAC C  
C      1  0.4653860000000  0.5483600000000  0.5287040000000 1.0
C      1  0.5101800000000  0.4963900000000  0.4873820000000 1.0
C      1  0.4893420000000  0.4994300000000  0.4706660000000 1.0
C      1  0.5092530000000  0.4928090000000  0.5161110000000 1.0
C      1  0.4875930000000  0.4994440000000  0.5328860000000 1.0
C      1  0.4770170000000  0.5250560000000  0.5316550000000 1.0
C      1  0.4802110000000  0.5070860000000  0.4154150000000 1.0
C      1  0.4584440000000  0.5081510000000  0.4672110000000 1.0
C      1  0.5351270000000  0.4839600000000  0.5256080000000 1.0
C      1  0.5524300000000  0.4832540000000  0.5023560000000 1.0
C      1  0.5375480000000  0.4907960000000  0.4794980000000 1.0
C      1  0.4778990000000  0.5070480000000  0.4414400000000 1.0
C      1  0.5415410000000  0.4769590000000  0.5506310000000 1.0
C      1  0.4780290000000  0.4812580000000  0.5504380000000 1.0
END
