TITL C-2848509-3138-531 -0.00256085973438805 125000 -589.650835416093 0 0 109 (C1) n - 1
REM
REM in /home/bkarasulu/work/CARBON/AIRSS/Generating-Clusters/AIREBO/with-SteepDescent/Only-C1/SD-CG-opt/Try1-1.4A-POS3A/HFTN-CG
REM
REM
REM
REM
REM
REM ./C.cell (11c1c37f851c82e70ff6c80c92926a4b)
REM
REM compiler GCC version 9.2.1 20190827 (Red Hat 9.2.1-1)
REM options -cpp -mtune=generic -march=x86-64 -g -O0 -fpre-include=/usr/include/finclude/math-vector-fortran.h
REM seed 1577947208 1753107341 -1758763165 -1581461317 122765138 947556576 -341104196 956784236 -1007009554 1171941751 -283609574 1635643937 575660094 -159927548 -3021243 -1529079458 -1328490313 -991591725 1960594604 -132364252 1933978858 -1533600615 1522641221 -458871381 -872664329 -1818185366 -174339688 2098177947 -566456288 326485879 -1661795183 1597106450 -171320322
REM
CELL 1.54180   50.00000   50.00000   50.00000   90.00000   90.00000   90.00000
LATT -1
SFAC C  
C      1  0.5063730000000  0.4557880000000  0.5282170000000 1.0
C      1  0.5365500000000  0.5838060000000  0.5022180000000 1.0
C      1  0.5005020000000  0.4242760000000  0.5325900000000 1.0
C      1  0.5038910000000  0.4599350000000  0.5816810000000 1.0
C      1  0.4962570000000  0.5288010000000  0.4746730000000 1.0
C      1  0.5425680000000  0.4737090000000  0.5023090000000 1.0
C      1  0.5488190000000  0.5634120000000  0.4508660000000 1.0
C      1  0.4311830000000  0.5394070000000  0.4740090000000 1.0
C      1  0.4757250000000  0.4680490000000  0.4284780000000 1.0
C      1  0.5246990000000  0.4580360000000  0.4797770000000 1.0
C      1  0.4125010000000  0.5261810000000  0.4933510000000 1.0
C      1  0.4338600000000  0.5291150000000  0.4457690000000 1.0
C      1  0.4961250000000  0.4741890000000  0.4708620000000 1.0
C      1  0.5693300000000  0.5339970000000  0.5236550000000 1.0
C      1  0.4732760000000  0.5066830000000  0.4372160000000 1.0
C      1  0.4294890000000  0.5518580000000  0.5365310000000 1.0
C      1  0.5807650000000  0.4709850000000  0.5235690000000 1.0
C      1  0.5328710000000  0.4752620000000  0.4259330000000 1.0
C      1  0.5634090000000  0.4692990000000  0.4399710000000 1.0
C      1  0.4570590000000  0.5218950000000  0.5669310000000 1.0
C      1  0.3959060000000  0.4655860000000  0.4481810000000 1.0
C      1  0.4818930000000  0.4060070000000  0.4737500000000 1.0
C      1  0.4839750000000  0.5875420000000  0.5723470000000 1.0
C      1  0.5803680000000  0.5090510000000  0.4707520000000 1.0
C      1  0.4650790000000  0.4826720000000  0.4818880000000 1.0
C      1  0.4520360000000  0.4452910000000  0.5152620000000 1.0
C      1  0.5555010000000  0.5350510000000  0.5757680000000 1.0
C      1  0.4594100000000  0.5621390000000  0.4906200000000 1.0
C      1  0.4570430000000  0.5574240000000  0.5202140000000 1.0
C      1  0.5773080000000  0.4379080000000  0.5170290000000 1.0
C      1  0.4613210000000  0.4305340000000  0.5584970000000 1.0
C      1  0.4134140000000  0.5338200000000  0.5242500000000 1.0
C      1  0.4595200000000  0.5328670000000  0.4361540000000 1.0
C      1  0.4978790000000  0.5038690000000  0.4560860000000 1.0
C      1  0.4749510000000  0.4544220000000  0.5386860000000 1.0
C      1  0.4782110000000  0.5529380000000  0.4310190000000 1.0
C      1  0.4869840000000  0.5314930000000  0.5581500000000 1.0
C      1  0.4055150000000  0.4300160000000  0.5436350000000 1.0
C      1  0.4711470000000  0.4200490000000  0.5186820000000 1.0
C      1  0.4344260000000  0.4317480000000  0.5557950000000 1.0
C      1  0.5286880000000  0.4995060000000  0.4049060000000 1.0
C      1  0.4226640000000  0.5053220000000  0.4398280000000 1.0
C      1  0.5067360000000  0.4313100000000  0.4428900000000 1.0
C      1  0.5392670000000  0.5043090000000  0.5016390000000 1.0
C      1  0.5425820000000  0.4821850000000  0.4635560000000 1.0
C      1  0.4617750000000  0.4416560000000  0.4433330000000 1.0
C      1  0.4991020000000  0.4153460000000  0.4998090000000 1.0
C      1  0.5695610000000  0.5312260000000  0.4598720000000 1.0
C      1  0.5717310000000  0.4407350000000  0.4565500000000 1.0
C      1  0.4549010000000  0.4849580000000  0.4512580000000 1.0
C      1  0.5642430000000  0.4615790000000  0.4790840000000 1.0
C      1  0.4877550000000  0.5767840000000  0.4797360000000 1.0
C      1  0.5273760000000  0.4206170000000  0.4568630000000 1.0
C      1  0.5859580000000  0.5043430000000  0.5276070000000 1.0
C      1  0.5285230000000  0.5321260000000  0.4881370000000 1.0
C      1  0.5290400000000  0.5947260000000  0.5262650000000 1.0
C      1  0.5027120000000  0.4913020000000  0.5756910000000 1.0
C      1  0.4411750000000  0.4488490000000  0.4608600000000 1.0
C      1  0.5664410000000  0.5577630000000  0.4758100000000 1.0
C      1  0.5505310000000  0.4200470000000  0.5057760000000 1.0
C      1  0.4810490000000  0.4222850000000  0.4503090000000 1.0
C      1  0.4273940000000  0.4844270000000  0.5383700000000 1.0
C      1  0.4767660000000  0.4740310000000  0.5665870000000 1.0
C      1  0.5251800000000  0.4271920000000  0.5521210000000 1.0
C      1  0.4631520000000  0.5310510000000  0.4821170000000 1.0
C      1  0.5264180000000  0.5549380000000  0.5285020000000 1.0
C      1  0.5269630000000  0.5029930000000  0.4447090000000 1.0
C      1  0.5744380000000  0.4586210000000  0.5546040000000 1.0
C      1  0.5353340000000  0.4649120000000  0.5299290000000 1.0
C      1  0.4942930000000  0.5263470000000  0.5077790000000 1.0
C      1  0.4661210000000  0.4857280000000  0.5300280000000 1.0
C      1  0.5900490000000  0.4762060000000  0.4911700000000 1.0
C      1  0.5137110000000  0.5111210000000  0.5528870000000 1.0
C      1  0.4513270000000  0.4936260000000  0.5593370000000 1.0
C      1  0.4759520000000  0.6017220000000  0.5418210000000 1.0
C      1  0.5701120000000  0.5025480000000  0.4992160000000 1.0
C      1  0.4815360000000  0.5876870000000  0.5113590000000 1.0
C      1  0.4963080000000  0.5571080000000  0.5128550000000 1.0
C      1  0.5086000000000  0.5792130000000  0.5421750000000 1.0
C      1  0.5397210000000  0.5313940000000  0.4436390000000 1.0
C      1  0.4595850000000  0.5066380000000  0.5055210000000 1.0
C      1  0.4335420000000  0.5727280000000  0.4770360000000 1.0
C      1  0.4813780000000  0.4952510000000  0.4088600000000 1.0
C      1  0.4766730000000  0.5679290000000  0.5455480000000 1.0
C      1  0.5281650000000  0.5543520000000  0.5804430000000 1.0
C      1  0.5263120000000  0.4261130000000  0.4882300000000 1.0
C      1  0.5054660000000  0.4615530000000  0.4406890000000 1.0
C      1  0.4506720000000  0.5499780000000  0.5589090000000 1.0
C      1  0.4709380000000  0.5293640000000  0.5281610000000 1.0
C      1  0.5486880000000  0.4359650000000  0.5340460000000 1.0
C      1  0.5119850000000  0.5485720000000  0.4519190000000 1.0
C      1  0.5157640000000  0.5115330000000  0.5199500000000 1.0
C      1  0.4501300000000  0.4557950000000  0.4875380000000 1.0
C      1  0.5499140000000  0.4647970000000  0.5669900000000 1.0
C      1  0.5192820000000  0.5641370000000  0.4812550000000 1.0
C      1  0.4230240000000  0.4732270000000  0.4488230000000 1.0
C      1  0.4263890000000  0.4549510000000  0.5332060000000 1.0
C      1  0.4804370000000  0.5756110000000  0.4481570000000 1.0
C      1  0.5273910000000  0.4475500000000  0.5723350000000 1.0
C      1  0.5410200000000  0.4909420000000  0.5510870000000 1.0
C      1  0.4270560000000  0.5047800000000  0.5152640000000 1.0
C      1  0.5500090000000  0.5526360000000  0.5041210000000 1.0
C      1  0.5632840000000  0.5142880000000  0.5506960000000 1.0
C      1  0.4994210000000  0.5575000000000  0.5762230000000 1.0
C      1  0.4931660000000  0.4644050000000  0.5032890000000 1.0
C      1  0.5315390000000  0.5382800000000  0.5523750000000 1.0
C      1  0.5045910000000  0.5142380000000  0.4075520000000 1.0
C      1  0.5883900000000  0.4841160000000  0.4570780000000 1.0
C      1  0.5034680000000  0.5398290000000  0.4203450000000 1.0
END
