TITL C-2847952-8118-701 0.00079302053780118 125000 -732.42951085155 0 0 135 (C1) n - 1
REM
REM in /home/bkarasulu/work/CARBON/AIRSS/Generating-Clusters/AIREBO/with-SteepDescent/Only-C1/SD-CG-opt/Try1-1.4A-POS3A/HFTN-CG
REM
REM
REM
REM
REM
REM ./C.cell (11c1c37f851c82e70ff6c80c92926a4b)
REM
REM compiler GCC version 9.2.1 20190827 (Red Hat 9.2.1-1)
REM options -cpp -mtune=generic -march=x86-64 -g -O0 -fpre-include=/usr/include/finclude/math-vector-fortran.h
REM seed -27611167 -1492031898 1114574041 1842678324 2131443560 1318358918 -1919086337 1583123005 -849391282 -2043837594 377297187 -2028750814 -810429358 661734895 -1553046564 -1612569457 -1975591416 1778666248 -175400606 -1410359712 712632484 -202694273 1393093641 1534691472 -350440960 -1645716939 -886102628 1268370826 495357214 -293453027 -1404547270 -815596292 -75226106
REM
CELL 1.54180   50.00000   50.00000   50.00000   90.00000   90.00000   90.00000
LATT -1
SFAC C  
C      1  0.4777600000000  0.5398890000000  0.5091720000000 1.0
C      1  0.5189430000000  0.5755800000000  0.5636690000000 1.0
C      1  0.5105560000000  0.5480550000000  0.5835900000000 1.0
C      1  0.4178370000000  0.4720000000000  0.5569500000000 1.0
C      1  0.5611260000000  0.4857150000000  0.5470370000000 1.0
C      1  0.4421140000000  0.4498230000000  0.5044730000000 1.0
C      1  0.5964460000000  0.5523490000000  0.4994750000000 1.0
C      1  0.4631340000000  0.5851460000000  0.4680860000000 1.0
C      1  0.5490240000000  0.5252450000000  0.4742730000000 1.0
C      1  0.5816930000000  0.5716730000000  0.5119350000000 1.0
C      1  0.5317440000000  0.4972100000000  0.5704780000000 1.0
C      1  0.4257210000000  0.5154480000000  0.4597670000000 1.0
C      1  0.5562820000000  0.5594690000000  0.4529010000000 1.0
C      1  0.4211060000000  0.4407120000000  0.4825770000000 1.0
C      1  0.4815320000000  0.4537340000000  0.4327480000000 1.0
C      1  0.4089270000000  0.5201510000000  0.5478290000000 1.0
C      1  0.5146990000000  0.5537880000000  0.5048230000000 1.0
C      1  0.5332050000000  0.5522430000000  0.4769090000000 1.0
C      1  0.4990980000000  0.5906930000000  0.5405480000000 1.0
C      1  0.4684640000000  0.4393440000000  0.4593290000000 1.0
C      1  0.5165530000000  0.4581230000000  0.3978760000000 1.0
C      1  0.5479160000000  0.4959840000000  0.4573490000000 1.0
C      1  0.5020920000000  0.5840500000000  0.5073330000000 1.0
C      1  0.5565790000000  0.4794350000000  0.4924490000000 1.0
C      1  0.6005660000000  0.4814790000000  0.4882030000000 1.0
C      1  0.4612100000000  0.5177380000000  0.4138560000000 1.0
C      1  0.4552050000000  0.4651540000000  0.4770640000000 1.0
C      1  0.4779140000000  0.4978170000000  0.5649100000000 1.0
C      1  0.4487740000000  0.4147940000000  0.4571410000000 1.0
C      1  0.5141930000000  0.4532550000000  0.4975120000000 1.0
C      1  0.5824430000000  0.4643380000000  0.4438280000000 1.0
C      1  0.4136790000000  0.4906640000000  0.4441470000000 1.0
C      1  0.4591800000000  0.4240760000000  0.5486370000000 1.0
C      1  0.5497680000000  0.5694560000000  0.5535560000000 1.0
C      1  0.5221500000000  0.5781020000000  0.4577920000000 1.0
C      1  0.4334600000000  0.4670370000000  0.4351470000000 1.0
C      1  0.5636580000000  0.4654060000000  0.4234970000000 1.0
C      1  0.4370450000000  0.5137530000000  0.5335240000000 1.0
C      1  0.5102490000000  0.4894600000000  0.3956720000000 1.0
C      1  0.5084370000000  0.4024910000000  0.5129970000000 1.0
C      1  0.5410220000000  0.5434660000000  0.5719970000000 1.0
C      1  0.4185630000000  0.5483860000000  0.4552410000000 1.0
C      1  0.4995510000000  0.5461640000000  0.4244370000000 1.0
C      1  0.4459170000000  0.5406970000000  0.4070650000000 1.0
C      1  0.4236110000000  0.4955100000000  0.5081560000000 1.0
C      1  0.4252300000000  0.4167820000000  0.4708420000000 1.0
C      1  0.4715150000000  0.5853720000000  0.4967730000000 1.0
C      1  0.6041240000000  0.4475830000000  0.4444410000000 1.0
C      1  0.5101740000000  0.4218530000000  0.4850850000000 1.0
C      1  0.4631760000000  0.4501830000000  0.5683770000000 1.0
C      1  0.4798170000000  0.4131230000000  0.4976990000000 1.0
C      1  0.5023160000000  0.5267050000000  0.6022660000000 1.0
C      1  0.4952410000000  0.4401330000000  0.5225120000000 1.0
C      1  0.4555390000000  0.4721510000000  0.5439300000000 1.0
C      1  0.4571380000000  0.4688780000000  0.4223460000000 1.0
C      1  0.5720090000000  0.5094180000000  0.4879360000000 1.0
C      1  0.5608430000000  0.4462630000000  0.4900400000000 1.0
C      1  0.5437010000000  0.4267300000000  0.4821190000000 1.0
C      1  0.4558310000000  0.5642240000000  0.4201340000000 1.0
C      1  0.4785880000000  0.5246580000000  0.4403820000000 1.0
C      1  0.4122970000000  0.4411570000000  0.5613690000000 1.0
C      1  0.4802340000000  0.4780110000000  0.5268960000000 1.0
C      1  0.4979760000000  0.5335040000000  0.4653470000000 1.0
C      1  0.4618570000000  0.5586070000000  0.5641180000000 1.0
C      1  0.4838400000000  0.5664640000000  0.4138060000000 1.0
C      1  0.5291020000000  0.4725680000000  0.4736270000000 1.0
C      1  0.4537720000000  0.5327610000000  0.4621920000000 1.0
C      1  0.4540080000000  0.5289200000000  0.5587890000000 1.0
C      1  0.5045880000000  0.4199770000000  0.4311650000000 1.0
C      1  0.4933860000000  0.5548540000000  0.5572030000000 1.0
C      1  0.4448320000000  0.4785030000000  0.5755700000000 1.0
C      1  0.5522160000000  0.5653480000000  0.5217390000000 1.0
C      1  0.5205180000000  0.4973720000000  0.4272790000000 1.0
C      1  0.4172010000000  0.4637180000000  0.4647520000000 1.0
C      1  0.4515380000000  0.5297080000000  0.4939630000000 1.0
C      1  0.5120170000000  0.4760470000000  0.5886560000000 1.0
C      1  0.5279420000000  0.5214290000000  0.5496690000000 1.0
C      1  0.5050000000000  0.4665380000000  0.4533840000000 1.0
C      1  0.4020040000000  0.5192660000000  0.5086900000000 1.0
C      1  0.4792890000000  0.4890520000000  0.4746220000000 1.0
C      1  0.5268770000000  0.5517230000000  0.4376670000000 1.0
C      1  0.4785340000000  0.5154930000000  0.5405230000000 1.0
C      1  0.5188640000000  0.5046840000000  0.6006030000000 1.0
C      1  0.6234880000000  0.4300590000000  0.4466350000000 1.0
C      1  0.5379660000000  0.4706920000000  0.4161790000000 1.0
C      1  0.5422900000000  0.4653800000000  0.5648120000000 1.0
C      1  0.4673670000000  0.5809190000000  0.5423700000000 1.0
C      1  0.5183730000000  0.5154920000000  0.4813290000000 1.0
C      1  0.4887140000000  0.4707010000000  0.5694800000000 1.0
C      1  0.5649830000000  0.5235640000000  0.4153220000000 1.0
C      1  0.3990920000000  0.4976490000000  0.5594710000000 1.0
C      1  0.5441240000000  0.5319170000000  0.5220640000000 1.0
C      1  0.5073800000000  0.4646620000000  0.5424410000000 1.0
C      1  0.4929790000000  0.5852270000000  0.4631100000000 1.0
C      1  0.4562810000000  0.5086030000000  0.5857660000000 1.0
C      1  0.5358950000000  0.5874950000000  0.5045010000000 1.0
C      1  0.5371520000000  0.5036100000000  0.5064190000000 1.0
C      1  0.5416270000000  0.5211240000000  0.4352760000000 1.0
C      1  0.4610730000000  0.4911880000000  0.4062300000000 1.0
C      1  0.5918930000000  0.4753870000000  0.5146060000000 1.0
C      1  0.4371950000000  0.5537360000000  0.5123840000000 1.0
C      1  0.5969980000000  0.5103080000000  0.4448900000000 1.0
C      1  0.5226260000000  0.6103780000000  0.5258760000000 1.0
C      1  0.5366470000000  0.4448230000000  0.5216140000000 1.0
C      1  0.4993980000000  0.4403600000000  0.4103770000000 1.0
C      1  0.4925010000000  0.4959830000000  0.4461040000000 1.0
C      1  0.4915290000000  0.5110660000000  0.4975170000000 1.0
C      1  0.4892360000000  0.4123030000000  0.5394750000000 1.0
C      1  0.5556700000000  0.4146080000000  0.5429880000000 1.0
C      1  0.4882330000000  0.4713460000000  0.4985090000000 1.0
C      1  0.5865840000000  0.5206260000000  0.5325300000000 1.0
C      1  0.4623370000000  0.5034900000000  0.5132160000000 1.0
C      1  0.4941330000000  0.5582820000000  0.4780670000000 1.0
C      1  0.4978080000000  0.4261190000000  0.4566000000000 1.0
C      1  0.4289760000000  0.4225930000000  0.5582870000000 1.0
C      1  0.4300330000000  0.4702570000000  0.5252290000000 1.0
C      1  0.4755680000000  0.5221570000000  0.6072760000000 1.0
C      1  0.5031580000000  0.5360360000000  0.5314570000000 1.0
C      1  0.5357600000000  0.4110760000000  0.5220040000000 1.0
C      1  0.4628640000000  0.4317710000000  0.5166250000000 1.0
C      1  0.5215230000000  0.4414750000000  0.5629040000000 1.0
C      1  0.5504910000000  0.5862680000000  0.4738030000000 1.0
C      1  0.5085990000000  0.4174600000000  0.5641710000000 1.0
C      1  0.5643720000000  0.5378420000000  0.5479250000000 1.0
C      1  0.5617540000000  0.4460810000000  0.5445220000000 1.0
C      1  0.4316860000000  0.4898240000000  0.4795720000000 1.0
C      1  0.5349240000000  0.4782310000000  0.5277170000000 1.0
C      1  0.4482940000000  0.5643680000000  0.4508010000000 1.0
C      1  0.4494880000000  0.5697750000000  0.5893780000000 1.0
C      1  0.5818560000000  0.4906710000000  0.4613300000000 1.0
C      1  0.5753210000000  0.4527010000000  0.5155510000000 1.0
C      1  0.4126610000000  0.5436930000000  0.5235810000000 1.0
C      1  0.5893850000000  0.5261640000000  0.5054260000000 1.0
C      1  0.5849830000000  0.4932020000000  0.5362960000000 1.0
C      1  0.4544570000000  0.5763920000000  0.5175220000000 1.0
END
