TITL C-2847953-8112-30 0.000886405995133439 125000 -523.193007170307 0 0 99 (C1) n - 1
REM
REM in /home/bkarasulu/work/CARBON/AIRSS/Generating-Clusters/AIREBO/with-SteepDescent/Only-C1/SD-CG-opt/Try1-1.4A-POS3A/HFTN-CG
REM
REM
REM
REM
REM
REM ./C.cell (11c1c37f851c82e70ff6c80c92926a4b)
REM
REM compiler GCC version 9.2.1 20190827 (Red Hat 9.2.1-1)
REM options -cpp -mtune=generic -march=x86-64 -g -O0 -fpre-include=/usr/include/finclude/math-vector-fortran.h
REM seed 1329625057 -682944393 -2102866664 -1288285231 822155453 747589020 607789999 -1375034816 -1896187297 -847355019 2026037911 1768011459 -801519734 1997623669 -1299942597 -546414931 -1583965471 1618483369 -1354725378 1234928510 2003858987 -594527885 -1936765640 -585979548 1604426983 -323867983 -1959448202 -2053261121 1265503847 -1921387388 -1775950376 -930013016 -2102133135
REM
CELL 1.54180   50.00000   50.00000   50.00000   90.00000   90.00000   90.00000
LATT -1
SFAC C  
C      1  0.5169020000000  0.4548260000000  0.4412750000000 1.0
C      1  0.5003010000000  0.5646210000000  0.4735140000000 1.0
C      1  0.5365540000000  0.4532390000000  0.5490720000000 1.0
C      1  0.5314860000000  0.4029630000000  0.4820050000000 1.0
C      1  0.4821830000000  0.5825140000000  0.4915180000000 1.0
C      1  0.4590320000000  0.5156760000000  0.5608890000000 1.0
C      1  0.4224530000000  0.5378430000000  0.5265470000000 1.0
C      1  0.4659520000000  0.4895600000000  0.4138820000000 1.0
C      1  0.5083630000000  0.5218740000000  0.5332820000000 1.0
C      1  0.5021540000000  0.4894300000000  0.5733030000000 1.0
C      1  0.5473770000000  0.4293020000000  0.4824430000000 1.0
C      1  0.5767720000000  0.4525610000000  0.5250540000000 1.0
C      1  0.4431180000000  0.4774580000000  0.4253370000000 1.0
C      1  0.4631180000000  0.4620250000000  0.4784160000000 1.0
C      1  0.4826850000000  0.4949120000000  0.4569650000000 1.0
C      1  0.5299680000000  0.5465210000000  0.4543900000000 1.0
C      1  0.4515340000000  0.5763330000000  0.4893630000000 1.0
C      1  0.4953540000000  0.4528050000000  0.4748130000000 1.0
C      1  0.5183110000000  0.4298570000000  0.5429280000000 1.0
C      1  0.5000750000000  0.5505960000000  0.5424310000000 1.0
C      1  0.4549620000000  0.5309380000000  0.5309360000000 1.0
C      1  0.5771700000000  0.4961560000000  0.5471830000000 1.0
C      1  0.4766420000000  0.5636650000000  0.4244790000000 1.0
C      1  0.4612390000000  0.5046040000000  0.5919150000000 1.0
C      1  0.5212390000000  0.4856060000000  0.4550700000000 1.0
C      1  0.4838180000000  0.4487360000000  0.5727850000000 1.0
C      1  0.5013750000000  0.4635580000000  0.5222310000000 1.0
C      1  0.4738550000000  0.4438000000000  0.5251380000000 1.0
C      1  0.5674820000000  0.5057510000000  0.5097650000000 1.0
C      1  0.4421950000000  0.5391170000000  0.5003170000000 1.0
C      1  0.4403920000000  0.4584130000000  0.5362550000000 1.0
C      1  0.5339270000000  0.5817060000000  0.5432220000000 1.0
C      1  0.4912360000000  0.5335120000000  0.4624820000000 1.0
C      1  0.5334130000000  0.5617740000000  0.4828480000000 1.0
C      1  0.4168500000000  0.4629810000000  0.5052100000000 1.0
C      1  0.4808160000000  0.5747540000000  0.5553440000000 1.0
C      1  0.4643460000000  0.4928800000000  0.5375380000000 1.0
C      1  0.5989440000000  0.4800100000000  0.3968300000000 1.0
C      1  0.4487800000000  0.4513560000000  0.5040640000000 1.0
C      1  0.4458070000000  0.5274260000000  0.4321670000000 1.0
C      1  0.5729580000000  0.4999390000000  0.4394910000000 1.0
C      1  0.5436060000000  0.4961510000000  0.4998690000000 1.0
C      1  0.4309370000000  0.5768450000000  0.4619580000000 1.0
C      1  0.5264990000000  0.4496270000000  0.5096790000000 1.0
C      1  0.5210250000000  0.4271410000000  0.4271410000000 1.0
C      1  0.5159470000000  0.4225240000000  0.4589200000000 1.0
C      1  0.5445530000000  0.5582960000000  0.5552360000000 1.0
C      1  0.4867750000000  0.4700380000000  0.4113400000000 1.0
C      1  0.4750450000000  0.5147600000000  0.4303620000000 1.0
C      1  0.5465600000000  0.5073350000000  0.5569120000000 1.0
C      1  0.3929180000000  0.4577660000000  0.4982360000000 1.0
C      1  0.3930730000000  0.4995020000000  0.5417920000000 1.0
C      1  0.4735460000000  0.4200390000000  0.5030150000000 1.0
C      1  0.5098300000000  0.5559850000000  0.5042960000000 1.0
C      1  0.5156060000000  0.5185070000000  0.5655680000000 1.0
C      1  0.5172170000000  0.5152700000000  0.4502910000000 1.0
C      1  0.4517630000000  0.4551410000000  0.4484110000000 1.0
C      1  0.4735340000000  0.5717240000000  0.5223440000000 1.0
C      1  0.5313620000000  0.4809640000000  0.5420710000000 1.0
C      1  0.4912500000000  0.4338390000000  0.5489610000000 1.0
C      1  0.4839510000000  0.4878220000000  0.5962990000000 1.0
C      1  0.5728840000000  0.4863880000000  0.4645770000000 1.0
C      1  0.4985450000000  0.4234020000000  0.4881250000000 1.0
C      1  0.5575520000000  0.5236600000000  0.4380220000000 1.0
C      1  0.4794420000000  0.4594190000000  0.5982540000000 1.0
C      1  0.5070090000000  0.5796200000000  0.5261360000000 1.0
C      1  0.5865710000000  0.4810580000000  0.5184910000000 1.0
C      1  0.4407940000000  0.5666700000000  0.5201950000000 1.0
C      1  0.5661710000000  0.5330630000000  0.5157080000000 1.0
C      1  0.4494670000000  0.4922520000000  0.4864140000000 1.0
C      1  0.5873810000000  0.4903970000000  0.4179310000000 1.0
C      1  0.5278160000000  0.5333770000000  0.4234680000000 1.0
C      1  0.5912790000000  0.4851720000000  0.4850990000000 1.0
C      1  0.5603780000000  0.4412620000000  0.5064680000000 1.0
C      1  0.4978760000000  0.5271300000000  0.4952140000000 1.0
C      1  0.4803800000000  0.5144430000000  0.5191220000000 1.0
C      1  0.4947880000000  0.5407830000000  0.4294450000000 1.0
C      1  0.5044860000000  0.4961650000000  0.4828240000000 1.0
C      1  0.5228230000000  0.4172810000000  0.5116400000000 1.0
C      1  0.4149000000000  0.5079050000000  0.5301880000000 1.0
C      1  0.5454760000000  0.4808420000000  0.4748450000000 1.0
C      1  0.4372930000000  0.4870850000000  0.5177640000000 1.0
C      1  0.4355410000000  0.4841230000000  0.4578070000000 1.0
C      1  0.4613960000000  0.5180490000000  0.4677030000000 1.0
C      1  0.5297720000000  0.5468990000000  0.5771200000000 1.0
C      1  0.5152050000000  0.4937750000000  0.5150200000000 1.0
C      1  0.4860210000000  0.4734900000000  0.5489000000000 1.0
C      1  0.5542950000000  0.5040390000000  0.5867740000000 1.0
C      1  0.4817290000000  0.5571260000000  0.5787130000000 1.0
C      1  0.4849220000000  0.5307330000000  0.5736510000000 1.0
C      1  0.5615660000000  0.5489970000000  0.4930310000000 1.0
C      1  0.5624410000000  0.5434970000000  0.4626100000000 1.0
C      1  0.5554770000000  0.5364680000000  0.5413630000000 1.0
C      1  0.5287060000000  0.4549470000000  0.4790990000000 1.0
C      1  0.4483140000000  0.5486870000000  0.4698180000000 1.0
C      1  0.5649160000000  0.4485180000000  0.5504870000000 1.0
C      1  0.4494120000000  0.5574100000000  0.4369640000000 1.0
C      1  0.4262370000000  0.5101680000000  0.4407330000000 1.0
C      1  0.4846050000000  0.4648320000000  0.4448770000000 1.0
END
