TITL C-2848507-1641-107 0.00374392189584089 125000 -919.108186457085 0 0 168 (C1) n - 1
REM
REM in /home/bkarasulu/work/CARBON/AIRSS/Generating-Clusters/AIREBO/with-SteepDescent/Only-C1/SD-CG-opt/Try1-1.4A-POS3A/HFTN-CG
REM
REM
REM
REM
REM
REM ./C.cell (11c1c37f851c82e70ff6c80c92926a4b)
REM
REM compiler GCC version 9.2.1 20190827 (Red Hat 9.2.1-1)
REM options -cpp -mtune=generic -march=x86-64 -g -O0 -fpre-include=/usr/include/finclude/math-vector-fortran.h
REM seed -607638845 -1072093699 -2085015590 -395410383 912055010 700405389 1734892472 -2017422870 -1388914873 -839148847 -286050024 1241188757 2019066140 457709346 -2045768907 1180703520 -1881745579 -579956373 -678319215 1464030968 789807490 1752258227 -738540896 -777913789 394064037 493312789 -476352152 -1242898281 -2064282 -365286549 -1544931012 -165186758 771499991
REM
CELL 1.54180   50.00000   50.00000   50.00000   90.00000   90.00000   90.00000
LATT -1
SFAC C  
C      1  0.4761970000000  0.5398170000000  0.5123590000000 1.0
C      1  0.5823610000000  0.4546010000000  0.4997390000000 1.0
C      1  0.5633690000000  0.5053070000000  0.5808260000000 1.0
C      1  0.6051700000000  0.5087220000000  0.4575170000000 1.0
C      1  0.4473470000000  0.4815230000000  0.4294380000000 1.0
C      1  0.4408270000000  0.4583000000000  0.4772300000000 1.0
C      1  0.5818640000000  0.4724770000000  0.5370340000000 1.0
C      1  0.4465370000000  0.5876010000000  0.4562250000000 1.0
C      1  0.5695900000000  0.4244770000000  0.5090110000000 1.0
C      1  0.5656270000000  0.5182850000000  0.5040980000000 1.0
C      1  0.4662360000000  0.4508840000000  0.4986090000000 1.0
C      1  0.4920720000000  0.4210070000000  0.5458490000000 1.0
C      1  0.4776230000000  0.5149220000000  0.4306560000000 1.0
C      1  0.5467600000000  0.4352640000000  0.5486140000000 1.0
C      1  0.4859490000000  0.4454910000000  0.5656830000000 1.0
C      1  0.4316360000000  0.5080270000000  0.4221100000000 1.0
C      1  0.4545120000000  0.4081650000000  0.4967940000000 1.0
C      1  0.5779720000000  0.4562380000000  0.5666610000000 1.0
C      1  0.5627750000000  0.5735600000000  0.5193520000000 1.0
C      1  0.5547020000000  0.4940050000000  0.4828170000000 1.0
C      1  0.4817260000000  0.4186020000000  0.4268130000000 1.0
C      1  0.6096350000000  0.4502820000000  0.5192140000000 1.0
C      1  0.5023720000000  0.4783000000000  0.4040240000000 1.0
C      1  0.4754910000000  0.5311660000000  0.4027770000000 1.0
C      1  0.4155840000000  0.4420450000000  0.5127680000000 1.0
C      1  0.5220750000000  0.4629410000000  0.6035060000000 1.0
C      1  0.5089320000000  0.5441170000000  0.5750670000000 1.0
C      1  0.4450150000000  0.4083910000000  0.5271950000000 1.0
C      1  0.5628090000000  0.5548710000000  0.5724650000000 1.0
C      1  0.4055710000000  0.5243610000000  0.5519010000000 1.0
C      1  0.4771110000000  0.4910610000000  0.4542750000000 1.0
C      1  0.4666490000000  0.5384890000000  0.4500950000000 1.0
C      1  0.4899310000000  0.5221140000000  0.6059700000000 1.0
C      1  0.4793090000000  0.4839250000000  0.5579570000000 1.0
C      1  0.5346770000000  0.4888830000000  0.4034260000000 1.0
C      1  0.5383720000000  0.4392820000000  0.4837340000000 1.0
C      1  0.4705260000000  0.5583510000000  0.4225890000000 1.0
C      1  0.4532900000000  0.5998640000000  0.5178810000000 1.0
C      1  0.3992790000000  0.5064820000000  0.5730070000000 1.0
C      1  0.5683230000000  0.5421060000000  0.4629650000000 1.0
C      1  0.5053240000000  0.4659500000000  0.5086560000000 1.0
C      1  0.5011220000000  0.5605270000000  0.4099760000000 1.0
C      1  0.5704020000000  0.5580790000000  0.5413650000000 1.0
C      1  0.4731340000000  0.4943040000000  0.5959380000000 1.0
C      1  0.4405930000000  0.4245890000000  0.4726400000000 1.0
C      1  0.4024080000000  0.5002300000000  0.4340370000000 1.0
C      1  0.4289070000000  0.5900500000000  0.5080410000000 1.0
C      1  0.5310190000000  0.4876150000000  0.5138350000000 1.0
C      1  0.5532980000000  0.5319200000000  0.5918010000000 1.0
C      1  0.4771050000000  0.5497720000000  0.5437010000000 1.0
C      1  0.5223500000000  0.3962690000000  0.4960040000000 1.0
C      1  0.4636310000000  0.5816770000000  0.5396340000000 1.0
C      1  0.4985520000000  0.3956490000000  0.4717270000000 1.0
C      1  0.5258840000000  0.4945300000000  0.6081980000000 1.0
C      1  0.5110430000000  0.4666960000000  0.4751480000000 1.0
C      1  0.5792850000000  0.4784080000000  0.4261660000000 1.0
C      1  0.4137980000000  0.4830650000000  0.5684560000000 1.0
C      1  0.4423710000000  0.5387780000000  0.5158700000000 1.0
C      1  0.5831000000000  0.5112400000000  0.5559600000000 1.0
C      1  0.5214350000000  0.5628050000000  0.5423620000000 1.0
C      1  0.5094770000000  0.5326090000000  0.4003230000000 1.0
C      1  0.5206170000000  0.4354940000000  0.4232230000000 1.0
C      1  0.4379660000000  0.5204260000000  0.4531350000000 1.0
C      1  0.4155060000000  0.4674890000000  0.4979830000000 1.0
C      1  0.5590350000000  0.4434510000000  0.4570410000000 1.0
C      1  0.4065300000000  0.4950990000000  0.4833690000000 1.0
C      1  0.4744600000000  0.5287700000000  0.4802490000000 1.0
C      1  0.5760280000000  0.5771750000000  0.4943550000000 1.0
C      1  0.5898820000000  0.5538820000000  0.4830230000000 1.0
C      1  0.4341210000000  0.5541060000000  0.4856570000000 1.0
C      1  0.5386490000000  0.5155840000000  0.5413300000000 1.0
C      1  0.5215160000000  0.5765330000000  0.4189170000000 1.0
C      1  0.5073570000000  0.4461320000000  0.4025910000000 1.0
C      1  0.5372380000000  0.5420840000000  0.5568390000000 1.0
C      1  0.4549410000000  0.4170980000000  0.4478490000000 1.0
C      1  0.5742590000000  0.4411410000000  0.5363620000000 1.0
C      1  0.4667790000000  0.4628120000000  0.5959600000000 1.0
C      1  0.5459890000000  0.4446260000000  0.4265070000000 1.0
C      1  0.4654600000000  0.4839880000000  0.5063490000000 1.0
C      1  0.5340680000000  0.4282720000000  0.5739540000000 1.0
C      1  0.4171130000000  0.4593740000000  0.4528740000000 1.0
C      1  0.4167580000000  0.4209820000000  0.4953470000000 1.0
C      1  0.4863430000000  0.4624730000000  0.5362060000000 1.0
C      1  0.4887690000000  0.5082330000000  0.5113520000000 1.0
C      1  0.5959000000000  0.4700200000000  0.4764640000000 1.0
C      1  0.5317120000000  0.5198790000000  0.5023010000000 1.0
C      1  0.6073280000000  0.4968900000000  0.4893400000000 1.0
C      1  0.4904280000000  0.4845740000000  0.3779780000000 1.0
C      1  0.4021290000000  0.4833260000000  0.4555910000000 1.0
C      1  0.5039740000000  0.4132960000000  0.5196880000000 1.0
C      1  0.4899360000000  0.4425510000000  0.4756850000000 1.0
C      1  0.5235760000000  0.5045550000000  0.4754900000000 1.0
C      1  0.5080790000000  0.5902360000000  0.4643550000000 1.0
C      1  0.4404940000000  0.4269620000000  0.5553340000000 1.0
C      1  0.5341060000000  0.4887160000000  0.5757120000000 1.0
C      1  0.5341010000000  0.5180770000000  0.4056830000000 1.0
C      1  0.4875270000000  0.5228950000000  0.5593240000000 1.0
C      1  0.4314400000000  0.5811340000000  0.4807100000000 1.0
C      1  0.5684520000000  0.5284340000000  0.5352550000000 1.0
C      1  0.4296650000000  0.4542870000000  0.4262830000000 1.0
C      1  0.5474490000000  0.4577520000000  0.5815660000000 1.0
C      1  0.5340820000000  0.5875170000000  0.4485400000000 1.0
C      1  0.4919730000000  0.5662820000000  0.4979770000000 1.0
C      1  0.4437840000000  0.5691180000000  0.4354510000000 1.0
C      1  0.5012100000000  0.4972570000000  0.5769910000000 1.0
C      1  0.4464510000000  0.4885630000000  0.4626890000000 1.0
C      1  0.4360260000000  0.5278920000000  0.5474630000000 1.0
C      1  0.4711140000000  0.5824230000000  0.4764360000000 1.0
C      1  0.5048050000000  0.4277440000000  0.4489190000000 1.0
C      1  0.4605430000000  0.4439390000000  0.4277440000000 1.0
C      1  0.4976460000000  0.4546500000000  0.5947720000000 1.0
C      1  0.5590730000000  0.4899970000000  0.5321540000000 1.0
C      1  0.4727300000000  0.6053880000000  0.4983130000000 1.0
C      1  0.5221210000000  0.5513850000000  0.4928300000000 1.0
C      1  0.4587410000000  0.5056820000000  0.5512720000000 1.0
C      1  0.5022860000000  0.6039080000000  0.4891850000000 1.0
C      1  0.5325170000000  0.5732120000000  0.5167410000000 1.0
C      1  0.4480910000000  0.5450820000000  0.5729040000000 1.0
C      1  0.5409240000000  0.4719760000000  0.4608830000000 1.0
C      1  0.5069410000000  0.5101100000000  0.5360850000000 1.0
C      1  0.4251900000000  0.5490770000000  0.4400090000000 1.0
C      1  0.4322100000000  0.4454540000000  0.5341960000000 1.0
C      1  0.5554700000000  0.4944060000000  0.4430580000000 1.0
C      1  0.5810740000000  0.4786500000000  0.5871130000000 1.0
C      1  0.4100500000000  0.4928020000000  0.5173890000000 1.0
C      1  0.4681300000000  0.4303240000000  0.5256810000000 1.0
C      1  0.5208420000000  0.4804950000000  0.5454990000000 1.0
C      1  0.5753320000000  0.4220040000000  0.4778090000000 1.0
C      1  0.4449280000000  0.5222860000000  0.3978810000000 1.0
C      1  0.4229220000000  0.5235130000000  0.4834900000000 1.0
C      1  0.6072750000000  0.5015240000000  0.5472340000000 1.0
C      1  0.4513600000000  0.5114650000000  0.4977160000000 1.0
C      1  0.5272430000000  0.4132330000000  0.4668550000000 1.0
C      1  0.5790680000000  0.5171360000000  0.4478780000000 1.0
C      1  0.4558660000000  0.4399330000000  0.5750630000000 1.0
C      1  0.5109380000000  0.4149030000000  0.5715940000000 1.0
C      1  0.5107000000000  0.6002420000000  0.5418650000000 1.0
C      1  0.4307370000000  0.4886020000000  0.5422660000000 1.0
C      1  0.5849720000000  0.4636200000000  0.4517020000000 1.0
C      1  0.6085990000000  0.4842630000000  0.5196240000000 1.0
C      1  0.4036340000000  0.5386170000000  0.5070910000000 1.0
C      1  0.5035110000000  0.5379450000000  0.4677470000000 1.0
C      1  0.4796310000000  0.3933290000000  0.4492530000000 1.0
C      1  0.4909530000000  0.5819020000000  0.5250000000000 1.0
C      1  0.3959610000000  0.5185490000000  0.5259740000000 1.0
C      1  0.5357860000000  0.4228850000000  0.5124140000000 1.0
C      1  0.4204200000000  0.5636630000000  0.5233450000000 1.0
C      1  0.4784080000000  0.4712990000000  0.4268170000000 1.0
C      1  0.5212040000000  0.6027320000000  0.5104480000000 1.0
C      1  0.4944930000000  0.4942730000000  0.4808820000000 1.0
C      1  0.5277490000000  0.4512020000000  0.5294820000000 1.0
C      1  0.5212670000000  0.5184030000000  0.4483460000000 1.0
C      1  0.4259000000000  0.5651300000000  0.5565020000000 1.0
C      1  0.5517190000000  0.4652900000000  0.4986490000000 1.0
C      1  0.5050490000000  0.5022450000000  0.4280280000000 1.0
C      1  0.5220180000000  0.5276860000000  0.6014890000000 1.0
C      1  0.4679260000000  0.5702020000000  0.5692860000000 1.0
C      1  0.4598360000000  0.5255910000000  0.5930290000000 1.0
C      1  0.5917930000000  0.5255430000000  0.4910230000000 1.0
C      1  0.4886660000000  0.5634970000000  0.4578650000000 1.0
C      1  0.5467140000000  0.5613820000000  0.4306770000000 1.0
C      1  0.5582100000000  0.5898210000000  0.4713580000000 1.0
C      1  0.5535900000000  0.4689360000000  0.4124660000000 1.0
C      1  0.5500180000000  0.5281340000000  0.4340040000000 1.0
C      1  0.4852660000000  0.4141250000000  0.4935850000000 1.0
C      1  0.5468700000000  0.5595600000000  0.4735480000000 1.0
C      1  0.4531320000000  0.4685750000000  0.5319570000000 1.0
C      1  0.5005880000000  0.5755550000000  0.5631470000000 1.0
END
