TITL C-2847955-7945-581 -0.000150644235576552 125000 -110.739234696202 0 0 21 (C1) n - 1
REM
REM in /home/bkarasulu/work/CARBON/AIRSS/Generating-Clusters/AIREBO/with-SteepDescent/Only-C1/SD-CG-opt/Try1-1.4A-POS3A/HFTN-CG
REM
REM
REM
REM
REM
REM ./C.cell (11c1c37f851c82e70ff6c80c92926a4b)
REM
REM compiler GCC version 9.2.1 20190827 (Red Hat 9.2.1-1)
REM options -cpp -mtune=generic -march=x86-64 -g -O0 -fpre-include=/usr/include/finclude/math-vector-fortran.h
REM seed -403820886 1979588633 -1080818027 1302016046 -1523625143 1555797799 1951891695 -1568455774 624716206 1518281030 280934546 -285345669 1753884873 -2079252302 1490730598 6258983 -997774972 1065792206 1625598810 1556281938 1249639144 1618865329 -613302400 -2117929207 1186062066 757552317 1670620967 -544994214 -1756415359 2135924217 -1507896114 -2023905095 1473470676
REM
CELL 1.54180   50.00000   50.00000   50.00000   90.00000   90.00000   90.00000
LATT -1
SFAC C  
C      1  0.4963720000000  0.4741030000000  0.4644050000000 1.0
C      1  0.5452900000000  0.5132250000000  0.5122030000000 1.0
C      1  0.4594350000000  0.4661650000000  0.5016310000000 1.0
C      1  0.5226780000000  0.5399270000000  0.4762540000000 1.0
C      1  0.5314820000000  0.5402860000000  0.5013990000000 1.0
C      1  0.4810500000000  0.4565980000000  0.4789930000000 1.0
C      1  0.5292870000000  0.5013480000000  0.5468110000000 1.0
C      1  0.4630610000000  0.4349670000000  0.4949240000000 1.0
C      1  0.5278460000000  0.4789370000000  0.5337550000000 1.0
C      1  0.4968950000000  0.5415050000000  0.5409400000000 1.0
C      1  0.5691230000000  0.4973780000000  0.4938430000000 1.0
C      1  0.4232790000000  0.5010120000000  0.5292160000000 1.0
C      1  0.5179330000000  0.4908600000000  0.4743610000000 1.0
C      1  0.4867120000000  0.4870820000000  0.4401780000000 1.0
C      1  0.4484760000000  0.4856040000000  0.5158770000000 1.0
C      1  0.4734590000000  0.5282910000000  0.5400600000000 1.0
C      1  0.5385870000000  0.4877190000000  0.4923770000000 1.0
C      1  0.5150520000000  0.5174260000000  0.4613220000000 1.0
C      1  0.5238190000000  0.5299080000000  0.5327090000000 1.0
C      1  0.4525980000000  0.5144180000000  0.5300540000000 1.0
C      1  0.4975670000000  0.5132410000000  0.4386850000000 1.0
END
