TITL C-2848498-1409-472 4828.93803166143 125000 -911.995721159075 0 0 171 (C1) n - 1
REM
REM in /home/bkarasulu/work/CARBON/AIRSS/Generating-Clusters/AIREBO/with-SteepDescent/Only-C1/SD-CG-opt/Try1-1.4A-POS3A/HFTN-CG
REM
REM
REM
REM
REM
REM ./C.cell (11c1c37f851c82e70ff6c80c92926a4b)
REM
REM compiler GCC version 9.2.1 20190827 (Red Hat 9.2.1-1)
REM options -cpp -mtune=generic -march=x86-64 -g -O0 -fpre-include=/usr/include/finclude/math-vector-fortran.h
REM seed -1826260423 -949453259 -491842632 557625225 1173185215 1323209971 969163174 -1964425158 -817186107 -68885415 -1591149271 1254515389 -1116098237 -1793753874 -1691455894 1019594007 1970569486 -606274233 1934464427 -1239823620 -654812174 2131918988 924404491 -1254886487 -734882808 -1138522081 -133611325 -21707323 -1914325985 -1197062748 -1283123833 1391161710 -1135488912
REM
CELL 1.54180   50.00000   50.00000   50.00000   90.00000   90.00000   90.00000
LATT -1
SFAC C  
C      1  0.5708760000000  0.5095770000000  0.4247580000000 1.0
C      1  0.5272250000000  0.4525460000000  0.5010970000000 1.0
C      1  0.5652020000000  0.4840970000000  0.5431350000000 1.0
C      1  0.3989200000000  0.5160340000000  0.4544420000000 1.0
C      1  0.4924680000000  0.6030670000000  0.5061050000000 1.0
C      1  0.5875090000000  0.5448170000000  0.4664420000000 1.0
C      1  0.4672250000000  0.5967780000000  0.4759140000000 1.0
C      1  0.4864400000000  0.5351920000000  0.4861530000000 1.0
C      1  0.5376970000000  0.4674350000000  0.4208850000000 1.0
C      1  0.4967020000000  0.4617960000000  0.4694060000000 1.0
C      1  0.5282710000000  0.5737930000000  0.4123000000000 1.0
C      1  0.4779770000000  0.4630200000000  0.5474560000000 1.0
C      1  0.4048670000000  0.5190390000000  0.5366950000000 1.0
C      1  0.4485750000000  0.5041890000000  0.3991920000000 1.0
C      1  0.4932560000000  0.4818730000000  0.6004290000000 1.0
C      1  0.4764190000000  0.4499080000000  0.4185760000000 1.0
C      1  0.5389910000000  0.4082860000000  0.4829480000000 1.0
C      1  0.4346120000000  0.5028640000000  0.5363240000000 1.0
C      1  0.5578360000000  0.5089270000000  0.5223410000000 1.0
C      1  0.5894830000000  0.5254810000000  0.5493280000000 1.0
C      1  0.5374080000000  0.5770300000000  0.5711860000000 1.0
C      1  0.3824730000000  0.4890210000000  0.4929680000000 1.0
C      1  0.4633230000000  0.5164820000000  0.5431290000000 1.0
C      1  0.4587190000000  0.5004110000000  0.4699260000000 1.0
C      1  0.4845540000000  0.5596210000000  0.5091330000000 1.0
C      1  0.5050960000000  0.4841930000000  0.5697160000000 1.0
C      1  0.5004830000000  0.4052180000000  0.5027070000000 1.0
C      1  0.5216120000000  0.4320150000000  0.4764490000000 1.0
C      1  0.6145130000000  0.4521830000000  0.4736490000000 1.0
C      1  0.5951980000000  0.5120750000000  0.4662690000000 1.0
C      1  0.5564990000000  0.4905990000000  0.4042550000000 1.0
C      1  0.5153640000000  0.4115470000000  0.5756890000000 1.0
C      1  0.4856400000000  0.5952040000000  0.4318310000000 1.0
C      1  0.5187760000000  0.5229820000000  0.4663770000000 1.0
C      1  0.5597180000000  0.5612480000000  0.5772610000000 1.0
C      1  0.4256920000000  0.4766360000000  0.4389010000000 1.0
C      1  0.4505110000000  0.4280800000000  0.5471100000000 1.0
C      1  0.5541110000000  0.4648250000000  0.5174050000000 1.0
C      1  0.5055650000000  0.5147730000000  0.3962100000000 1.0
C      1  0.4575110000000  0.4527080000000  0.5696330000000 1.0
C      1  0.5447610000000  0.5172640000000  0.4451170000000 1.0
C      1  0.4682090000000  0.5188510000000  0.5095650000000 1.0
C      1  0.5546800000000  0.5153440000000  0.6010180000000 1.0
C      1  0.5114370000000  0.5957680000000  0.5627750000000 1.0
C      1  0.4481520000000  0.4357600000000  0.4552110000000 1.0
C      1  0.4444700000000  0.4123220000000  0.4795780000000 1.0
C      1  0.4889420000000  0.5758130000000  0.5462310000000 1.0
C      1  0.5830790000000  0.5386530000000  0.4332890000000 1.0
C      1  0.5181900000000  0.4075890000000  0.5490890000000 1.0
C      1  0.5417540000000  0.5409050000000  0.5399280000000 1.0
C      1  0.4528820000000  0.4930750000000  0.4372190000000 1.0
C      1  0.5977270000000  0.4928260000000  0.5383470000000 1.0
C      1  0.5298700000000  0.4986910000000  0.5312610000000 1.0
C      1  0.5243650000000  0.4976490000000  0.4262650000000 1.0
C      1  0.5013600000000  0.4312360000000  0.5894280000000 1.0
C      1  0.4723730000000  0.4126860000000  0.5299230000000 1.0
C      1  0.4885450000000  0.4225600000000  0.4776420000000 1.0
C      1  0.4835450000000  0.4814790000000  0.4462590000000 1.0
C      1  0.3984770000000  0.4361590000000  0.4947490000000 1.0
C      1  0.5579710000000  0.4292670000000  0.5351510000000 1.0
C      1  0.5710010000000  0.4703310000000  0.4570480000000 1.0
C      1  0.5869490000000  0.5484900000000  0.5002650000000 1.0
C      1  0.5024020000000  0.5603060000000  0.4694440000000 1.0
C      1  0.4877020000000  0.4907170000000  0.4848850000000 1.0
C      1  0.5561470000000  0.5476100000000  0.4910420000000 1.0
C      1  0.4934660000000  0.5108200000000  0.6131080000000 1.0
C      1  0.5696050000000  0.4676320000000  0.5792580000000 1.0
C      1  0.5150010000000  0.4148420000000  0.4346400000000 1.0
C      1  0.5319860000000  0.4481390000000  0.4483290000000 1.0
C      1  0.5463050000000  0.4209530000000  0.4378790000000 1.0
C      1  0.5488610000000  0.5850470000000  0.4620150000000 1.0
C      1  0.5892360000000  0.5183530000000  0.5160670000000 1.0
C      1  0.4985300000000  0.5934300000000  0.4627730000000 1.0
C      1  0.4546960000000  0.5294030000000  0.5908630000000 1.0
C      1  0.5399990000000  0.5312540000000  0.5104020000000 1.0
C      1  0.5742800000000  0.5056580000000  0.5678130000000 1.0
C      1  0.4068800000000  0.5641270000000  0.4559510000000 1.0
C      1  0.4253900000000  0.4706990000000  0.5299120000000 1.0
C      1  0.4274080000000  0.4494240000000  0.4358640000000 1.0
C      1  0.4381300000000  0.5917230000000  0.5234530000000 1.0
C      1  0.6002980000000  0.4707100000000  0.4939360000000 1.0
C      1  0.4146170000000  0.4779490000000  0.4921310000000 1.0
C      1  0.5816160000000  0.4423160000000  0.4731360000000 1.0
C      1  0.4001280000000  0.4912020000000  0.5200390000000 1.0
C      1  0.5325630000000  0.5353910000000  0.3995460000000 1.0
C      1  0.4879560000000  0.4554700000000  0.4996610000000 1.0
C      1  0.4049420000000  0.4846380000000  0.4602260000000 1.0
C      1  0.5772070000000  0.5685960000000  0.5259010000000 1.0
C      1  0.4720790000000  0.5949100000000  0.5282830000000 1.0
C      1  0.4033340000000  0.5482800000000  0.5215140000000 1.0
C      1  0.5136640000000  0.4581790000000  0.5903740000000 1.0
C      1  0.4169100000000  0.5048530000000  0.5652870000000 1.0
C      1  0.4871600000000  0.4415230000000  0.5271780000000 1.0
C      1  0.4145970000000  0.4216260000000  0.4713930000000 1.0
C      1  0.4404610000000  0.5280080000000  0.4777390000000 1.0
C      1  0.4996080000000  0.5760820000000  0.4182100000000 1.0
C      1  0.5722230000000  0.4111330000000  0.4829400000000 1.0
C      1  0.5009380000000  0.4468960000000  0.4390790000000 1.0
C      1  0.4148230000000  0.5378660000000  0.4481450000000 1.0
C      1  0.5258520000000  0.5792080000000  0.5270760000000 1.0
C      1  0.5851300000000  0.4932190000000  0.4466900000000 1.0
C      1  0.4422250000000  0.4653860000000  0.4936910000000 1.0
C      1  0.5393880000000  0.4758810000000  0.4620580000000 1.0
C      1  0.5898650000000  0.4638120000000  0.5548420000000 1.0
C      1  0.5330020000000  0.4517220000000  0.5406300000000 1.0
C      1  0.4832940000000  0.5322530000000  0.5960970000000 1.0
C      1  0.5710960000000  0.5495580000000  0.5497200000000 1.0
C      1  0.4669600000000  0.3993720000000  0.5019290000000 1.0
C      1  0.5408410000000  0.5474790000000  0.4300250000000 1.0
C      1  0.4138460000000  0.4437570000000  0.5164700000000 1.0
C      1  0.4619990000000  0.4377050000000  0.4926310000000 1.0
C      1  0.4468780000000  0.5318170000000  0.4445640000000 1.0
C      1  0.5284300000000  0.3897380000000  0.5088480000000 1.0
C      1  0.4676420000000  0.4253470000000  0.4347840000000 1.0
C      1  0.4741260000000  0.4307920000000  0.5892540000000 1.0
C      1  0.4678290000000  0.4796060000000  0.4097850000000 1.0
C      1  0.4456350000000  0.5246100000000  0.4136080000000 1.0
C      1  0.5429340000000  0.5732180000000  0.4865830000000 1.0
C      1  0.5127280000000  0.5182270000000  0.4995030000000 1.0
C      1  0.5149200000000  0.4659370000000  0.3973330000000 1.0
C      1  0.5865850000000  0.4402400000000  0.5369450000000 1.0
C      1  0.5059540000000  0.5215240000000  0.5326760000000 1.0
C      1  0.4287680000000  0.5738860000000  0.5480310000000 1.0
C      1  0.4557100000000  0.4959790000000  0.5691680000000 1.0
C      1  0.5854630000000  0.4968400000000  0.4910330000000 1.0
C      1  0.5161130000000  0.4282920000000  0.5221960000000 1.0
C      1  0.4834410000000  0.5433920000000  0.5371260000000 1.0
C      1  0.5576720000000  0.5887810000000  0.5264530000000 1.0
C      1  0.5573300000000  0.5204410000000  0.4755310000000 1.0
C      1  0.4839690000000  0.4901060000000  0.5186750000000 1.0
C      1  0.4577640000000  0.4666680000000  0.4656650000000 1.0
C      1  0.4412220000000  0.5368020000000  0.5167460000000 1.0
C      1  0.5172740000000  0.5579610000000  0.5522010000000 1.0
C      1  0.4950970000000  0.4853630000000  0.3963970000000 1.0
C      1  0.4145320000000  0.5260920000000  0.4985860000000 1.0
C      1  0.5552340000000  0.4103740000000  0.5124320000000 1.0
C      1  0.5118930000000  0.5764030000000  0.4978590000000 1.0
C      1  0.5424890000000  0.4970440000000  0.5748070000000 1.0
C      1  0.5196720000000  0.4852160000000  0.4951600000000 1.0
C      1  0.5521440000000  0.4914200000000  0.4868760000000 1.0
C      1  0.4360350000000  0.5310340000000  0.5684300000000 1.0
C      1  0.5136780000000  0.4942190000000  0.4549540000000 1.0
C      1  0.4131090000000  0.5720050000000  0.4820650000000 1.0
C      1  0.5012530000000  0.5390650000000  0.5754980000000 1.0
C      1  0.4879590000000  0.4105300000000  0.4482080000000 1.0
C      1  0.4345030000000  0.5475200000000  0.5463570000000 1.0
C      1  0.5082000000000  0.4747630000000  0.5371940000000 1.0
C      1  0.5793080000000  0.4497740000000  0.5062370000000 1.0
C      1  0.4007310000000  0.4513970000000  0.4660430000000 1.0
C      1  0.4308940000000  0.4735090000000  0.5632160000000 1.0
C      1  0.5376910000000  0.5064480000000  0.3887920000000 1.0
C      1  0.5290170000000  0.6024690000000  0.4551600000000 1.0
C      1  0.5002960000000  0.5215220000000  0.4291570000000 1.0
C      1  0.4600090000000  0.5802850000000  0.5000500000000 1.0
C      1  0.5741570000000  0.4905990000000  0.5982960000000 1.0
C      1  0.5154480000000  0.5138550000000  0.5644600000000 1.0
C      1  0.5362530000000  0.6064150000000  0.5440990000000 1.0
C      1  0.4455480000000  0.5017190000000  0.6011820000000 1.0
C      1  0.3918420000000  0.5151080000000  0.4825620000000 1.0
C      1  0.4397120000000  0.5576820000000  0.4916820000000 1.0
C      1  0.5083270000000  0.5517150000000  0.4390340000000 1.0
C      1  0.4782970000000  0.5240560000000  0.4550020000000 1.0
C      1  0.5717320000000  0.4196980000000  0.4497330000000 1.0
C      1  0.5596660000000  0.5426300000000  0.5984130000000 1.0
C      1  0.4105470000000  0.5750620000000  0.5125180000000 1.0
C      1  0.4631500000000  0.6050650000000  0.4484640000000 1.0
C      1  0.4411580000000  0.4346740000000  0.5193450000000 1.0
C      1  0.4582390000000  0.4707830000000  0.5211310000000 1.0
C      1  0.5637830000000  0.5622410000000  0.4483660000000 1.0
C      1  0.5392070000000  0.4636570000000  0.5717020000000 1.0
C      1  0.4641090000000  0.4749850000000  0.5944630000000 1.0
END
