TITL C-2847953-8112-652 0.00133693535936377 125000 -427.661752146109 0 0 75 (C1) n - 1
REM
REM in /home/bkarasulu/work/CARBON/AIRSS/Generating-Clusters/AIREBO/with-SteepDescent/Only-C1/SD-CG-opt/Try1-1.4A-POS3A/HFTN-CG
REM
REM
REM
REM
REM
REM ./C.cell (11c1c37f851c82e70ff6c80c92926a4b)
REM
REM compiler GCC version 9.2.1 20190827 (Red Hat 9.2.1-1)
REM options -cpp -mtune=generic -march=x86-64 -g -O0 -fpre-include=/usr/include/finclude/math-vector-fortran.h
REM seed -1830722764 -874325551 1598452913 1859807239 -669192701 -428313989 513846137 1369222165 -1860865373 466289229 -1131187821 803708797 1220795021 -18094044 -334249771 -676026729 -474408207 885843880 -2081166017 152307810 1527546249 397960187 -975706265 1941219419 -473516618 -1463853311 -194712678 1121163870 1306147599 1495909998 -1510308034 -2075635937 1581711825
REM
CELL 1.54180   50.00000   50.00000   50.00000   90.00000   90.00000   90.00000
LATT -1
SFAC C  
C      1  0.5615000000000  0.5164880000000  0.5183010000000 1.0
C      1  0.4909200000000  0.5172330000000  0.5385700000000 1.0
C      1  0.3918290000000  0.5050960000000  0.5046370000000 1.0
C      1  0.4798870000000  0.5716180000000  0.4907250000000 1.0
C      1  0.4739890000000  0.4690680000000  0.4547580000000 1.0
C      1  0.4244130000000  0.5318320000000  0.4782390000000 1.0
C      1  0.5277700000000  0.4546200000000  0.4386370000000 1.0
C      1  0.4552770000000  0.4879150000000  0.4844670000000 1.0
C      1  0.5450910000000  0.4570180000000  0.3614990000000 1.0
C      1  0.5360360000000  0.4718920000000  0.5176180000000 1.0
C      1  0.5616410000000  0.4600480000000  0.5231250000000 1.0
C      1  0.4773470000000  0.4473310000000  0.5388930000000 1.0
C      1  0.5148880000000  0.5584380000000  0.5604430000000 1.0
C      1  0.5799570000000  0.4827150000000  0.5291070000000 1.0
C      1  0.5596840000000  0.4970470000000  0.4977630000000 1.0
C      1  0.5356620000000  0.5043420000000  0.5594720000000 1.0
C      1  0.5254650000000  0.5581640000000  0.4838710000000 1.0
C      1  0.5157450000000  0.5266120000000  0.5683600000000 1.0
C      1  0.4262010000000  0.5007680000000  0.5391390000000 1.0
C      1  0.5266670000000  0.5757850000000  0.5782030000000 1.0
C      1  0.5202690000000  0.4798940000000  0.5738010000000 1.0
C      1  0.4759270000000  0.5193550000000  0.4967390000000 1.0
C      1  0.4758470000000  0.4167750000000  0.4970770000000 1.0
C      1  0.4345520000000  0.5235150000000  0.5244290000000 1.0
C      1  0.5268140000000  0.5475820000000  0.5119140000000 1.0
C      1  0.5027140000000  0.5138660000000  0.4825840000000 1.0
C      1  0.5332320000000  0.4562680000000  0.4129240000000 1.0
C      1  0.4927910000000  0.5806540000000  0.5151650000000 1.0
C      1  0.5451410000000  0.5530710000000  0.4650500000000 1.0
C      1  0.5735090000000  0.4801330000000  0.4645330000000 1.0
C      1  0.4887610000000  0.4856080000000  0.4795920000000 1.0
C      1  0.5174160000000  0.4162300000000  0.5258070000000 1.0
C      1  0.4632040000000  0.4172520000000  0.4721530000000 1.0
C      1  0.4636170000000  0.5019520000000  0.5791670000000 1.0
C      1  0.5357110000000  0.4759790000000  0.4859760000000 1.0
C      1  0.5725790000000  0.5641020000000  0.5228070000000 1.0
C      1  0.4844980000000  0.5234410000000  0.4093860000000 1.0
C      1  0.4348740000000  0.5573840000000  0.4714410000000 1.0
C      1  0.4677810000000  0.4934390000000  0.5158090000000 1.0
C      1  0.5285440000000  0.4965470000000  0.5292850000000 1.0
C      1  0.4446840000000  0.4821390000000  0.4544970000000 1.0
C      1  0.5552960000000  0.5434640000000  0.5183980000000 1.0
C      1  0.5727340000000  0.4488730000000  0.4783850000000 1.0
C      1  0.4646900000000  0.5619710000000  0.5527190000000 1.0
C      1  0.5393330000000  0.4553630000000  0.3870150000000 1.0
C      1  0.5712290000000  0.4411230000000  0.5041050000000 1.0
C      1  0.4981280000000  0.5586890000000  0.4736540000000 1.0
C      1  0.4324510000000  0.5506750000000  0.5306700000000 1.0
C      1  0.5645340000000  0.5039630000000  0.5450110000000 1.0
C      1  0.4021640000000  0.4913380000000  0.5266760000000 1.0
C      1  0.5071270000000  0.4128020000000  0.4994490000000 1.0
C      1  0.5117950000000  0.5668830000000  0.5293300000000 1.0
C      1  0.4711190000000  0.4360150000000  0.4553360000000 1.0
C      1  0.5119620000000  0.5194600000000  0.5139510000000 1.0
C      1  0.5615040000000  0.5061740000000  0.4517770000000 1.0
C      1  0.4514560000000  0.5713260000000  0.4903890000000 1.0
C      1  0.4882980000000  0.5131310000000  0.5722330000000 1.0
C      1  0.4856800000000  0.5466210000000  0.5514180000000 1.0
C      1  0.4767680000000  0.4868550000000  0.5445790000000 1.0
C      1  0.5469010000000  0.4595380000000  0.4599730000000 1.0
C      1  0.5444200000000  0.5261950000000  0.4535050000000 1.0
C      1  0.5066830000000  0.4347100000000  0.4790920000000 1.0
C      1  0.4833950000000  0.4431170000000  0.5102280000000 1.0
C      1  0.5012900000000  0.4489710000000  0.4496580000000 1.0
C      1  0.5111580000000  0.5311600000000  0.4581230000000 1.0
C      1  0.5048920000000  0.4639740000000  0.4939320000000 1.0
C      1  0.4960320000000  0.5258110000000  0.4320270000000 1.0
C      1  0.5078120000000  0.4371170000000  0.5413080000000 1.0
C      1  0.4251230000000  0.4856390000000  0.4385190000000 1.0
C      1  0.4390530000000  0.5730490000000  0.5160260000000 1.0
C      1  0.5868180000000  0.4819780000000  0.4958030000000 1.0
C      1  0.3990770000000  0.5193160000000  0.4818170000000 1.0
C      1  0.4434820000000  0.5176350000000  0.4960420000000 1.0
C      1  0.4459400000000  0.4913210000000  0.5568950000000 1.0
C      1  0.4992250000000  0.4665280000000  0.5559940000000 1.0
END
