TITL C-2847947-6848-66 -0.00152687979193452 125000 -1008.08229974808 0 0 192 (C1) n - 1
REM
REM in /home/bkarasulu/work/CARBON/AIRSS/Generating-Clusters/AIREBO/with-SteepDescent/Only-C1/SD-CG-opt/Try1-1.4A-POS3A/HFTN-CG
REM
REM
REM
REM
REM
REM ./C.cell (11c1c37f851c82e70ff6c80c92926a4b)
REM
REM compiler GCC version 9.2.1 20190827 (Red Hat 9.2.1-1)
REM options -cpp -mtune=generic -march=x86-64 -g -O0 -fpre-include=/usr/include/finclude/math-vector-fortran.h
REM seed -704978304 538631860 -1878526294 -14994102 -1461638941 -774636701 1308575642 -539062627 -2142095452 1767216320 1020889857 54223672 562363581 1965967569 -4218352 -1923356134 1078811671 1077851547 -2008000226 671858221 -1868757721 -1055432105 1395453472 -502422844 1972017236 -503870958 1136292679 -1716285477 -2009513572 2102117678 76145358 -66646372 -281415434
REM
CELL 1.54180   50.00000   50.00000   50.00000   90.00000   90.00000   90.00000
LATT -1
SFAC C  
C      1  0.5220420000000  0.5718850000000  0.4601590000000 1.0
C      1  0.4081150000000  0.5534590000000  0.5275410000000 1.0
C      1  0.4751500000000  0.3737870000000  0.4231590000000 1.0
C      1  0.5053550000000  0.5675640000000  0.5043140000000 1.0
C      1  0.5213240000000  0.5307460000000  0.5263710000000 1.0
C      1  0.4046890000000  0.4751550000000  0.5461890000000 1.0
C      1  0.5185130000000  0.4274980000000  0.4504090000000 1.0
C      1  0.4559040000000  0.5347770000000  0.4427150000000 1.0
C      1  0.4459370000000  0.5216180000000  0.5179720000000 1.0
C      1  0.5821590000000  0.4438170000000  0.5408920000000 1.0
C      1  0.5120950000000  0.4320830000000  0.4985060000000 1.0
C      1  0.6052900000000  0.4858940000000  0.5402200000000 1.0
C      1  0.4746180000000  0.4686170000000  0.3994140000000 1.0
C      1  0.4425160000000  0.4593690000000  0.5944090000000 1.0
C      1  0.4738120000000  0.5764760000000  0.5816780000000 1.0
C      1  0.4747230000000  0.4868810000000  0.4883420000000 1.0
C      1  0.5776930000000  0.5254010000000  0.4751020000000 1.0
C      1  0.5125470000000  0.4580260000000  0.4765260000000 1.0
C      1  0.5503110000000  0.5388820000000  0.5121450000000 1.0
C      1  0.5208910000000  0.4661980000000  0.5690330000000 1.0
C      1  0.4748460000000  0.5415120000000  0.4876090000000 1.0
C      1  0.5001730000000  0.4878920000000  0.5708620000000 1.0
C      1  0.4908310000000  0.5065290000000  0.3830850000000 1.0
C      1  0.5741510000000  0.4756680000000  0.5778400000000 1.0
C      1  0.5610960000000  0.4551090000000  0.4337990000000 1.0
C      1  0.4621120000000  0.5184380000000  0.4676780000000 1.0
C      1  0.5860480000000  0.5522840000000  0.5240590000000 1.0
C      1  0.5382010000000  0.4621050000000  0.4984670000000 1.0
C      1  0.5264100000000  0.4886800000000  0.4715830000000 1.0
C      1  0.4577410000000  0.5866660000000  0.4761080000000 1.0
C      1  0.5491370000000  0.3867270000000  0.5093400000000 1.0
C      1  0.4236340000000  0.5268080000000  0.4647860000000 1.0
C      1  0.4097870000000  0.5656500000000  0.4964170000000 1.0
C      1  0.5440860000000  0.5647880000000  0.4803570000000 1.0
C      1  0.4853150000000  0.5540900000000  0.3970620000000 1.0
C      1  0.4730660000000  0.3888740000000  0.4829890000000 1.0
C      1  0.4570340000000  0.4236400000000  0.4253740000000 1.0
C      1  0.3944580000000  0.5103470000000  0.5703190000000 1.0
C      1  0.5345700000000  0.6010620000000  0.4666370000000 1.0
C      1  0.5063870000000  0.5155100000000  0.5990220000000 1.0
C      1  0.4834730000000  0.4829830000000  0.6000880000000 1.0
C      1  0.4695460000000  0.5510000000000  0.5923840000000 1.0
C      1  0.4742760000000  0.5751460000000  0.4171880000000 1.0
C      1  0.6079320000000  0.5130200000000  0.5486210000000 1.0
C      1  0.4861300000000  0.4326330000000  0.6163450000000 1.0
C      1  0.6118650000000  0.5288330000000  0.4818240000000 1.0
C      1  0.5248810000000  0.6003190000000  0.5598240000000 1.0
C      1  0.4982600000000  0.5850370000000  0.5695280000000 1.0
C      1  0.5905730000000  0.4383220000000  0.4911250000000 1.0
C      1  0.4071950000000  0.5553250000000  0.4579620000000 1.0
C      1  0.4829020000000  0.5225000000000  0.5809950000000 1.0
C      1  0.4533720000000  0.4958000000000  0.5488340000000 1.0
C      1  0.4722750000000  0.4765870000000  0.5622860000000 1.0
C      1  0.5344540000000  0.5010800000000  0.6101980000000 1.0
C      1  0.5787800000000  0.5750280000000  0.5101480000000 1.0
C      1  0.5058430000000  0.4923330000000  0.6239250000000 1.0
C      1  0.5040270000000  0.5472640000000  0.5583900000000 1.0
C      1  0.5634500000000  0.5072570000000  0.4074640000000 1.0
C      1  0.4560730000000  0.4875320000000  0.4599140000000 1.0
C      1  0.4024110000000  0.5030610000000  0.5179800000000 1.0
C      1  0.5327530000000  0.5322600000000  0.4023760000000 1.0
C      1  0.5366040000000  0.5200990000000  0.4497480000000 1.0
C      1  0.4483030000000  0.5677080000000  0.5443720000000 1.0
C      1  0.4516810000000  0.4639940000000  0.4445940000000 1.0
C      1  0.3984110000000  0.5087960000000  0.4787690000000 1.0
C      1  0.5746180000000  0.4259440000000  0.4448790000000 1.0
C      1  0.5265730000000  0.4809300000000  0.4381490000000 1.0
C      1  0.5504980000000  0.4576230000000  0.4660330000000 1.0
C      1  0.5578200000000  0.5868990000000  0.4504570000000 1.0
C      1  0.5903670000000  0.4260110000000  0.5171200000000 1.0
C      1  0.5175330000000  0.5045350000000  0.5467790000000 1.0
C      1  0.4763070000000  0.4529090000000  0.4883800000000 1.0
C      1  0.4600750000000  0.4396870000000  0.4624200000000 1.0
C      1  0.5009520000000  0.4474530000000  0.4032920000000 1.0
C      1  0.4301900000000  0.4344210000000  0.4745590000000 1.0
C      1  0.4551520000000  0.4493790000000  0.5360170000000 1.0
C      1  0.5783960000000  0.5382620000000  0.4437720000000 1.0
C      1  0.5566280000000  0.4651150000000  0.5337640000000 1.0
C      1  0.4859000000000  0.4316210000000  0.5847800000000 1.0
C      1  0.5345660000000  0.5583990000000  0.5353520000000 1.0
C      1  0.4821870000000  0.6009280000000  0.4567080000000 1.0
C      1  0.4884540000000  0.5221770000000  0.5474250000000 1.0
C      1  0.4684460000000  0.4962380000000  0.5204390000000 1.0
C      1  0.5146790000000  0.6133270000000  0.4815430000000 1.0
C      1  0.5346040000000  0.5830260000000  0.5040400000000 1.0
C      1  0.5387310000000  0.4279270000000  0.4777620000000 1.0
C      1  0.4304280000000  0.4858740000000  0.5267150000000 1.0
C      1  0.4597660000000  0.4125260000000  0.5061920000000 1.0
C      1  0.4154480000000  0.4362630000000  0.5222690000000 1.0
C      1  0.4856990000000  0.4203440000000  0.4856390000000 1.0
C      1  0.4003250000000  0.4600760000000  0.5214280000000 1.0
C      1  0.4092240000000  0.5318880000000  0.5012810000000 1.0
C      1  0.4421580000000  0.4417260000000  0.5055350000000 1.0
C      1  0.4538130000000  0.4818430000000  0.6052060000000 1.0
C      1  0.5487700000000  0.5823980000000  0.5517500000000 1.0
C      1  0.5940280000000  0.4664690000000  0.4901450000000 1.0
C      1  0.5244260000000  0.4188970000000  0.5423470000000 1.0
C      1  0.4442300000000  0.4748980000000  0.4976120000000 1.0
C      1  0.5280620000000  0.4479190000000  0.4301120000000 1.0
C      1  0.5015220000000  0.4403380000000  0.5292430000000 1.0
C      1  0.4729190000000  0.3993200000000  0.4309980000000 1.0
C      1  0.5497460000000  0.5697080000000  0.4289890000000 1.0
C      1  0.5525250000000  0.4348190000000  0.5080710000000 1.0
C      1  0.4239400000000  0.5806930000000  0.4731960000000 1.0
C      1  0.5154830000000  0.4461680000000  0.5933390000000 1.0
C      1  0.3916160000000  0.4956710000000  0.4191230000000 1.0
C      1  0.5162380000000  0.5549360000000  0.3994980000000 1.0
C      1  0.5067490000000  0.5343510000000  0.4970010000000 1.0
C      1  0.5249380000000  0.5394590000000  0.5730970000000 1.0
C      1  0.4595710000000  0.4469490000000  0.5696510000000 1.0
C      1  0.5551240000000  0.4853680000000  0.6026690000000 1.0
C      1  0.4971150000000  0.4665470000000  0.4471760000000 1.0
C      1  0.5692350000000  0.4056950000000  0.5134640000000 1.0
C      1  0.5538390000000  0.5034070000000  0.4853150000000 1.0
C      1  0.4761650000000  0.4488690000000  0.4270480000000 1.0
C      1  0.5045300000000  0.5742140000000  0.5376660000000 1.0
C      1  0.5921170000000  0.4553390000000  0.4232310000000 1.0
C      1  0.4112460000000  0.4606230000000  0.4703700000000 1.0
C      1  0.4186640000000  0.4115830000000  0.4539070000000 1.0
C      1  0.5032650000000  0.4872550000000  0.4044500000000 1.0
C      1  0.4507030000000  0.5842790000000  0.5668170000000 1.0
C      1  0.4463320000000  0.5615940000000  0.4561490000000 1.0
C      1  0.4927560000000  0.5542640000000  0.4616390000000 1.0
C      1  0.6053810000000  0.4835380000000  0.5103020000000 1.0
C      1  0.4327480000000  0.5384190000000  0.5444500000000 1.0
C      1  0.4412250000000  0.5465080000000  0.4862150000000 1.0
C      1  0.5657770000000  0.5690010000000  0.5728390000000 1.0
C      1  0.5034130000000  0.5267250000000  0.4492380000000 1.0
C      1  0.5611970000000  0.5403140000000  0.4156250000000 1.0
C      1  0.4472160000000  0.5290110000000  0.5970530000000 1.0
C      1  0.4871030000000  0.3947970000000  0.5162610000000 1.0
C      1  0.5515700000000  0.4309520000000  0.5401430000000 1.0
C      1  0.5570800000000  0.4953060000000  0.5179990000000 1.0
C      1  0.5259530000000  0.3908570000000  0.5259620000000 1.0
C      1  0.4030570000000  0.4791760000000  0.4934270000000 1.0
C      1  0.5553110000000  0.4798950000000  0.4106020000000 1.0
C      1  0.5283590000000  0.4651960000000  0.4008290000000 1.0
C      1  0.4795380000000  0.6414190000000  0.5118540000000 1.0
C      1  0.4469460000000  0.4174700000000  0.5583100000000 1.0
C      1  0.5757980000000  0.5745750000000  0.4768200000000 1.0
C      1  0.4885300000000  0.5929320000000  0.4891440000000 1.0
C      1  0.5901490000000  0.4686440000000  0.5568230000000 1.0
C      1  0.4421140000000  0.5063560000000  0.6124570000000 1.0
C      1  0.4526660000000  0.5216820000000  0.5653260000000 1.0
C      1  0.3898270000000  0.5790790000000  0.5193890000000 1.0
C      1  0.5923000000000  0.5363540000000  0.5486880000000 1.0
C      1  0.5240390000000  0.5091860000000  0.4200750000000 1.0
C      1  0.5369030000000  0.5326460000000  0.4813720000000 1.0
C      1  0.5798650000000  0.5827030000000  0.5901550000000 1.0
C      1  0.5028250000000  0.5008500000000  0.5014720000000 1.0
C      1  0.4379370000000  0.5072900000000  0.4887330000000 1.0
C      1  0.5721130000000  0.4244110000000  0.4722530000000 1.0
C      1  0.4459780000000  0.4800200000000  0.3974350000000 1.0
C      1  0.4780610000000  0.4633740000000  0.5202620000000 1.0
C      1  0.3698630000000  0.5016670000000  0.5202950000000 1.0
C      1  0.5775480000000  0.5254770000000  0.5940220000000 1.0
C      1  0.4957760000000  0.6191870000000  0.5095110000000 1.0
C      1  0.4565430000000  0.5085690000000  0.4229770000000 1.0
C      1  0.6022870000000  0.5109210000000  0.5028900000000 1.0
C      1  0.5641470000000  0.5011930000000  0.4468140000000 1.0
C      1  0.4948200000000  0.4967100000000  0.4627040000000 1.0
C      1  0.4986850000000  0.3967840000000  0.5446850000000 1.0
C      1  0.4491650000000  0.5783520000000  0.4281000000000 1.0
C      1  0.5062660000000  0.3865770000000  0.4899660000000 1.0
C      1  0.4836920000000  0.5373790000000  0.4266290000000 1.0
C      1  0.5768310000000  0.5216000000000  0.5149840000000 1.0
C      1  0.4205620000000  0.4598430000000  0.4381630000000 1.0
C      1  0.5947570000000  0.5536090000000  0.4667770000000 1.0
C      1  0.5436180000000  0.5229170000000  0.5585950000000 1.0
C      1  0.5466740000000  0.4578750000000  0.5875910000000 1.0
C      1  0.4966400000000  0.5791500000000  0.4387590000000 1.0
C      1  0.5077560000000  0.6078600000000  0.5339320000000 1.0
C      1  0.5321330000000  0.3956780000000  0.4863770000000 1.0
C      1  0.5566060000000  0.5882640000000  0.5211040000000 1.0
C      1  0.4726830000000  0.5240120000000  0.3970500000000 1.0
C      1  0.5248460000000  0.4848440000000  0.5199840000000 1.0
C      1  0.5873330000000  0.5125190000000  0.4266170000000 1.0
C      1  0.5735070000000  0.4796660000000  0.4709770000000 1.0
C      1  0.5701850000000  0.5378250000000  0.5696290000000 1.0
C      1  0.5239880000000  0.4594740000000  0.5414540000000 1.0
C      1  0.4726470000000  0.5642340000000  0.5313370000000 1.0
C      1  0.4807610000000  0.4200250000000  0.5540310000000 1.0
C      1  0.4074230000000  0.5164500000000  0.5486860000000 1.0
C      1  0.4829120000000  0.4931860000000  0.4310370000000 1.0
C      1  0.4075350000000  0.5037070000000  0.4457140000000 1.0
C      1  0.4748440000000  0.5355520000000  0.5210960000000 1.0
C      1  0.4307330000000  0.4290100000000  0.4333540000000 1.0
C      1  0.4236380000000  0.4184400000000  0.5438020000000 1.0
C      1  0.4996380000000  0.4604820000000  0.6186980000000 1.0
C      1  0.4290270000000  0.4893350000000  0.4235580000000 1.0
C      1  0.4857660000000  0.4189560000000  0.4526360000000 1.0
C      1  0.5235530000000  0.5741730000000  0.4185820000000 1.0
END
