TITL C-2847950-6905-133 -0.000553954852037438 125000 -650.33012688317 0 0 123 (C1) n - 1
REM
REM in /home/bkarasulu/work/CARBON/AIRSS/Generating-Clusters/AIREBO/with-SteepDescent/Only-C1/SD-CG-opt/Try1-1.4A-POS3A/HFTN-CG
REM
REM
REM
REM
REM
REM ./C.cell (11c1c37f851c82e70ff6c80c92926a4b)
REM
REM compiler GCC version 9.2.1 20190827 (Red Hat 9.2.1-1)
REM options -cpp -mtune=generic -march=x86-64 -g -O0 -fpre-include=/usr/include/finclude/math-vector-fortran.h
REM seed -1659086461 2119961491 537934853 1680506349 -801756920 -67199702 532062213 -1606231433 1491106984 315691410 1556127829 1427082150 2097220764 -628322844 1474984515 1531478723 502863233 -760543712 623165163 -445313787 716683843 -198006022 -1409569153 -150883276 -590309261 -967522635 -919984121 1469945410 1004075575 1300024520 -848862825 -1706097745 1741605351
REM
CELL 1.54180   50.00000   50.00000   50.00000   90.00000   90.00000   90.00000
LATT -1
SFAC C  
C      1  0.4189080000000  0.5267740000000  0.5318820000000 1.0
C      1  0.5282480000000  0.4313240000000  0.5040920000000 1.0
C      1  0.5810370000000  0.4744780000000  0.4489270000000 1.0
C      1  0.4984930000000  0.4666860000000  0.5390560000000 1.0
C      1  0.4875280000000  0.5307070000000  0.5762250000000 1.0
C      1  0.5305550000000  0.5283960000000  0.4315130000000 1.0
C      1  0.5164570000000  0.5894030000000  0.4557900000000 1.0
C      1  0.4942260000000  0.4928170000000  0.4066080000000 1.0
C      1  0.5824330000000  0.4744180000000  0.5388120000000 1.0
C      1  0.4425540000000  0.5947560000000  0.4948570000000 1.0
C      1  0.4573070000000  0.4834590000000  0.5203470000000 1.0
C      1  0.5083230000000  0.4897960000000  0.4908460000000 1.0
C      1  0.4574550000000  0.5187200000000  0.5658300000000 1.0
C      1  0.5605540000000  0.5003920000000  0.4408350000000 1.0
C      1  0.5342270000000  0.4795610000000  0.4622460000000 1.0
C      1  0.5181020000000  0.5434750000000  0.5031480000000 1.0
C      1  0.4778300000000  0.4162050000000  0.4916360000000 1.0
C      1  0.4306410000000  0.4804930000000  0.5578860000000 1.0
C      1  0.5419100000000  0.5762970000000  0.5187270000000 1.0
C      1  0.5236320000000  0.5622220000000  0.4448660000000 1.0
C      1  0.4812430000000  0.5072180000000  0.4969600000000 1.0
C      1  0.4284710000000  0.4969370000000  0.5186750000000 1.0
C      1  0.5147770000000  0.4440270000000  0.5534360000000 1.0
C      1  0.5446750000000  0.4838020000000  0.5475750000000 1.0
C      1  0.4576730000000  0.4370760000000  0.4481190000000 1.0
C      1  0.4392900000000  0.5805560000000  0.5203300000000 1.0
C      1  0.5525290000000  0.5020420000000  0.5039790000000 1.0
C      1  0.4601250000000  0.5166140000000  0.4646520000000 1.0
C      1  0.5034200000000  0.4355970000000  0.5805070000000 1.0
C      1  0.5182160000000  0.5172180000000  0.4732600000000 1.0
C      1  0.5266100000000  0.5245690000000  0.5243440000000 1.0
C      1  0.4936730000000  0.4692740000000  0.4679780000000 1.0
C      1  0.4169320000000  0.4945980000000  0.4436570000000 1.0
C      1  0.4353640000000  0.4546900000000  0.4218470000000 1.0
C      1  0.4443080000000  0.4311700000000  0.5272650000000 1.0
C      1  0.5593960000000  0.5339700000000  0.4444260000000 1.0
C      1  0.5422600000000  0.4508350000000  0.4710450000000 1.0
C      1  0.5284990000000  0.4634130000000  0.4981550000000 1.0
C      1  0.4915560000000  0.5067470000000  0.4549230000000 1.0
C      1  0.4284120000000  0.4330130000000  0.6180530000000 1.0
C      1  0.5813380000000  0.5217840000000  0.4748540000000 1.0
C      1  0.4357780000000  0.4604140000000  0.5331460000000 1.0
C      1  0.4713490000000  0.4689670000000  0.4936430000000 1.0
C      1  0.5410390000000  0.4072140000000  0.5243820000000 1.0
C      1  0.5664210000000  0.4518690000000  0.5373870000000 1.0
C      1  0.5863550000000  0.4681390000000  0.4760550000000 1.0
C      1  0.5088950000000  0.5086480000000  0.5835750000000 1.0
C      1  0.5088590000000  0.4955610000000  0.5243890000000 1.0
C      1  0.4841810000000  0.5569550000000  0.5939210000000 1.0
C      1  0.4720490000000  0.4746830000000  0.5566660000000 1.0
C      1  0.5929730000000  0.4914720000000  0.4918230000000 1.0
C      1  0.5060530000000  0.4305970000000  0.4508240000000 1.0
C      1  0.4766000000000  0.5472250000000  0.4456570000000 1.0
C      1  0.4913310000000  0.5837970000000  0.5083000000000 1.0
C      1  0.5643630000000  0.5709440000000  0.5355600000000 1.0
C      1  0.4702530000000  0.5343780000000  0.5109560000000 1.0
C      1  0.4952860000000  0.4729090000000  0.4341640000000 1.0
C      1  0.5687130000000  0.4489660000000  0.4873420000000 1.0
C      1  0.4832880000000  0.4535840000000  0.5165190000000 1.0
C      1  0.4432720000000  0.5425720000000  0.4505730000000 1.0
C      1  0.5448950000000  0.4804170000000  0.5164000000000 1.0
C      1  0.6109020000000  0.5160150000000  0.5332320000000 1.0
C      1  0.5612460000000  0.4610160000000  0.4307470000000 1.0
C      1  0.5106860000000  0.4216750000000  0.5315750000000 1.0
C      1  0.5207510000000  0.5007680000000  0.5558240000000 1.0
C      1  0.5191270000000  0.4969430000000  0.4375840000000 1.0
C      1  0.4456630000000  0.4264440000000  0.4974430000000 1.0
C      1  0.4857720000000  0.5425230000000  0.4187440000000 1.0
C      1  0.5713420000000  0.5451960000000  0.5440360000000 1.0
C      1  0.5877060000000  0.5029600000000  0.5225730000000 1.0
C      1  0.4374750000000  0.4437250000000  0.5967420000000 1.0
C      1  0.5787680000000  0.5237000000000  0.5626840000000 1.0
C      1  0.5721170000000  0.4969250000000  0.5588080000000 1.0
C      1  0.4837550000000  0.5694830000000  0.5671830000000 1.0
C      1  0.4153110000000  0.4797910000000  0.4715180000000 1.0
C      1  0.4774440000000  0.5012920000000  0.5361970000000 1.0
C      1  0.5073740000000  0.5650810000000  0.5523480000000 1.0
C      1  0.5339350000000  0.4145350000000  0.4564630000000 1.0
C      1  0.4251260000000  0.4490290000000  0.4822630000000 1.0
C      1  0.4581160000000  0.5620670000000  0.5502820000000 1.0
C      1  0.4446630000000  0.4836670000000  0.4816140000000 1.0
C      1  0.4480760000000  0.4561920000000  0.5719180000000 1.0
C      1  0.5199610000000  0.4907040000000  0.3959750000000 1.0
C      1  0.4314020000000  0.5671990000000  0.4402080000000 1.0
C      1  0.5124230000000  0.5339710000000  0.5531540000000 1.0
C      1  0.3988370000000  0.5012420000000  0.4901660000000 1.0
C      1  0.5507180000000  0.5071010000000  0.4727000000000 1.0
C      1  0.5006180000000  0.4404270000000  0.4222460000000 1.0
C      1  0.4955350000000  0.5423880000000  0.4700990000000 1.0
C      1  0.4801360000000  0.4380740000000  0.4678170000000 1.0
C      1  0.4700070000000  0.5341720000000  0.5406410000000 1.0
C      1  0.4773980000000  0.4236820000000  0.5248190000000 1.0
C      1  0.6081540000000  0.5205290000000  0.4930850000000 1.0
C      1  0.4722890000000  0.4404650000000  0.5539610000000 1.0
C      1  0.5108000000000  0.4169400000000  0.4816000000000 1.0
C      1  0.5485340000000  0.4388020000000  0.4428840000000 1.0
C      1  0.4997150000000  0.5960850000000  0.4758390000000 1.0
C      1  0.4476100000000  0.5137710000000  0.4961520000000 1.0
C      1  0.4289130000000  0.5387840000000  0.4811630000000 1.0
C      1  0.5157010000000  0.5802610000000  0.5298000000000 1.0
C      1  0.5402300000000  0.5612500000000  0.4940260000000 1.0
C      1  0.4694340000000  0.5993320000000  0.4874150000000 1.0
C      1  0.5606240000000  0.5235150000000  0.5246280000000 1.0
C      1  0.4262160000000  0.5166330000000  0.4367000000000 1.0
C      1  0.4794600000000  0.5630770000000  0.6195960000000 1.0
C      1  0.5428600000000  0.4532880000000  0.5557230000000 1.0
C      1  0.6278690000000  0.5347010000000  0.5022430000000 1.0
C      1  0.4089250000000  0.5255420000000  0.4993930000000 1.0
C      1  0.5881520000000  0.5418040000000  0.4505590000000 1.0
C      1  0.4274340000000  0.4445520000000  0.4508730000000 1.0
C      1  0.4801760000000  0.5177610000000  0.4046590000000 1.0
C      1  0.5374410000000  0.5445600000000  0.4669680000000 1.0
C      1  0.5427800000000  0.4833320000000  0.4172860000000 1.0
C      1  0.5607560000000  0.4335570000000  0.5138700000000 1.0
C      1  0.5127440000000  0.5499370000000  0.4177940000000 1.0
C      1  0.4328280000000  0.5082040000000  0.5567660000000 1.0
C      1  0.4694650000000  0.4540580000000  0.4225500000000 1.0
C      1  0.4673940000000  0.5873280000000  0.5310080000000 1.0
C      1  0.4280990000000  0.5565380000000  0.5352210000000 1.0
C      1  0.4891100000000  0.5535010000000  0.4982550000000 1.0
C      1  0.4656690000000  0.4856070000000  0.4577310000000 1.0
C      1  0.4153580000000  0.4671030000000  0.5089730000000 1.0
C      1  0.5117360000000  0.4963550000000  0.6062310000000 1.0
END
