TITL C-2847947-6848-331 -0.00271289866102058 125000 -928.448205576214 0 0 173 (C1) n - 1
REM
REM in /home/bkarasulu/work/CARBON/AIRSS/Generating-Clusters/AIREBO/with-SteepDescent/Only-C1/SD-CG-opt/Try1-1.4A-POS3A/HFTN-CG
REM
REM
REM
REM
REM
REM ./C.cell (11c1c37f851c82e70ff6c80c92926a4b)
REM
REM compiler GCC version 9.2.1 20190827 (Red Hat 9.2.1-1)
REM options -cpp -mtune=generic -march=x86-64 -g -O0 -fpre-include=/usr/include/finclude/math-vector-fortran.h
REM seed -1327333109 420554910 -93932584 933573813 -214588700 567660052 -1199066706 -1930805369 -1744207928 -402358362 1030742580 1266341606 -672909552 -1595477232 1297555188 -425174290 805950043 -74341580 -230641054 -1374070742 226517071 -1864460769 -1314183126 -158281479 -389264131 1664504629 -43906755 -1171440511 65497636 721958110 612605633 1924222821 1990153232
REM
CELL 1.54180   50.00000   50.00000   50.00000   90.00000   90.00000   90.00000
LATT -1
SFAC C  
C      1  0.5859640000000  0.5295030000000  0.4583350000000 1.0
C      1  0.5183390000000  0.5982480000000  0.4636520000000 1.0
C      1  0.5662340000000  0.4812420000000  0.5903190000000 1.0
C      1  0.5251440000000  0.4599720000000  0.4973580000000 1.0
C      1  0.4063670000000  0.4488530000000  0.5304960000000 1.0
C      1  0.4097600000000  0.4825950000000  0.5337070000000 1.0
C      1  0.4399150000000  0.5282880000000  0.4438620000000 1.0
C      1  0.4996170000000  0.4919670000000  0.5669510000000 1.0
C      1  0.5234920000000  0.4407350000000  0.4477160000000 1.0
C      1  0.4502230000000  0.3936890000000  0.4913820000000 1.0
C      1  0.4571710000000  0.5543670000000  0.4830260000000 1.0
C      1  0.4666490000000  0.5073700000000  0.4414520000000 1.0
C      1  0.5062630000000  0.4581960000000  0.6066340000000 1.0
C      1  0.5316640000000  0.5191130000000  0.4691670000000 1.0
C      1  0.5516850000000  0.4310930000000  0.4339330000000 1.0
C      1  0.4216450000000  0.5727080000000  0.4553180000000 1.0
C      1  0.5076820000000  0.5211130000000  0.5824930000000 1.0
C      1  0.4607980000000  0.4723850000000  0.5543470000000 1.0
C      1  0.4941510000000  0.4878670000000  0.4461380000000 1.0
C      1  0.4278940000000  0.4685510000000  0.4370890000000 1.0
C      1  0.4610440000000  0.4102280000000  0.4718720000000 1.0
C      1  0.5007790000000  0.4847280000000  0.6001670000000 1.0
C      1  0.5285790000000  0.5916340000000  0.5298170000000 1.0
C      1  0.5863830000000  0.4932230000000  0.5678760000000 1.0
C      1  0.3949160000000  0.5544900000000  0.4530920000000 1.0
C      1  0.5560470000000  0.5886070000000  0.5126460000000 1.0
C      1  0.4394610000000  0.5850050000000  0.5311050000000 1.0
C      1  0.4476000000000  0.4620110000000  0.5047240000000 1.0
C      1  0.4486140000000  0.5579970000000  0.4520140000000 1.0
C      1  0.5651160000000  0.5413150000000  0.5732290000000 1.0
C      1  0.6032340000000  0.4549310000000  0.4871190000000 1.0
C      1  0.4824730000000  0.5573130000000  0.6128650000000 1.0
C      1  0.5245040000000  0.5602790000000  0.4951480000000 1.0
C      1  0.5640860000000  0.4337450000000  0.5748270000000 1.0
C      1  0.5004570000000  0.5747960000000  0.5757180000000 1.0
C      1  0.5869670000000  0.5480740000000  0.5586670000000 1.0
C      1  0.5819550000000  0.5051990000000  0.4447710000000 1.0
C      1  0.4198950000000  0.5697020000000  0.5205650000000 1.0
C      1  0.5682390000000  0.4214040000000  0.4949490000000 1.0
C      1  0.5414000000000  0.5544410000000  0.5675340000000 1.0
C      1  0.5225350000000  0.4936940000000  0.4076790000000 1.0
C      1  0.5170300000000  0.5664530000000  0.3972710000000 1.0
C      1  0.4035790000000  0.4787060000000  0.4822920000000 1.0
C      1  0.4866380000000  0.4430860000000  0.3838030000000 1.0
C      1  0.4113470000000  0.4510900000000  0.4791080000000 1.0
C      1  0.5279540000000  0.5380200000000  0.4409950000000 1.0
C      1  0.4997490000000  0.4741910000000  0.4176750000000 1.0
C      1  0.4018780000000  0.5280750000000  0.5100700000000 1.0
C      1  0.5614580000000  0.5120100000000  0.5778220000000 1.0
C      1  0.5803730000000  0.5814330000000  0.5240010000000 1.0
C      1  0.5452830000000  0.4573390000000  0.5782390000000 1.0
C      1  0.5430120000000  0.4886160000000  0.5037630000000 1.0
C      1  0.5128770000000  0.5939280000000  0.5598890000000 1.0
C      1  0.6018320000000  0.5306300000000  0.5100050000000 1.0
C      1  0.5075480000000  0.4115560000000  0.5724010000000 1.0
C      1  0.4092740000000  0.5268560000000  0.4594630000000 1.0
C      1  0.4230530000000  0.4441630000000  0.4541080000000 1.0
C      1  0.4724240000000  0.5211710000000  0.3860540000000 1.0
C      1  0.4449060000000  0.5471420000000  0.5564850000000 1.0
C      1  0.5677990000000  0.4228550000000  0.5460290000000 1.0
C      1  0.4682000000000  0.4546260000000  0.4489170000000 1.0
C      1  0.4450570000000  0.4126050000000  0.5157360000000 1.0
C      1  0.5301280000000  0.4017550000000  0.4702220000000 1.0
C      1  0.4846460000000  0.5440440000000  0.5563660000000 1.0
C      1  0.4196740000000  0.5328690000000  0.5386560000000 1.0
C      1  0.5657710000000  0.4748650000000  0.5259370000000 1.0
C      1  0.4310570000000  0.5435350000000  0.5019230000000 1.0
C      1  0.4698440000000  0.5697810000000  0.5299470000000 1.0
C      1  0.5029480000000  0.5356380000000  0.4956330000000 1.0
C      1  0.5001940000000  0.4097360000000  0.4952590000000 1.0
C      1  0.5510440000000  0.5850750000000  0.4348120000000 1.0
C      1  0.4592530000000  0.4026390000000  0.5449910000000 1.0
C      1  0.4675950000000  0.5662270000000  0.5737050000000 1.0
C      1  0.4742390000000  0.5800570000000  0.4916410000000 1.0
C      1  0.5036510000000  0.5825940000000  0.5085300000000 1.0
C      1  0.4960300000000  0.5420890000000  0.3935390000000 1.0
C      1  0.5143900000000  0.4450960000000  0.5697900000000 1.0
C      1  0.4607800000000  0.4932820000000  0.5071600000000 1.0
C      1  0.4970870000000  0.4286800000000  0.4022270000000 1.0
C      1  0.5346960000000  0.5592110000000  0.5380290000000 1.0
C      1  0.4746670000000  0.4325800000000  0.5664890000000 1.0
C      1  0.4241370000000  0.4372210000000  0.5050900000000 1.0
C      1  0.5989210000000  0.5458390000000  0.4799550000000 1.0
C      1  0.4767090000000  0.5002940000000  0.4792700000000 1.0
C      1  0.4621850000000  0.5993250000000  0.5149650000000 1.0
C      1  0.5540380000000  0.5721490000000  0.4831650000000 1.0
C      1  0.4935570000000  0.4640090000000  0.5506850000000 1.0
C      1  0.5009920000000  0.5635330000000  0.5368050000000 1.0
C      1  0.5758750000000  0.4308550000000  0.4415850000000 1.0
C      1  0.5464290000000  0.4648540000000  0.4546740000000 1.0
C      1  0.4391770000000  0.4550300000000  0.5369250000000 1.0
C      1  0.5335270000000  0.5106020000000  0.5629460000000 1.0
C      1  0.5094190000000  0.6072900000000  0.4874950000000 1.0
C      1  0.5910530000000  0.4920080000000  0.5408790000000 1.0
C      1  0.5544220000000  0.4493760000000  0.4836660000000 1.0
C      1  0.5583240000000  0.5394240000000  0.4749580000000 1.0
C      1  0.4769540000000  0.4229170000000  0.5107460000000 1.0
C      1  0.4352540000000  0.4849210000000  0.5983960000000 1.0
C      1  0.4959490000000  0.4438090000000  0.4324860000000 1.0
C      1  0.5732510000000  0.4984940000000  0.4180970000000 1.0
C      1  0.4909390000000  0.4261260000000  0.5389110000000 1.0
C      1  0.5645440000000  0.4411170000000  0.5214320000000 1.0
C      1  0.5829560000000  0.4085580000000  0.5711470000000 1.0
C      1  0.4875360000000  0.5402480000000  0.4324500000000 1.0
C      1  0.4795700000000  0.5661610000000  0.4111410000000 1.0
C      1  0.5508120000000  0.5134220000000  0.4039890000000 1.0
C      1  0.5026180000000  0.4688050000000  0.4734380000000 1.0
C      1  0.5473650000000  0.4795600000000  0.4240310000000 1.0
C      1  0.4872420000000  0.3966430000000  0.5545370000000 1.0
C      1  0.4715490000000  0.5760440000000  0.4403420000000 1.0
C      1  0.5077210000000  0.4986460000000  0.4820190000000 1.0
C      1  0.5835360000000  0.5501410000000  0.5277050000000 1.0
C      1  0.4970730000000  0.5475860000000  0.4642820000000 1.0
C      1  0.5334160000000  0.4542480000000  0.6093030000000 1.0
C      1  0.4462880000000  0.4255630000000  0.4468100000000 1.0
C      1  0.4348320000000  0.4650200000000  0.5754080000000 1.0
C      1  0.5186090000000  0.4326230000000  0.4782080000000 1.0
C      1  0.6108580000000  0.5069280000000  0.5270270000000 1.0
C      1  0.4756270000000  0.4692730000000  0.3953590000000 1.0
C      1  0.4465870000000  0.4365250000000  0.5637200000000 1.0
C      1  0.4927560000000  0.4337780000000  0.5934600000000 1.0
C      1  0.4607580000000  0.5382660000000  0.4115740000000 1.0
C      1  0.5357060000000  0.4272460000000  0.5265720000000 1.0
C      1  0.4842760000000  0.4743280000000  0.5196420000000 1.0
C      1  0.5836290000000  0.4415110000000  0.4681390000000 1.0
C      1  0.4832870000000  0.5366890000000  0.5955900000000 1.0
C      1  0.5257110000000  0.5687200000000  0.4267120000000 1.0
C      1  0.4794150000000  0.4165520000000  0.4443210000000 1.0
C      1  0.5880050000000  0.5712910000000  0.4817790000000 1.0
C      1  0.4727400000000  0.5953340000000  0.4640660000000 1.0
C      1  0.5226470000000  0.5073630000000  0.5325640000000 1.0
C      1  0.4250840000000  0.4974590000000  0.4645100000000 1.0
C      1  0.4568200000000  0.5286110000000  0.5819490000000 1.0
C      1  0.5269220000000  0.4933830000000  0.4474390000000 1.0
C      1  0.4987780000000  0.4002710000000  0.4635070000000 1.0
C      1  0.4720140000000  0.5824040000000  0.6027460000000 1.0
C      1  0.4083830000000  0.4923490000000  0.4350240000000 1.0
C      1  0.4526450000000  0.4822460000000  0.4557010000000 1.0
C      1  0.4520390000000  0.4695460000000  0.4178680000000 1.0
C      1  0.4718690000000  0.5286870000000  0.4674330000000 1.0
C      1  0.4759950000000  0.5142740000000  0.5591030000000 1.0
C      1  0.4094860000000  0.5092030000000  0.4136170000000 1.0
C      1  0.4560720000000  0.5415140000000  0.5248660000000 1.0
C      1  0.5036040000000  0.5754000000000  0.4486760000000 1.0
C      1  0.5135690000000  0.4488840000000  0.5276870000000 1.0
C      1  0.4084230000000  0.4651330000000  0.5602770000000 1.0
C      1  0.4299310000000  0.5271610000000  0.4138200000000 1.0
C      1  0.3952040000000  0.5114160000000  0.4866740000000 1.0
C      1  0.6377590000000  0.5031970000000  0.5312300000000 1.0
C      1  0.5712930000000  0.4867060000000  0.4624360000000 1.0
C      1  0.4342420000000  0.5104570000000  0.4946350000000 1.0
C      1  0.4284500000000  0.5043080000000  0.5277180000000 1.0
C      1  0.5457630000000  0.5922220000000  0.4610260000000 1.0
C      1  0.4388720000000  0.5095060000000  0.5974400000000 1.0
C      1  0.5466160000000  0.4806380000000  0.5535020000000 1.0
C      1  0.5502890000000  0.3978830000000  0.4917820000000 1.0
C      1  0.5724270000000  0.5233970000000  0.4994640000000 1.0
C      1  0.5327620000000  0.5210580000000  0.5031260000000 1.0
C      1  0.5918270000000  0.4730160000000  0.5041590000000 1.0
C      1  0.5102410000000  0.5018700000000  0.6198600000000 1.0
C      1  0.4570080000000  0.4996940000000  0.5403460000000 1.0
C      1  0.5279930000000  0.4051740000000  0.5099970000000 1.0
C      1  0.5477810000000  0.5384760000000  0.4137390000000 1.0
C      1  0.5050860000000  0.4948050000000  0.5142530000000 1.0
C      1  0.5170200000000  0.5526790000000  0.5813250000000 1.0
C      1  0.4666570000000  0.4989060000000  0.4082480000000 1.0
C      1  0.4091600000000  0.5600340000000  0.4818030000000 1.0
C      1  0.5721240000000  0.4933850000000  0.4911840000000 1.0
C      1  0.5113220000000  0.5224630000000  0.4158050000000 1.0
C      1  0.4768290000000  0.5229640000000  0.5114660000000 1.0
C      1  0.4609780000000  0.4430990000000  0.4796010000000 1.0
C      1  0.5521150000000  0.5422760000000  0.5196530000000 1.0
C      1  0.4858600000000  0.4526090000000  0.4980990000000 1.0
END
