TITL C-2847945-6269-621 -0.000598834322909641 125000 -888.531078264468 0 0 162 (C1) n - 1
REM
REM in /home/bkarasulu/work/CARBON/AIRSS/Generating-Clusters/AIREBO/with-SteepDescent/Only-C1/SD-CG-opt/Try1-1.4A-POS3A/HFTN-CG
REM
REM
REM
REM
REM
REM ./C.cell (11c1c37f851c82e70ff6c80c92926a4b)
REM
REM compiler GCC version 9.2.1 20190827 (Red Hat 9.2.1-1)
REM options -cpp -mtune=generic -march=x86-64 -g -O0 -fpre-include=/usr/include/finclude/math-vector-fortran.h
REM seed -1906507500 -939528592 1275509478 -2147361714 -1450995457 -431644255 1548693697 875646449 -1596477422 -476170568 1947963781 -1759984050 1536694733 2116376458 167549202 -319160561 1059917887 -912447908 51200769 -2026088314 2044367458 583729826 1372367441 -1855636458 585291724 -1407710901 1957887323 1036336049 618732470 -698043264 -1137703039 -371879841 -1958813986
REM
CELL 1.54180   50.00000   50.00000   50.00000   90.00000   90.00000   90.00000
LATT -1
SFAC C  
C      1  0.4298550000000  0.5725930000000  0.5367220000000 1.0
C      1  0.5875170000000  0.5015240000000  0.4615430000000 1.0
C      1  0.5191420000000  0.4280310000000  0.5412950000000 1.0
C      1  0.5960240000000  0.4458650000000  0.4228850000000 1.0
C      1  0.5114090000000  0.5162180000000  0.5056530000000 1.0
C      1  0.4523040000000  0.5650650000000  0.5598390000000 1.0
C      1  0.4031790000000  0.5297550000000  0.5382320000000 1.0
C      1  0.4468740000000  0.5145700000000  0.4757590000000 1.0
C      1  0.4882290000000  0.4342930000000  0.4101990000000 1.0
C      1  0.5701600000000  0.5214300000000  0.5703150000000 1.0
C      1  0.5256060000000  0.4753470000000  0.6035150000000 1.0
C      1  0.5130000000000  0.4976400000000  0.5825530000000 1.0
C      1  0.6051980000000  0.4656400000000  0.5260110000000 1.0
C      1  0.4863340000000  0.5662630000000  0.5628910000000 1.0
C      1  0.4073040000000  0.4782050000000  0.4732520000000 1.0
C      1  0.5685820000000  0.5363830000000  0.4961530000000 1.0
C      1  0.5324330000000  0.5620950000000  0.5170300000000 1.0
C      1  0.4686710000000  0.4180300000000  0.5465490000000 1.0
C      1  0.4206670000000  0.4339520000000  0.4548820000000 1.0
C      1  0.5356630000000  0.5329070000000  0.4998860000000 1.0
C      1  0.4903930000000  0.3941860000000  0.5012370000000 1.0
C      1  0.5925130000000  0.4942980000000  0.5211910000000 1.0
C      1  0.5193230000000  0.4221430000000  0.4166750000000 1.0
C      1  0.5465220000000  0.5637160000000  0.4244720000000 1.0
C      1  0.4877750000000  0.4417630000000  0.5411040000000 1.0
C      1  0.5496630000000  0.5355250000000  0.5517060000000 1.0
C      1  0.4678350000000  0.4569630000000  0.4903900000000 1.0
C      1  0.5520050000000  0.4126160000000  0.5022840000000 1.0
C      1  0.4517170000000  0.5060180000000  0.4038760000000 1.0
C      1  0.5303890000000  0.5915860000000  0.5338340000000 1.0
C      1  0.5166070000000  0.4989210000000  0.4606350000000 1.0
C      1  0.5561750000000  0.5133930000000  0.5935550000000 1.0
C      1  0.5501350000000  0.4855840000000  0.5148120000000 1.0
C      1  0.5552300000000  0.4845080000000  0.5946700000000 1.0
C      1  0.5131440000000  0.5509910000000  0.3908430000000 1.0
C      1  0.4386030000000  0.5454910000000  0.5803390000000 1.0
C      1  0.4228420000000  0.4943590000000  0.5439320000000 1.0
C      1  0.5053870000000  0.5546570000000  0.5372290000000 1.0
C      1  0.4915930000000  0.4135640000000  0.4541190000000 1.0
C      1  0.5353580000000  0.5562580000000  0.5691060000000 1.0
C      1  0.5211020000000  0.5185830000000  0.5442270000000 1.0
C      1  0.5528580000000  0.4648440000000  0.4787160000000 1.0
C      1  0.4601830000000  0.4084940000000  0.4991930000000 1.0
C      1  0.5039710000000  0.5234630000000  0.4022310000000 1.0
C      1  0.4712640000000  0.4617770000000  0.4168950000000 1.0
C      1  0.4891340000000  0.5891010000000  0.4770150000000 1.0
C      1  0.5639930000000  0.4960550000000  0.5403110000000 1.0
C      1  0.5189320000000  0.5696880000000  0.4108220000000 1.0
C      1  0.4660310000000  0.5318720000000  0.4981520000000 1.0
C      1  0.4260940000000  0.5192700000000  0.4492390000000 1.0
C      1  0.5682580000000  0.4784460000000  0.4516940000000 1.0
C      1  0.4910170000000  0.5809390000000  0.4266810000000 1.0
C      1  0.4588590000000  0.5773660000000  0.4385320000000 1.0
C      1  0.3981610000000  0.5102220000000  0.5169360000000 1.0
C      1  0.4715510000000  0.5461460000000  0.4339560000000 1.0
C      1  0.4631210000000  0.5404970000000  0.5417510000000 1.0
C      1  0.5508610000000  0.4905530000000  0.4272170000000 1.0
C      1  0.4202040000000  0.5222180000000  0.5632470000000 1.0
C      1  0.5133370000000  0.4023290000000  0.4394080000000 1.0
C      1  0.5314300000000  0.4741090000000  0.4128410000000 1.0
C      1  0.4952430000000  0.4785980000000  0.5604630000000 1.0
C      1  0.5396710000000  0.5828250000000  0.5633700000000 1.0
C      1  0.5624440000000  0.5885660000000  0.4901940000000 1.0
C      1  0.5856020000000  0.5082150000000  0.4942200000000 1.0
C      1  0.4636010000000  0.4646650000000  0.5339760000000 1.0
C      1  0.4813440000000  0.5341440000000  0.4705240000000 1.0
C      1  0.5385250000000  0.5375470000000  0.4446600000000 1.0
C      1  0.5409610000000  0.5986730000000  0.5033590000000 1.0
C      1  0.5026720000000  0.4694950000000  0.5282420000000 1.0
C      1  0.4469220000000  0.4797130000000  0.4095970000000 1.0
C      1  0.5713790000000  0.5433610000000  0.4381030000000 1.0
C      1  0.4381280000000  0.4720040000000  0.5123500000000 1.0
C      1  0.5097080000000  0.6010290000000  0.5009840000000 1.0
C      1  0.4451060000000  0.5120630000000  0.5925480000000 1.0
C      1  0.4901620000000  0.5044470000000  0.5431290000000 1.0
C      1  0.4892450000000  0.5302240000000  0.5232550000000 1.0
C      1  0.4079490000000  0.5482410000000  0.4829910000000 1.0
C      1  0.4960110000000  0.5088620000000  0.4809980000000 1.0
C      1  0.5281800000000  0.4446360000000  0.4700480000000 1.0
C      1  0.5909930000000  0.4964440000000  0.5609730000000 1.0
C      1  0.4906690000000  0.5213160000000  0.5924240000000 1.0
C      1  0.4252640000000  0.4684680000000  0.5554850000000 1.0
C      1  0.4147900000000  0.5567210000000  0.4572210000000 1.0
C      1  0.5077060000000  0.5448640000000  0.5769670000000 1.0
C      1  0.5119060000000  0.4914290000000  0.3986310000000 1.0
C      1  0.4624260000000  0.5361520000000  0.6027370000000 1.0
C      1  0.5220350000000  0.4924050000000  0.5225380000000 1.0
C      1  0.4761800000000  0.4905210000000  0.4344040000000 1.0
C      1  0.5707420000000  0.4534070000000  0.4304830000000 1.0
C      1  0.5334320000000  0.4152990000000  0.4797480000000 1.0
C      1  0.4333340000000  0.5566170000000  0.4370950000000 1.0
C      1  0.5139060000000  0.6032150000000  0.4320240000000 1.0
C      1  0.4657200000000  0.5611550000000  0.5148510000000 1.0
C      1  0.5625480000000  0.5494470000000  0.5269600000000 1.0
C      1  0.6018520000000  0.5199040000000  0.5397450000000 1.0
C      1  0.4354270000000  0.4860300000000  0.6015020000000 1.0
C      1  0.4092590000000  0.4974740000000  0.4293810000000 1.0
C      1  0.4703700000000  0.3989980000000  0.5269610000000 1.0
C      1  0.4434540000000  0.5810810000000  0.5127770000000 1.0
C      1  0.4741240000000  0.5264230000000  0.4100460000000 1.0
C      1  0.4375560000000  0.5056770000000  0.5161050000000 1.0
C      1  0.4679570000000  0.4964330000000  0.5226610000000 1.0
C      1  0.4619790000000  0.4830090000000  0.5615340000000 1.0
C      1  0.5563100000000  0.4973720000000  0.4859510000000 1.0
C      1  0.5969460000000  0.4238580000000  0.4830870000000 1.0
C      1  0.4986180000000  0.4539780000000  0.4545440000000 1.0
C      1  0.4261220000000  0.4425480000000  0.5438550000000 1.0
C      1  0.5698840000000  0.4141100000000  0.5456340000000 1.0
C      1  0.5030450000000  0.3702950000000  0.4969260000000 1.0
C      1  0.5444470000000  0.4088060000000  0.5291890000000 1.0
C      1  0.3993950000000  0.5002180000000  0.4581080000000 1.0
C      1  0.5551500000000  0.4535610000000  0.5119250000000 1.0
C      1  0.5178690000000  0.4521490000000  0.4300560000000 1.0
C      1  0.4078250000000  0.4828420000000  0.5013680000000 1.0
C      1  0.4942450000000  0.5733260000000  0.5132110000000 1.0
C      1  0.4383020000000  0.5306210000000  0.4195930000000 1.0
C      1  0.4266120000000  0.4412970000000  0.5146820000000 1.0
C      1  0.5296620000000  0.5167060000000  0.4234800000000 1.0
C      1  0.4740750000000  0.4277800000000  0.4375160000000 1.0
C      1  0.5936380000000  0.5452550000000  0.5337600000000 1.0
C      1  0.5779160000000  0.4301160000000  0.5019300000000 1.0
C      1  0.4847860000000  0.5302460000000  0.6245820000000 1.0
C      1  0.5479370000000  0.4394820000000  0.4239470000000 1.0
C      1  0.4650400000000  0.4575030000000  0.4500470000000 1.0
C      1  0.4817010000000  0.4872000000000  0.4972570000000 1.0
C      1  0.5265810000000  0.4409980000000  0.5139040000000 1.0
C      1  0.5243440000000  0.5635020000000  0.4588570000000 1.0
C      1  0.5047730000000  0.4967400000000  0.4318340000000 1.0
C      1  0.4181070000000  0.5208410000000  0.4926460000000 1.0
C      1  0.5691550000000  0.4727580000000  0.5718560000000 1.0
C      1  0.5869510000000  0.5322870000000  0.4609080000000 1.0
C      1  0.4605660000000  0.5898570000000  0.4674580000000 1.0
C      1  0.5329510000000  0.5927740000000  0.4481160000000 1.0
C      1  0.5419050000000  0.4063510000000  0.5827710000000 1.0
C      1  0.4993430000000  0.4514420000000  0.4995900000000 1.0
C      1  0.4318970000000  0.4613600000000  0.4568290000000 1.0
C      1  0.3961670000000  0.5624650000000  0.5043280000000 1.0
C      1  0.4065660000000  0.5571030000000  0.5304480000000 1.0
C      1  0.5128350000000  0.4728890000000  0.4769120000000 1.0
C      1  0.4426130000000  0.5937700000000  0.4877640000000 1.0
C      1  0.4255160000000  0.4751260000000  0.4262150000000 1.0
C      1  0.5143470000000  0.5644030000000  0.4883290000000 1.0
C      1  0.5401840000000  0.5182720000000  0.4700420000000 1.0
C      1  0.4464980000000  0.4808310000000  0.4805830000000 1.0
C      1  0.5450140000000  0.4293450000000  0.5633210000000 1.0
C      1  0.5605120000000  0.5789030000000  0.4514960000000 1.0
C      1  0.4658450000000  0.5155020000000  0.4475510000000 1.0
C      1  0.4918190000000  0.5629000000000  0.4555080000000 1.0
C      1  0.5885500000000  0.4420560000000  0.5304020000000 1.0
C      1  0.5002950000000  0.4205290000000  0.4852790000000 1.0
C      1  0.4503660000000  0.4337020000000  0.4993720000000 1.0
C      1  0.5732840000000  0.5603080000000  0.4746580000000 1.0
C      1  0.5340040000000  0.3953750000000  0.4560370000000 1.0
C      1  0.5297960000000  0.5251670000000  0.5937260000000 1.0
C      1  0.4407380000000  0.4689910000000  0.5810240000000 1.0
C      1  0.4430800000000  0.4236980000000  0.5569110000000 1.0
C      1  0.5168780000000  0.4433690000000  0.6080980000000 1.0
C      1  0.5345380000000  0.4518800000000  0.5819450000000 1.0
C      1  0.5022000000000  0.5913990000000  0.5524440000000 1.0
C      1  0.4531720000000  0.5147240000000  0.5596120000000 1.0
C      1  0.5617480000000  0.4528390000000  0.5452920000000 1.0
C      1  0.5391330000000  0.4981540000000  0.5607850000000 1.0
END
