TITL C-2847952-8118-636 -0.0023330443828791 125000 -379.205643762812 0 0 72 (C1) n - 1
REM
REM in /home/bkarasulu/work/CARBON/AIRSS/Generating-Clusters/AIREBO/with-SteepDescent/Only-C1/SD-CG-opt/Try1-1.4A-POS3A/HFTN-CG
REM
REM
REM
REM
REM
REM ./C.cell (11c1c37f851c82e70ff6c80c92926a4b)
REM
REM compiler GCC version 9.2.1 20190827 (Red Hat 9.2.1-1)
REM options -cpp -mtune=generic -march=x86-64 -g -O0 -fpre-include=/usr/include/finclude/math-vector-fortran.h
REM seed -949861190 338714509 -579014184 -627296495 1068749685 -380706428 -2039712588 -919212871 -989922827 -809314510 758722622 1856029676 616134403 621660047 -523067313 1831763670 -1825930122 -1053216725 1996887128 -20274803 1136356798 1094645929 -544869615 -1067672071 290350613 2021690805 -70031603 -1396215935 -1746838777 -1138309785 -1310105134 -1444918677 -297391170
REM
CELL 1.54180   50.00000   50.00000   50.00000   90.00000   90.00000   90.00000
LATT -1
SFAC C  
C      1  0.5084930000000  0.5788300000000  0.4746920000000 1.0
C      1  0.5638430000000  0.5051150000000  0.5520940000000 1.0
C      1  0.4792560000000  0.4604780000000  0.5558690000000 1.0
C      1  0.5159030000000  0.5578890000000  0.4514080000000 1.0
C      1  0.5089830000000  0.5055220000000  0.5663210000000 1.0
C      1  0.4787580000000  0.4439970000000  0.5268370000000 1.0
C      1  0.4201520000000  0.5087100000000  0.5336280000000 1.0
C      1  0.5243780000000  0.4770840000000  0.5768350000000 1.0
C      1  0.4724110000000  0.5694970000000  0.5257270000000 1.0
C      1  0.4529300000000  0.4620260000000  0.5142200000000 1.0
C      1  0.5743020000000  0.5068730000000  0.4497610000000 1.0
C      1  0.4918410000000  0.4889010000000  0.5420940000000 1.0
C      1  0.5697630000000  0.4709390000000  0.5110340000000 1.0
C      1  0.4564860000000  0.4292630000000  0.5057910000000 1.0
C      1  0.5130100000000  0.5246440000000  0.4357670000000 1.0
C      1  0.4939070000000  0.5495730000000  0.4836910000000 1.0
C      1  0.4675510000000  0.5442630000000  0.4421410000000 1.0
C      1  0.5523320000000  0.4635520000000  0.4912640000000 1.0
C      1  0.4745190000000  0.4836370000000  0.4732120000000 1.0
C      1  0.5391460000000  0.5212150000000  0.5650080000000 1.0
C      1  0.4489260000000  0.5588800000000  0.5479250000000 1.0
C      1  0.4397290000000  0.5390800000000  0.4552520000000 1.0
C      1  0.5122680000000  0.4387960000000  0.4674910000000 1.0
C      1  0.5332400000000  0.4745100000000  0.4425370000000 1.0
C      1  0.5071740000000  0.4355660000000  0.5159390000000 1.0
C      1  0.5788050000000  0.4655340000000  0.4580680000000 1.0
C      1  0.4378330000000  0.5137240000000  0.4704020000000 1.0
C      1  0.5214110000000  0.4508220000000  0.4930650000000 1.0
C      1  0.5530550000000  0.4851250000000  0.4649900000000 1.0
C      1  0.4320850000000  0.4640210000000  0.4653470000000 1.0
C      1  0.5037380000000  0.5225750000000  0.5242980000000 1.0
C      1  0.5052770000000  0.4521920000000  0.5717180000000 1.0
C      1  0.5371160000000  0.5327750000000  0.4564220000000 1.0
C      1  0.5191170000000  0.4846960000000  0.4950240000000 1.0
C      1  0.4666760000000  0.5087340000000  0.4870680000000 1.0
C      1  0.4918490000000  0.5482390000000  0.4310630000000 1.0
C      1  0.5625190000000  0.5176000000000  0.5028660000000 1.0
C      1  0.4882110000000  0.5641360000000  0.5508610000000 1.0
C      1  0.4462970000000  0.4881090000000  0.5266850000000 1.0
C      1  0.4619120000000  0.5304790000000  0.5555900000000 1.0
C      1  0.4658210000000  0.4856300000000  0.5722090000000 1.0
C      1  0.4705290000000  0.5365030000000  0.4734510000000 1.0
C      1  0.5035640000000  0.4577380000000  0.4422480000000 1.0
C      1  0.4562410000000  0.4645470000000  0.4834220000000 1.0
C      1  0.5172890000000  0.5321970000000  0.4983170000000 1.0
C      1  0.5690060000000  0.4971860000000  0.5219850000000 1.0
C      1  0.4803490000000  0.4413750000000  0.4612140000000 1.0
C      1  0.5268840000000  0.4508210000000  0.5471590000000 1.0
C      1  0.5281450000000  0.4809320000000  0.4104550000000 1.0
C      1  0.4535350000000  0.5035030000000  0.5547860000000 1.0
C      1  0.5374040000000  0.5101810000000  0.4818910000000 1.0
C      1  0.4825750000000  0.4828510000000  0.4438110000000 1.0
C      1  0.4471100000000  0.4394000000000  0.4542100000000 1.0
C      1  0.4734760000000  0.5075550000000  0.5203710000000 1.0
C      1  0.4292790000000  0.5360250000000  0.5332200000000 1.0
C      1  0.5257720000000  0.4212750000000  0.5339480000000 1.0
C      1  0.4936310000000  0.5333490000000  0.5542360000000 1.0
C      1  0.5245390000000  0.5652950000000  0.5020290000000 1.0
C      1  0.5779170000000  0.5541230000000  0.4368600000000 1.0
C      1  0.4931160000000  0.5779430000000  0.5050120000000 1.0
C      1  0.4542590000000  0.5351920000000  0.5166170000000 1.0
C      1  0.5396690000000  0.5347250000000  0.5368390000000 1.0
C      1  0.4591780000000  0.4227820000000  0.4787240000000 1.0
C      1  0.5093270000000  0.4960760000000  0.4327040000000 1.0
C      1  0.5648090000000  0.5320060000000  0.4458170000000 1.0
C      1  0.5281410000000  0.5031920000000  0.5313680000000 1.0
C      1  0.4608830000000  0.4855490000000  0.4224560000000 1.0
C      1  0.5573470000000  0.5423270000000  0.5163630000000 1.0
C      1  0.4216830000000  0.4906410000000  0.4650030000000 1.0
C      1  0.5445500000000  0.4795370000000  0.5493890000000 1.0
C      1  0.4847010000000  0.4983690000000  0.5888100000000 1.0
C      1  0.5140630000000  0.4735720000000  0.5250700000000 1.0
END
