TITL C-2847955-7945-317 -0.00156771453282231 125000 -869.650271300987 0 0 158 (C1) n - 1
REM
REM in /home/bkarasulu/work/CARBON/AIRSS/Generating-Clusters/AIREBO/with-SteepDescent/Only-C1/SD-CG-opt/Try1-1.4A-POS3A/HFTN-CG
REM
REM
REM
REM
REM
REM ./C.cell (11c1c37f851c82e70ff6c80c92926a4b)
REM
REM compiler GCC version 9.2.1 20190827 (Red Hat 9.2.1-1)
REM options -cpp -mtune=generic -march=x86-64 -g -O0 -fpre-include=/usr/include/finclude/math-vector-fortran.h
REM seed -1951981393 -952744553 1053183267 1684220428 633854772 -1749939857 -1884889497 -672231973 -1558513966 -2082974562 1464129460 1286678788 -395810698 1748034802 -1334479860 1432069957 155672750 1552610289 1243704048 1652451624 1844986409 -1431242001 -2088590539 105407733 -422383950 839727095 810977778 1079146207 1993238575 -243014931 -1829502406 -2099757946 1910317053
REM
CELL 1.54180   50.00000   50.00000   50.00000   90.00000   90.00000   90.00000
LATT -1
SFAC C  
C      1  0.4128530000000  0.4026810000000  0.5361990000000 1.0
C      1  0.4281620000000  0.4535800000000  0.5008510000000 1.0
C      1  0.4912380000000  0.5581400000000  0.5389830000000 1.0
C      1  0.5049060000000  0.5909560000000  0.4679950000000 1.0
C      1  0.5771150000000  0.4438060000000  0.4319100000000 1.0
C      1  0.5087290000000  0.5828730000000  0.4379630000000 1.0
C      1  0.4117270000000  0.5343430000000  0.4404580000000 1.0
C      1  0.4367680000000  0.4551470000000  0.4679810000000 1.0
C      1  0.4746190000000  0.6022990000000  0.5008100000000 1.0
C      1  0.5413350000000  0.5028340000000  0.4761940000000 1.0
C      1  0.5977130000000  0.4824570000000  0.4740280000000 1.0
C      1  0.4900980000000  0.4727670000000  0.5257930000000 1.0
C      1  0.5173940000000  0.4342910000000  0.5637480000000 1.0
C      1  0.4936270000000  0.5521380000000  0.4987460000000 1.0
C      1  0.4861450000000  0.4498840000000  0.5009540000000 1.0
C      1  0.4378820000000  0.5132930000000  0.4413620000000 1.0
C      1  0.4927360000000  0.5050770000000  0.4902450000000 1.0
C      1  0.4621990000000  0.5553690000000  0.4151480000000 1.0
C      1  0.4636370000000  0.5415960000000  0.5497460000000 1.0
C      1  0.5224190000000  0.4991480000000  0.5527990000000 1.0
C      1  0.5184630000000  0.5325010000000  0.5971260000000 1.0
C      1  0.5884700000000  0.4988690000000  0.5010500000000 1.0
C      1  0.5036600000000  0.4210600000000  0.4573200000000 1.0
C      1  0.4449010000000  0.5023350000000  0.4035660000000 1.0
C      1  0.4226310000000  0.5140110000000  0.5254030000000 1.0
C      1  0.5150380000000  0.4615830000000  0.4763050000000 1.0
C      1  0.4703930000000  0.4953420000000  0.4585420000000 1.0
C      1  0.4984690000000  0.6016030000000  0.5144620000000 1.0
C      1  0.5360450000000  0.5290560000000  0.5615910000000 1.0
C      1  0.4888850000000  0.4520740000000  0.4339470000000 1.0
C      1  0.4871990000000  0.4021230000000  0.4802780000000 1.0
C      1  0.5663380000000  0.5482490000000  0.5255070000000 1.0
C      1  0.4610310000000  0.5253210000000  0.4193750000000 1.0
C      1  0.5055530000000  0.5350670000000  0.4500630000000 1.0
C      1  0.5029150000000  0.4620770000000  0.5525900000000 1.0
C      1  0.5119890000000  0.5078780000000  0.4651560000000 1.0
C      1  0.5251920000000  0.5797410000000  0.5700630000000 1.0
C      1  0.4631140000000  0.4973090000000  0.5476940000000 1.0
C      1  0.5476950000000  0.4844320000000  0.4521170000000 1.0
C      1  0.5270010000000  0.4774280000000  0.5867130000000 1.0
C      1  0.5814160000000  0.4819960000000  0.5300260000000 1.0
C      1  0.4451800000000  0.4274900000000  0.4859040000000 1.0
C      1  0.4249290000000  0.4835430000000  0.5128300000000 1.0
C      1  0.4154970000000  0.5562840000000  0.4573270000000 1.0
C      1  0.4162280000000  0.4387540000000  0.4477270000000 1.0
C      1  0.5476950000000  0.4085890000000  0.5261630000000 1.0
C      1  0.5756770000000  0.5468170000000  0.4938800000000 1.0
C      1  0.4559560000000  0.4030280000000  0.4668820000000 1.0
C      1  0.5153410000000  0.4520260000000  0.5892420000000 1.0
C      1  0.4726020000000  0.4324570000000  0.5435340000000 1.0
C      1  0.4491310000000  0.5929490000000  0.5152640000000 1.0
C      1  0.5743220000000  0.4882230000000  0.5917160000000 1.0
C      1  0.5787220000000  0.5220850000000  0.4449690000000 1.0
C      1  0.4683080000000  0.5656250000000  0.5151860000000 1.0
C      1  0.5086670000000  0.5203610000000  0.5340620000000 1.0
C      1  0.4759260000000  0.4648020000000  0.6125580000000 1.0
C      1  0.6068830000000  0.4568420000000  0.4830330000000 1.0
C      1  0.4286990000000  0.5658460000000  0.5131770000000 1.0
C      1  0.4573380000000  0.4784310000000  0.5200070000000 1.0
C      1  0.5473740000000  0.4530110000000  0.4827880000000 1.0
C      1  0.4896780000000  0.5149320000000  0.4199130000000 1.0
C      1  0.5285880000000  0.6113040000000  0.5196200000000 1.0
C      1  0.4335140000000  0.4395150000000  0.5644410000000 1.0
C      1  0.4290320000000  0.5236220000000  0.5908750000000 1.0
C      1  0.5016380000000  0.4246970000000  0.5351850000000 1.0
C      1  0.3908680000000  0.4411100000000  0.4394450000000 1.0
C      1  0.5586690000000  0.5287740000000  0.4716120000000 1.0
C      1  0.4354240000000  0.4195090000000  0.5365150000000 1.0
C      1  0.5358790000000  0.5749950000000  0.4404510000000 1.0
C      1  0.4959240000000  0.4839820000000  0.3960080000000 1.0
C      1  0.5270690000000  0.5517600000000  0.5040860000000 1.0
C      1  0.5425910000000  0.5532240000000  0.4247910000000 1.0
C      1  0.5703410000000  0.4347780000000  0.5260850000000 1.0
C      1  0.4861790000000  0.5177990000000  0.5588220000000 1.0
C      1  0.5080780000000  0.5154600000000  0.3918100000000 1.0
C      1  0.4562110000000  0.5204030000000  0.5237470000000 1.0
C      1  0.4446150000000  0.4803180000000  0.4463170000000 1.0
C      1  0.4223230000000  0.4994490000000  0.5820400000000 1.0
C      1  0.5709300000000  0.5142030000000  0.6000090000000 1.0
C      1  0.5489940000000  0.5774890000000  0.5249580000000 1.0
C      1  0.5863350000000  0.5214390000000  0.5615780000000 1.0
C      1  0.5278060000000  0.6050190000000  0.4876860000000 1.0
C      1  0.4745930000000  0.5489360000000  0.4523730000000 1.0
C      1  0.5987540000000  0.5273230000000  0.4895210000000 1.0
C      1  0.5434240000000  0.4347080000000  0.5460620000000 1.0
C      1  0.5063820000000  0.5041770000000  0.5825440000000 1.0
C      1  0.5647930000000  0.5344600000000  0.5523780000000 1.0
C      1  0.4520950000000  0.4463510000000  0.5239330000000 1.0
C      1  0.5616630000000  0.4345930000000  0.4580320000000 1.0
C      1  0.4335850000000  0.5753870000000  0.4467370000000 1.0
C      1  0.4491950000000  0.5385410000000  0.5802660000000 1.0
C      1  0.5538360000000  0.4762240000000  0.5770740000000 1.0
C      1  0.4881130000000  0.5240990000000  0.5125300000000 1.0
C      1  0.4199030000000  0.4998510000000  0.4881190000000 1.0
C      1  0.5167590000000  0.5354490000000  0.4183760000000 1.0
C      1  0.5479440000000  0.5272960000000  0.5928590000000 1.0
C      1  0.4404110000000  0.4231730000000  0.4443310000000 1.0
C      1  0.5751660000000  0.4714880000000  0.4262080000000 1.0
C      1  0.4554540000000  0.5409800000000  0.4973650000000 1.0
C      1  0.4356820000000  0.5869700000000  0.5574310000000 1.0
C      1  0.4866470000000  0.5690950000000  0.4277730000000 1.0
C      1  0.5628190000000  0.5158810000000  0.5155470000000 1.0
C      1  0.5459250000000  0.4172140000000  0.4796730000000 1.0
C      1  0.5459880000000  0.4827140000000  0.4125830000000 1.0
C      1  0.5688400000000  0.5456940000000  0.4242380000000 1.0
C      1  0.5366230000000  0.5964300000000  0.5491270000000 1.0
C      1  0.5649330000000  0.5763260000000  0.4974620000000 1.0
C      1  0.4309860000000  0.4932410000000  0.5509930000000 1.0
C      1  0.4655920000000  0.4617680000000  0.4847430000000 1.0
C      1  0.4597450000000  0.5779750000000  0.4593550000000 1.0
C      1  0.5578660000000  0.4654080000000  0.5483450000000 1.0
C      1  0.4306990000000  0.4677040000000  0.5729780000000 1.0
C      1  0.5421400000000  0.4900450000000  0.5077020000000 1.0
C      1  0.4973720000000  0.4472480000000  0.6100810000000 1.0
C      1  0.4762880000000  0.4677340000000  0.4097450000000 1.0
C      1  0.4897370000000  0.4034120000000  0.5114690000000 1.0
C      1  0.5331670000000  0.5274060000000  0.5182530000000 1.0
C      1  0.5180980000000  0.3954670000000  0.5295920000000 1.0
C      1  0.5255870000000  0.4224570000000  0.4099590000000 1.0
C      1  0.5100960000000  0.4818220000000  0.4998280000000 1.0
C      1  0.5151100000000  0.5742630000000  0.5239440000000 1.0
C      1  0.4644950000000  0.4927460000000  0.4904750000000 1.0
C      1  0.3807030000000  0.5403290000000  0.5229350000000 1.0
C      1  0.5292510000000  0.4719840000000  0.5334890000000 1.0
C      1  0.4045410000000  0.5344290000000  0.5141350000000 1.0
C      1  0.4525380000000  0.4763340000000  0.5942470000000 1.0
C      1  0.4801720000000  0.4928300000000  0.5980910000000 1.0
C      1  0.5559480000000  0.4004440000000  0.4992960000000 1.0
C      1  0.4627370000000  0.5266300000000  0.4694750000000 1.0
C      1  0.5168320000000  0.4456310000000  0.5150060000000 1.0
C      1  0.5086930000000  0.5591910000000  0.4700680000000 1.0
C      1  0.5881270000000  0.4895190000000  0.4477270000000 1.0
C      1  0.5158900000000  0.5533300000000  0.5579950000000 1.0
C      1  0.5180580000000  0.3684670000000  0.5427780000000 1.0
C      1  0.4299770000000  0.5219740000000  0.4734860000000 1.0
C      1  0.4175240000000  0.5490550000000  0.4881890000000 1.0
C      1  0.5182520000000  0.4386800000000  0.4347300000000 1.0
C      1  0.5163790000000  0.4288540000000  0.4854320000000 1.0
C      1  0.5405050000000  0.5539570000000  0.4756040000000 1.0
C      1  0.5493300000000  0.5856960000000  0.4697870000000 1.0
C      1  0.4409310000000  0.6097660000000  0.5410760000000 1.0
C      1  0.5141250000000  0.5616380000000  0.5965240000000 1.0
C      1  0.5145610000000  0.4915050000000  0.4225960000000 1.0
C      1  0.5413230000000  0.4561310000000  0.4446550000000 1.0
C      1  0.5546470000000  0.5049030000000  0.4322590000000 1.0
C      1  0.4598480000000  0.4279750000000  0.5669540000000 1.0
C      1  0.4833470000000  0.3974150000000  0.4465970000000 1.0
C      1  0.4509570000000  0.4781370000000  0.4153620000000 1.0
C      1  0.6064130000000  0.5284270000000  0.4623120000000 1.0
C      1  0.4390650000000  0.5631400000000  0.5423580000000 1.0
C      1  0.5628350000000  0.4630740000000  0.5087350000000 1.0
C      1  0.4694630000000  0.4267400000000  0.4377230000000 1.0
C      1  0.5966660000000  0.4982330000000  0.5518180000000 1.0
C      1  0.4997170000000  0.4795880000000  0.4507990000000 1.0
C      1  0.4761080000000  0.5954930000000  0.4742230000000 1.0
C      1  0.5900470000000  0.4446900000000  0.4999030000000 1.0
C      1  0.4386550000000  0.5709840000000  0.4187140000000 1.0
C      1  0.4564690000000  0.4090890000000  0.5118610000000 1.0
END
