TITL C-2848496-4490-491 0.00012759546077345 125000 -943.873853056095 0 0 171 (C1) n - 1
REM
REM in /home/bkarasulu/work/CARBON/AIRSS/Generating-Clusters/AIREBO/with-SteepDescent/Only-C1/SD-CG-opt/Try1-1.4A-POS3A/HFTN-CG
REM
REM
REM
REM
REM
REM ./C.cell (11c1c37f851c82e70ff6c80c92926a4b)
REM
REM compiler GCC version 9.2.1 20190827 (Red Hat 9.2.1-1)
REM options -cpp -mtune=generic -march=x86-64 -g -O0 -fpre-include=/usr/include/finclude/math-vector-fortran.h
REM seed 1442116801 -723355400 554848202 -1930872171 1279975457 -5492415 1148092863 -1956526221 1844632553 2087518036 -1044043749 -900872865 1714801590 1342726595 -1530602615 19902258 -941387052 1158791349 -61822977 -1462580381 -6130268 1595133399 1216910073 -1882435197 692621252 -445946384 1303971918 888063821 -304562488 -1203393333 328893552 1180638935 1116702192
REM
CELL 1.54180   50.00000   50.00000   50.00000   90.00000   90.00000   90.00000
LATT -1
SFAC C  
C      1  0.5115250000000  0.5566960000000  0.5295000000000 1.0
C      1  0.4338590000000  0.4842240000000  0.5115160000000 1.0
C      1  0.5052070000000  0.3800010000000  0.5317230000000 1.0
C      1  0.4323320000000  0.5704100000000  0.5528320000000 1.0
C      1  0.5394160000000  0.5277680000000  0.4939130000000 1.0
C      1  0.5894400000000  0.5225360000000  0.5828600000000 1.0
C      1  0.5732350000000  0.5794470000000  0.5547680000000 1.0
C      1  0.5183210000000  0.6134270000000  0.5008410000000 1.0
C      1  0.4786720000000  0.3827450000000  0.5151670000000 1.0
C      1  0.4449200000000  0.4320460000000  0.4404410000000 1.0
C      1  0.4647860000000  0.5318410000000  0.4424730000000 1.0
C      1  0.4902870000000  0.5335840000000  0.5210780000000 1.0
C      1  0.4239740000000  0.5067390000000  0.5555900000000 1.0
C      1  0.5390670000000  0.5463870000000  0.5223670000000 1.0
C      1  0.5161230000000  0.4735260000000  0.5744760000000 1.0
C      1  0.4821510000000  0.4731400000000  0.5729860000000 1.0
C      1  0.5557560000000  0.5726980000000  0.4430280000000 1.0
C      1  0.5204490000000  0.6043350000000  0.5325650000000 1.0
C      1  0.5928390000000  0.4955170000000  0.5625000000000 1.0
C      1  0.4141120000000  0.4800940000000  0.4553800000000 1.0
C      1  0.4419760000000  0.5308580000000  0.4677560000000 1.0
C      1  0.4511110000000  0.4159690000000  0.5497430000000 1.0
C      1  0.5246130000000  0.5148110000000  0.4592650000000 1.0
C      1  0.4633590000000  0.4100500000000  0.5185840000000 1.0
C      1  0.4779290000000  0.6006430000000  0.5426090000000 1.0
C      1  0.5654190000000  0.5039740000000  0.5450860000000 1.0
C      1  0.5379900000000  0.3866420000000  0.4864540000000 1.0
C      1  0.4102040000000  0.5290480000000  0.4729860000000 1.0
C      1  0.5583900000000  0.4420560000000  0.5636620000000 1.0
C      1  0.4484900000000  0.5788880000000  0.5081240000000 1.0
C      1  0.4435880000000  0.4645880000000  0.5769860000000 1.0
C      1  0.5033220000000  0.5218970000000  0.5862780000000 1.0
C      1  0.5491660000000  0.5046150000000  0.4234750000000 1.0
C      1  0.4873620000000  0.4321780000000  0.5884620000000 1.0
C      1  0.4611090000000  0.6017150000000  0.4935970000000 1.0
C      1  0.5511000000000  0.4034240000000  0.5202180000000 1.0
C      1  0.5135700000000  0.4259650000000  0.5496580000000 1.0
C      1  0.4656480000000  0.5729350000000  0.5580580000000 1.0
C      1  0.4538500000000  0.4770690000000  0.4530990000000 1.0
C      1  0.5012370000000  0.4141410000000  0.4477340000000 1.0
C      1  0.5115070000000  0.5532280000000  0.5855570000000 1.0
C      1  0.4825870000000  0.4269130000000  0.5492640000000 1.0
C      1  0.5797410000000  0.5599310000000  0.5369930000000 1.0
C      1  0.5365060000000  0.4812620000000  0.4048980000000 1.0
C      1  0.5841790000000  0.4562400000000  0.5009170000000 1.0
C      1  0.4548980000000  0.5231630000000  0.5362910000000 1.0
C      1  0.5323870000000  0.5111980000000  0.5413640000000 1.0
C      1  0.5565970000000  0.5106640000000  0.4700690000000 1.0
C      1  0.5563360000000  0.4699400000000  0.4870040000000 1.0
C      1  0.4798970000000  0.5085730000000  0.4861590000000 1.0
C      1  0.4412220000000  0.4615280000000  0.5340350000000 1.0
C      1  0.5735250000000  0.4287180000000  0.4840180000000 1.0
C      1  0.5084780000000  0.5682950000000  0.4067010000000 1.0
C      1  0.5428570000000  0.4558030000000  0.4201160000000 1.0
C      1  0.3973070000000  0.5373540000000  0.5220620000000 1.0
C      1  0.5156070000000  0.5825810000000  0.4264630000000 1.0
C      1  0.4882260000000  0.4865070000000  0.4070240000000 1.0
C      1  0.3774810000000  0.4760370000000  0.5259700000000 1.0
C      1  0.5104800000000  0.4972350000000  0.4847710000000 1.0
C      1  0.5076470000000  0.4384470000000  0.4787520000000 1.0
C      1  0.4196510000000  0.4500290000000  0.4808340000000 1.0
C      1  0.6103450000000  0.4765120000000  0.5466270000000 1.0
C      1  0.5325300000000  0.4852210000000  0.4444780000000 1.0
C      1  0.5451850000000  0.6070860000000  0.4833490000000 1.0
C      1  0.5669250000000  0.5502760000000  0.4759720000000 1.0
C      1  0.4444800000000  0.5556010000000  0.4366770000000 1.0
C      1  0.5914040000000  0.4916130000000  0.4171370000000 1.0
C      1  0.5175000000000  0.5683330000000  0.4537450000000 1.0
C      1  0.4848830000000  0.5085470000000  0.6027190000000 1.0
C      1  0.4199720000000  0.5431140000000  0.4339710000000 1.0
C      1  0.5413180000000  0.5440770000000  0.4544050000000 1.0
C      1  0.5098120000000  0.5042090000000  0.5612370000000 1.0
C      1  0.4561390000000  0.5029220000000  0.4682180000000 1.0
C      1  0.5171760000000  0.5141830000000  0.5134950000000 1.0
C      1  0.4525350000000  0.5824390000000  0.4421580000000 1.0
C      1  0.5094460000000  0.4469080000000  0.5945630000000 1.0
C      1  0.4506630000000  0.5497380000000  0.4924910000000 1.0
C      1  0.4925870000000  0.4336100000000  0.4295560000000 1.0
C      1  0.4710930000000  0.5156770000000  0.3858160000000 1.0
C      1  0.4144260000000  0.5097800000000  0.4387870000000 1.0
C      1  0.5265990000000  0.5810180000000  0.4823490000000 1.0
C      1  0.4659390000000  0.4385940000000  0.4228480000000 1.0
C      1  0.5495900000000  0.4329300000000  0.4351810000000 1.0
C      1  0.4295900000000  0.5444560000000  0.5143890000000 1.0
C      1  0.5132540000000  0.4908200000000  0.3928600000000 1.0
C      1  0.5038000000000  0.5811440000000  0.5151220000000 1.0
C      1  0.5551380000000  0.4655470000000  0.4574400000000 1.0
C      1  0.4903320000000  0.4175270000000  0.4992370000000 1.0
C      1  0.5294440000000  0.4231490000000  0.4575600000000 1.0
C      1  0.5668070000000  0.4966050000000  0.5843490000000 1.0
C      1  0.4969210000000  0.5482590000000  0.5575070000000 1.0
C      1  0.4988110000000  0.5304450000000  0.4424860000000 1.0
C      1  0.5561540000000  0.5293330000000  0.5814890000000 1.0
C      1  0.5181870000000  0.4534170000000  0.5176400000000 1.0
C      1  0.5528630000000  0.5960080000000  0.4521310000000 1.0
C      1  0.4661740000000  0.5912690000000  0.4651680000000 1.0
C      1  0.4969350000000  0.4687420000000  0.4720460000000 1.0
C      1  0.5151190000000  0.3949610000000  0.5050110000000 1.0
C      1  0.5984160000000  0.4859600000000  0.4610130000000 1.0
C      1  0.4570850000000  0.5059710000000  0.5112360000000 1.0
C      1  0.4663040000000  0.5392360000000  0.5625980000000 1.0
C      1  0.4858440000000  0.6094590000000  0.5107370000000 1.0
C      1  0.4586970000000  0.4928310000000  0.5877620000000 1.0
C      1  0.4466160000000  0.5167080000000  0.5745220000000 1.0
C      1  0.5946770000000  0.5339310000000  0.4392930000000 1.0
C      1  0.5741040000000  0.4175520000000  0.5145370000000 1.0
C      1  0.4512080000000  0.4524730000000  0.4741860000000 1.0
C      1  0.4745410000000  0.4613680000000  0.4936230000000 1.0
C      1  0.4728560000000  0.4651120000000  0.5431840000000 1.0
C      1  0.5120780000000  0.4616440000000  0.4307360000000 1.0
C      1  0.4710590000000  0.5129730000000  0.4197130000000 1.0
C      1  0.5242890000000  0.4568750000000  0.5489230000000 1.0
C      1  0.4558740000000  0.4207520000000  0.4651760000000 1.0
C      1  0.5903080000000  0.5335850000000  0.4680180000000 1.0
C      1  0.5015880000000  0.5191470000000  0.3888050000000 1.0
C      1  0.5781350000000  0.4380430000000  0.5359670000000 1.0
C      1  0.4786380000000  0.4829190000000  0.5166710000000 1.0
C      1  0.5385210000000  0.5325350000000  0.4226790000000 1.0
C      1  0.5082000000000  0.4605820000000  0.6216380000000 1.0
C      1  0.5655550000000  0.5583030000000  0.5090360000000 1.0
C      1  0.4903230000000  0.4794510000000  0.6067640000000 1.0
C      1  0.5537270000000  0.4595340000000  0.5348690000000 1.0
C      1  0.4204420000000  0.4749990000000  0.5561180000000 1.0
C      1  0.4223180000000  0.4481220000000  0.4469750000000 1.0
C      1  0.5174910000000  0.3924670000000  0.5539890000000 1.0
C      1  0.5821800000000  0.5323190000000  0.5513400000000 1.0
C      1  0.5306330000000  0.6002820000000  0.5571940000000 1.0
C      1  0.4863580000000  0.5750370000000  0.5849430000000 1.0
C      1  0.4688080000000  0.5592800000000  0.5270750000000 1.0
C      1  0.5287740000000  0.4715040000000  0.4974040000000 1.0
C      1  0.5769680000000  0.5051180000000  0.4428670000000 1.0
C      1  0.4497000000000  0.4938150000000  0.4008740000000 1.0
C      1  0.3840770000000  0.4873370000000  0.5025990000000 1.0
C      1  0.4892460000000  0.5564570000000  0.4610440000000 1.0
C      1  0.5498450000000  0.4716260000000  0.5783830000000 1.0
C      1  0.4155400000000  0.5087850000000  0.5248030000000 1.0
C      1  0.4601970000000  0.4397800000000  0.5714190000000 1.0
C      1  0.4841810000000  0.5064230000000  0.5406060000000 1.0
C      1  0.4828450000000  0.5408960000000  0.4893220000000 1.0
C      1  0.3909890000000  0.4687040000000  0.5485720000000 1.0
C      1  0.4828760000000  0.4699560000000  0.4424720000000 1.0
C      1  0.4452030000000  0.6017960000000  0.4235020000000 1.0
C      1  0.3918140000000  0.5334090000000  0.4475150000000 1.0
C      1  0.5952230000000  0.5090620000000  0.4798190000000 1.0
C      1  0.4645310000000  0.4668060000000  0.4140060000000 1.0
C      1  0.4277650000000  0.5396210000000  0.5477770000000 1.0
C      1  0.6001110000000  0.4592500000000  0.5282770000000 1.0
C      1  0.4167770000000  0.4301580000000  0.5040310000000 1.0
C      1  0.5156230000000  0.5499130000000  0.4903380000000 1.0
C      1  0.4809840000000  0.4051780000000  0.4689660000000 1.0
C      1  0.5632500000000  0.4843790000000  0.5234990000000 1.0
C      1  0.5097450000000  0.5376660000000  0.4113090000000 1.0
C      1  0.4868030000000  0.4440820000000  0.5202140000000 1.0
C      1  0.4337000000000  0.4872110000000  0.4284060000000 1.0
C      1  0.5413140000000  0.4143740000000  0.5655590000000 1.0
C      1  0.4801230000000  0.3781740000000  0.4877370000000 1.0
C      1  0.5927670000000  0.4604890000000  0.4698380000000 1.0
C      1  0.5409150000000  0.5586820000000  0.5846740000000 1.0
C      1  0.5486150000000  0.5812600000000  0.5688170000000 1.0
C      1  0.4264920000000  0.5853040000000  0.5295230000000 1.0
C      1  0.4110440000000  0.4794970000000  0.4890170000000 1.0
C      1  0.5717770000000  0.4969050000000  0.4969450000000 1.0
C      1  0.4371010000000  0.4312740000000  0.5239550000000 1.0
C      1  0.5661950000000  0.5821650000000  0.4870400000000 1.0
C      1  0.4361100000000  0.6202690000000  0.4072900000000 1.0
C      1  0.3977860000000  0.5164390000000  0.4966150000000 1.0
C      1  0.5485720000000  0.5391160000000  0.5508480000000 1.0
C      1  0.5759860000000  0.4393120000000  0.4515350000000 1.0
C      1  0.5499800000000  0.4082760000000  0.4741980000000 1.0
C      1  0.5247420000000  0.4214840000000  0.5191540000000 1.0
C      1  0.4937490000000  0.5822520000000  0.4825970000000 1.0
END
