TITL C-2847946-5639-245 0.000958893923521253 125000 -756.761455980047 0 0 132 (C1) n - 1
REM
REM in /home/bkarasulu/work/CARBON/AIRSS/Generating-Clusters/AIREBO/with-SteepDescent/Only-C1/SD-CG-opt/Try1-1.4A-POS3A/HFTN-CG
REM
REM
REM
REM
REM
REM ./C.cell (11c1c37f851c82e70ff6c80c92926a4b)
REM
REM compiler GCC version 9.2.1 20190827 (Red Hat 9.2.1-1)
REM options -cpp -mtune=generic -march=x86-64 -g -O0 -fpre-include=/usr/include/finclude/math-vector-fortran.h
REM seed -351376637 1400648611 -1320493255 -1608406133 1205670969 -1645068871 -1567843793 -753131953 887609386 -1890350171 1090184873 1639267544 -716903103 519724004 1491768758 812071990 -1085028349 1039117366 685470948 182021015 -2080914756 -1890907755 -191247169 -1602472948 -274228303 -689807442 -643835705 318783962 -33454719 1216867478 1447676794 2130296241 -731482519
REM
CELL 1.54180   50.00000   50.00000   50.00000   90.00000   90.00000   90.00000
LATT -1
SFAC C  
C      1  0.5087620000000  0.4541500000000  0.4261960000000 1.0
C      1  0.4079220000000  0.4614400000000  0.5238590000000 1.0
C      1  0.5317280000000  0.5006360000000  0.5711350000000 1.0
C      1  0.4653080000000  0.4725610000000  0.4445210000000 1.0
C      1  0.4525790000000  0.5568280000000  0.4302790000000 1.0
C      1  0.4143730000000  0.4883770000000  0.4331030000000 1.0
C      1  0.4829050000000  0.5064820000000  0.4657730000000 1.0
C      1  0.4621920000000  0.4310110000000  0.5011040000000 1.0
C      1  0.4916180000000  0.5630110000000  0.5378370000000 1.0
C      1  0.4800110000000  0.5148300000000  0.5610570000000 1.0
C      1  0.4170540000000  0.4936460000000  0.5735410000000 1.0
C      1  0.4325510000000  0.4729880000000  0.4524930000000 1.0
C      1  0.5112310000000  0.6029710000000  0.4637190000000 1.0
C      1  0.5691620000000  0.5497520000000  0.5356260000000 1.0
C      1  0.5246250000000  0.4535110000000  0.5864990000000 1.0
C      1  0.4298810000000  0.4345680000000  0.4894410000000 1.0
C      1  0.5505600000000  0.5258740000000  0.4306880000000 1.0
C      1  0.4322330000000  0.5473320000000  0.5572740000000 1.0
C      1  0.5559840000000  0.5545270000000  0.4821320000000 1.0
C      1  0.5804710000000  0.5265680000000  0.4680340000000 1.0
C      1  0.5308990000000  0.5663270000000  0.4221390000000 1.0
C      1  0.4770720000000  0.5459330000000  0.4826510000000 1.0
C      1  0.4932960000000  0.5289950000000  0.4433050000000 1.0
C      1  0.5872420000000  0.4543120000000  0.5699530000000 1.0
C      1  0.5688580000000  0.5287860000000  0.5617350000000 1.0
C      1  0.4335090000000  0.5068620000000  0.5870120000000 1.0
C      1  0.5814670000000  0.5030360000000  0.5618110000000 1.0
C      1  0.4334030000000  0.5240750000000  0.4017380000000 1.0
C      1  0.5178090000000  0.4797260000000  0.4938940000000 1.0
C      1  0.4186280000000  0.5356720000000  0.5369810000000 1.0
C      1  0.4801920000000  0.6002980000000  0.4737150000000 1.0
C      1  0.4648660000000  0.5536810000000  0.5098050000000 1.0
C      1  0.4848330000000  0.5088120000000  0.5220040000000 1.0
C      1  0.4241430000000  0.5183000000000  0.3771430000000 1.0
C      1  0.4530660000000  0.4410070000000  0.5398330000000 1.0
C      1  0.5063620000000  0.5379060000000  0.4922370000000 1.0
C      1  0.5994600000000  0.4511170000000  0.5238210000000 1.0
C      1  0.5970870000000  0.5327720000000  0.4922090000000 1.0
C      1  0.4451320000000  0.4261140000000  0.4653470000000 1.0
C      1  0.5617080000000  0.5423130000000  0.4508930000000 1.0
C      1  0.4743250000000  0.5371690000000  0.5360590000000 1.0
C      1  0.5525850000000  0.4457640000000  0.5320320000000 1.0
C      1  0.4404500000000  0.4335830000000  0.4148280000000 1.0
C      1  0.5423040000000  0.4029000000000  0.4855490000000 1.0
C      1  0.4840720000000  0.4498030000000  0.5382600000000 1.0
C      1  0.5521810000000  0.5074520000000  0.4677930000000 1.0
C      1  0.4455410000000  0.4449310000000  0.4422130000000 1.0
C      1  0.5436410000000  0.4339600000000  0.4784040000000 1.0
C      1  0.4755340000000  0.5547440000000  0.4498220000000 1.0
C      1  0.5171370000000  0.5628450000000  0.5220700000000 1.0
C      1  0.5077480000000  0.4972430000000  0.5522190000000 1.0
C      1  0.4933450000000  0.4676480000000  0.4496310000000 1.0
C      1  0.3798540000000  0.5410600000000  0.4469990000000 1.0
C      1  0.5929330000000  0.5032930000000  0.4974820000000 1.0
C      1  0.5419540000000  0.5254170000000  0.5686530000000 1.0
C      1  0.4483170000000  0.4816860000000  0.4794860000000 1.0
C      1  0.5449850000000  0.4737090000000  0.5756480000000 1.0
C      1  0.6076680000000  0.4852580000000  0.4822620000000 1.0
C      1  0.5439030000000  0.5704920000000  0.5362410000000 1.0
C      1  0.5247050000000  0.4333270000000  0.4361550000000 1.0
C      1  0.4694100000000  0.4631800000000  0.4927540000000 1.0
C      1  0.5288430000000  0.3925510000000  0.5040410000000 1.0
C      1  0.5278500000000  0.5503350000000  0.4705180000000 1.0
C      1  0.4561240000000  0.5043080000000  0.4450790000000 1.0
C      1  0.4594010000000  0.4129080000000  0.5297520000000 1.0
C      1  0.5033970000000  0.5264670000000  0.4133060000000 1.0
C      1  0.5863730000000  0.4954300000000  0.5357860000000 1.0
C      1  0.3966870000000  0.5461370000000  0.5253890000000 1.0
C      1  0.4546740000000  0.5128150000000  0.4837710000000 1.0
C      1  0.4405930000000  0.5738600000000  0.4854570000000 1.0
C      1  0.5244790000000  0.5406520000000  0.5542080000000 1.0
C      1  0.4549180000000  0.5426540000000  0.4061670000000 1.0
C      1  0.4988300000000  0.4670110000000  0.5887220000000 1.0
C      1  0.5650580000000  0.5809640000000  0.4853670000000 1.0
C      1  0.5229740000000  0.4298630000000  0.5706680000000 1.0
C      1  0.4348020000000  0.5281820000000  0.4517500000000 1.0
C      1  0.4481260000000  0.5618230000000  0.5827020000000 1.0
C      1  0.4269860000000  0.5648260000000  0.4378770000000 1.0
C      1  0.4840380000000  0.4037690000000  0.5397230000000 1.0
C      1  0.4542060000000  0.5972960000000  0.4821480000000 1.0
C      1  0.5492450000000  0.4820580000000  0.4902630000000 1.0
C      1  0.5311590000000  0.5396090000000  0.4156800000000 1.0
C      1  0.5216210000000  0.5730690000000  0.4509180000000 1.0
C      1  0.5746180000000  0.4790640000000  0.5773420000000 1.0
C      1  0.4855830000000  0.5144570000000  0.5934580000000 1.0
C      1  0.5816300000000  0.4436630000000  0.5441180000000 1.0
C      1  0.5101050000000  0.4330590000000  0.4839490000000 1.0
C      1  0.4536280000000  0.5105880000000  0.5145760000000 1.0
C      1  0.4684720000000  0.4107320000000  0.4745340000000 1.0
C      1  0.5598760000000  0.5359890000000  0.5064010000000 1.0
C      1  0.5046000000000  0.4972910000000  0.4029100000000 1.0
C      1  0.5342420000000  0.4239750000000  0.5434070000000 1.0
C      1  0.4435460000000  0.5429240000000  0.4778340000000 1.0
C      1  0.4338320000000  0.5794450000000  0.5982700000000 1.0
C      1  0.4938030000000  0.5748560000000  0.5655690000000 1.0
C      1  0.4981360000000  0.4609550000000  0.4787250000000 1.0
C      1  0.5334630000000  0.5037880000000  0.5307980000000 1.0
C      1  0.4926580000000  0.4714370000000  0.5609840000000 1.0
C      1  0.5391660000000  0.4727830000000  0.5435570000000 1.0
C      1  0.4969180000000  0.4249450000000  0.5575830000000 1.0
C      1  0.4334170000000  0.4576460000000  0.5404660000000 1.0
C      1  0.5886800000000  0.4463170000000  0.4982070000000 1.0
C      1  0.4074440000000  0.4450940000000  0.5015360000000 1.0
C      1  0.5118490000000  0.5293400000000  0.5247040000000 1.0
C      1  0.4944040000000  0.4307800000000  0.5120210000000 1.0
C      1  0.5207600000000  0.5182830000000  0.4605380000000 1.0
C      1  0.5585570000000  0.4676650000000  0.4383320000000 1.0
C      1  0.4812550000000  0.5407840000000  0.3960960000000 1.0
C      1  0.5145320000000  0.4089710000000  0.5254560000000 1.0
C      1  0.4527000000000  0.5286430000000  0.5758760000000 1.0
C      1  0.4192260000000  0.4865730000000  0.5438600000000 1.0
C      1  0.5580930000000  0.4513010000000  0.4987430000000 1.0
C      1  0.4840350000000  0.4769770000000  0.5178120000000 1.0
C      1  0.4226670000000  0.5132750000000  0.4254360000000 1.0
C      1  0.4062570000000  0.5444580000000  0.4442130000000 1.0
C      1  0.4881910000000  0.4883450000000  0.6045010000000 1.0
C      1  0.5060070000000  0.5060430000000  0.4882400000000 1.0
C      1  0.5151600000000  0.4902890000000  0.4439090000000 1.0
C      1  0.5154460000000  0.4691930000000  0.5232430000000 1.0
C      1  0.4885070000000  0.5412710000000  0.6021600000000 1.0
C      1  0.6030050000000  0.4586370000000  0.4776510000000 1.0
C      1  0.5625250000000  0.5029340000000  0.5127290000000 1.0
C      1  0.5543040000000  0.4954120000000  0.4375020000000 1.0
C      1  0.6069940000000  0.4782340000000  0.5273890000000 1.0
C      1  0.5233400000000  0.5696990000000  0.5609790000000 1.0
C      1  0.5107110000000  0.4710990000000  0.4041910000000 1.0
C      1  0.5958840000000  0.5505540000000  0.5146150000000 1.0
C      1  0.4291360000000  0.5105420000000  0.5285780000000 1.0
C      1  0.5116130000000  0.4167010000000  0.4558430000000 1.0
C      1  0.5487060000000  0.4432370000000  0.4485190000000 1.0
C      1  0.4788510000000  0.5625590000000  0.5859380000000 1.0
C      1  0.4903110000000  0.5800300000000  0.4503120000000 1.0
END
