TITL C-2848501-3133-186 0.000769337182964899 125000 -783.568163052654 0 0 145 (C1) n - 1
REM
REM in /home/bkarasulu/work/CARBON/AIRSS/Generating-Clusters/AIREBO/with-SteepDescent/Only-C1/SD-CG-opt/Try1-1.4A-POS3A/HFTN-CG
REM
REM
REM
REM
REM
REM ./C.cell (11c1c37f851c82e70ff6c80c92926a4b)
REM
REM compiler GCC version 9.2.1 20190827 (Red Hat 9.2.1-1)
REM options -cpp -mtune=generic -march=x86-64 -g -O0 -fpre-include=/usr/include/finclude/math-vector-fortran.h
REM seed 1023310757 937054714 -316713085 -1501574808 -750916131 -1233442389 1516563804 138619573 1104385931 -856713621 -454971873 -1467844698 -217486326 701764431 441430293 2044865366 -1572394421 -42398313 -789009748 387458117 -1342399280 1158175361 -1974494508 202957136 -1086175727 582675602 -562015469 1597270312 -1354840139 -2026692820 1418268228 -2118542335 -437911004
REM
CELL 1.54180   50.00000   50.00000   50.00000   90.00000   90.00000   90.00000
LATT -1
SFAC C  
C      1  0.5482990000000  0.4556850000000  0.5468630000000 1.0
C      1  0.4176690000000  0.5593180000000  0.4901780000000 1.0
C      1  0.5009070000000  0.5720390000000  0.4591670000000 1.0
C      1  0.4815760000000  0.3983240000000  0.5050090000000 1.0
C      1  0.5373290000000  0.4033000000000  0.4835350000000 1.0
C      1  0.5187690000000  0.5040500000000  0.4823590000000 1.0
C      1  0.5684560000000  0.5175190000000  0.5853490000000 1.0
C      1  0.4302950000000  0.4846180000000  0.4740620000000 1.0
C      1  0.4637030000000  0.4502680000000  0.5238740000000 1.0
C      1  0.5343680000000  0.4074150000000  0.4388610000000 1.0
C      1  0.4740740000000  0.5990850000000  0.5484730000000 1.0
C      1  0.4766450000000  0.5316880000000  0.5204540000000 1.0
C      1  0.4322960000000  0.4892070000000  0.5762420000000 1.0
C      1  0.5197700000000  0.5949870000000  0.4693820000000 1.0
C      1  0.5419400000000  0.5692620000000  0.5640560000000 1.0
C      1  0.5054820000000  0.4642270000000  0.5643960000000 1.0
C      1  0.5249240000000  0.5545070000000  0.4222160000000 1.0
C      1  0.4453610000000  0.5038430000000  0.5229870000000 1.0
C      1  0.4296840000000  0.4354090000000  0.5460760000000 1.0
C      1  0.4728550000000  0.5302840000000  0.5808350000000 1.0
C      1  0.5655300000000  0.5128550000000  0.5529420000000 1.0
C      1  0.4461050000000  0.4293130000000  0.4404170000000 1.0
C      1  0.4767830000000  0.5490800000000  0.4660190000000 1.0
C      1  0.4135450000000  0.4834120000000  0.5495010000000 1.0
C      1  0.4695130000000  0.4820160000000  0.5131650000000 1.0
C      1  0.5311910000000  0.5229580000000  0.6198240000000 1.0
C      1  0.4485060000000  0.5690930000000  0.4851290000000 1.0
C      1  0.4967230000000  0.6110710000000  0.4519140000000 1.0
C      1  0.5789680000000  0.4543750000000  0.5296540000000 1.0
C      1  0.5292600000000  0.5402910000000  0.5744180000000 1.0
C      1  0.4747740000000  0.4708880000000  0.4501550000000 1.0
C      1  0.5660300000000  0.5395720000000  0.4249200000000 1.0
C      1  0.4593000000000  0.5752010000000  0.4534570000000 1.0
C      1  0.4619530000000  0.5513430000000  0.4291910000000 1.0
C      1  0.4006150000000  0.4985440000000  0.4984480000000 1.0
C      1  0.5111170000000  0.4516500000000  0.4196580000000 1.0
C      1  0.5566460000000  0.5063540000000  0.4461090000000 1.0
C      1  0.5449390000000  0.4749400000000  0.4511650000000 1.0
C      1  0.5123610000000  0.6035640000000  0.5217660000000 1.0
C      1  0.4791570000000  0.4478920000000  0.5692040000000 1.0
C      1  0.4835890000000  0.5609450000000  0.5807620000000 1.0
C      1  0.4503150000000  0.5406990000000  0.5038000000000 1.0
C      1  0.4843110000000  0.4321940000000  0.5037580000000 1.0
C      1  0.5550130000000  0.5075240000000  0.5218220000000 1.0
C      1  0.4517490000000  0.5296960000000  0.4726430000000 1.0
C      1  0.5492140000000  0.5851560000000  0.4651660000000 1.0
C      1  0.4288780000000  0.4839780000000  0.5069360000000 1.0
C      1  0.4933220000000  0.5258200000000  0.4501080000000 1.0
C      1  0.5852990000000  0.5481010000000  0.4810080000000 1.0
C      1  0.4416870000000  0.5166080000000  0.5790310000000 1.0
C      1  0.4423270000000  0.4556330000000  0.4986640000000 1.0
C      1  0.5002780000000  0.4804500000000  0.4305300000000 1.0
C      1  0.4229390000000  0.5220660000000  0.4158930000000 1.0
C      1  0.5334200000000  0.4569570000000  0.6056480000000 1.0
C      1  0.4957990000000  0.5540360000000  0.4312620000000 1.0
C      1  0.5022200000000  0.5980770000000  0.5474760000000 1.0
C      1  0.5842040000000  0.4516560000000  0.4761790000000 1.0
C      1  0.5032820000000  0.4393090000000  0.4764540000000 1.0
C      1  0.4422050000000  0.5279620000000  0.4412880000000 1.0
C      1  0.5202050000000  0.5442590000000  0.5225440000000 1.0
C      1  0.4196090000000  0.5046890000000  0.4514790000000 1.0
C      1  0.5153170000000  0.4919710000000  0.4022950000000 1.0
C      1  0.4794380000000  0.4998770000000  0.4584900000000 1.0
C      1  0.5401930000000  0.5367220000000  0.4468450000000 1.0
C      1  0.4278220000000  0.5351680000000  0.5612180000000 1.0
C      1  0.4796900000000  0.5034580000000  0.4162750000000 1.0
C      1  0.5462030000000  0.5139130000000  0.4146470000000 1.0
C      1  0.5043340000000  0.5927840000000  0.4981150000000 1.0
C      1  0.4842570000000  0.5339390000000  0.4069520000000 1.0
C      1  0.4858370000000  0.4873070000000  0.5684310000000 1.0
C      1  0.4672730000000  0.4565890000000  0.4773760000000 1.0
C      1  0.3953330000000  0.4877320000000  0.5280750000000 1.0
C      1  0.5007800000000  0.4849860000000  0.5170610000000 1.0
C      1  0.4489070000000  0.5576890000000  0.5496250000000 1.0
C      1  0.5197440000000  0.3995590000000  0.4622100000000 1.0
C      1  0.5854010000000  0.4708110000000  0.5020700000000 1.0
C      1  0.4624300000000  0.5790550000000  0.5284100000000 1.0
C      1  0.4925750000000  0.4437770000000  0.4444240000000 1.0
C      1  0.4482260000000  0.4161520000000  0.5376230000000 1.0
C      1  0.5290480000000  0.4679020000000  0.5825300000000 1.0
C      1  0.4137570000000  0.5550300000000  0.5167960000000 1.0
C      1  0.4511540000000  0.4049150000000  0.5118720000000 1.0
C      1  0.4258430000000  0.4483920000000  0.4398780000000 1.0
C      1  0.5524470000000  0.3968250000000  0.5303350000000 1.0
C      1  0.6011570000000  0.4265560000000  0.4782570000000 1.0
C      1  0.5167060000000  0.4809150000000  0.4603170000000 1.0
C      1  0.5459980000000  0.4894410000000  0.5681070000000 1.0
C      1  0.5743090000000  0.4744300000000  0.5567230000000 1.0
C      1  0.5394280000000  0.5178360000000  0.4957370000000 1.0
C      1  0.4985730000000  0.5443860000000  0.4990150000000 1.0
C      1  0.4181110000000  0.4570130000000  0.4669870000000 1.0
C      1  0.5952720000000  0.5010500000000  0.4778710000000 1.0
C      1  0.5387540000000  0.4515650000000  0.4193760000000 1.0
C      1  0.4179400000000  0.4771600000000  0.4325030000000 1.0
C      1  0.5628980000000  0.5713580000000  0.4915290000000 1.0
C      1  0.5552190000000  0.4468600000000  0.4663490000000 1.0
C      1  0.5188860000000  0.5094240000000  0.5646190000000 1.0
C      1  0.5155140000000  0.5214170000000  0.4020580000000 1.0
C      1  0.5967780000000  0.4749430000000  0.4606160000000 1.0
C      1  0.5570160000000  0.4806470000000  0.5091830000000 1.0
C      1  0.5016300000000  0.4140940000000  0.5272120000000 1.0
C      1  0.5063980000000  0.5112930000000  0.6165340000000 1.0
C      1  0.5161540000000  0.5436060000000  0.4699040000000 1.0
C      1  0.3998980000000  0.5431730000000  0.4751780000000 1.0
C      1  0.5339480000000  0.4363220000000  0.4908980000000 1.0
C      1  0.5862990000000  0.5026530000000  0.4486430000000 1.0
C      1  0.5659980000000  0.5575130000000  0.4544830000000 1.0
C      1  0.4732940000000  0.4241020000000  0.4310170000000 1.0
C      1  0.4898230000000  0.4064290000000  0.4730350000000 1.0
C      1  0.5564580000000  0.5676180000000  0.5399910000000 1.0
C      1  0.5462500000000  0.5285950000000  0.5968590000000 1.0
C      1  0.4734550000000  0.6021090000000  0.4487710000000 1.0
C      1  0.5497780000000  0.5394700000000  0.5275810000000 1.0
C      1  0.4619980000000  0.4256210000000  0.4692950000000 1.0
C      1  0.5057230000000  0.5437840000000  0.5501190000000 1.0
C      1  0.5828540000000  0.5407550000000  0.5268560000000 1.0
C      1  0.4015260000000  0.5146720000000  0.4754890000000 1.0
C      1  0.5658560000000  0.5833980000000  0.5198170000000 1.0
C      1  0.4767750000000  0.4279000000000  0.5459000000000 1.0
C      1  0.4647600000000  0.5276220000000  0.5484820000000 1.0
C      1  0.4402290000000  0.4167830000000  0.4894310000000 1.0
C      1  0.5365150000000  0.4624600000000  0.5094080000000 1.0
C      1  0.4630690000000  0.5786580000000  0.5682190000000 1.0
C      1  0.5102110000000  0.5737170000000  0.5640710000000 1.0
C      1  0.5441650000000  0.5455670000000  0.4884670000000 1.0
C      1  0.5182940000000  0.4660760000000  0.5359950000000 1.0
C      1  0.4180720000000  0.4361900000000  0.4884220000000 1.0
C      1  0.4804560000000  0.4048090000000  0.4131010000000 1.0
C      1  0.4625230000000  0.4939230000000  0.5505940000000 1.0
C      1  0.4999130000000  0.5128430000000  0.5365850000000 1.0
C      1  0.4788810000000  0.5722120000000  0.5001700000000 1.0
C      1  0.5481290000000  0.4328480000000  0.4381920000000 1.0
C      1  0.4947930000000  0.5100370000000  0.5880950000000 1.0
C      1  0.5300930000000  0.4185590000000  0.5196480000000 1.0
C      1  0.4590770000000  0.4991670000000  0.4857150000000 1.0
C      1  0.4902320000000  0.5134020000000  0.4877620000000 1.0
C      1  0.6032600000000  0.4995840000000  0.5076970000000 1.0
C      1  0.5500900000000  0.4802170000000  0.4179530000000 1.0
C      1  0.5903220000000  0.4962910000000  0.5366020000000 1.0
C      1  0.4967980000000  0.4712540000000  0.4861580000000 1.0
C      1  0.4297500000000  0.5302480000000  0.5287830000000 1.0
C      1  0.4428100000000  0.4667680000000  0.5450480000000 1.0
C      1  0.5593090000000  0.4277140000000  0.5330520000000 1.0
C      1  0.5939930000000  0.5318390000000  0.5030860000000 1.0
C      1  0.4542860000000  0.4632860000000  0.5770030000000 1.0
END
