TITL C-2848497-6229-50 -0.000961925959686069 125000 -612.475803096819 0 0 118 (C1) n - 1
REM
REM in /home/bkarasulu/work/CARBON/AIRSS/Generating-Clusters/AIREBO/with-SteepDescent/Only-C1/SD-CG-opt/Try1-1.4A-POS3A/HFTN-CG
REM
REM
REM
REM
REM
REM ./C.cell (11c1c37f851c82e70ff6c80c92926a4b)
REM
REM compiler GCC version 9.2.1 20190827 (Red Hat 9.2.1-1)
REM options -cpp -mtune=generic -march=x86-64 -g -O0 -fpre-include=/usr/include/finclude/math-vector-fortran.h
REM seed -636476599 1212469181 -1166577519 -630556777 891533355 -1274584140 351191600 -586168700 -1266449511 762244950 1825298050 -1466644036 -213292267 -1295695698 -644532470 1498454193 -307484395 -2111567661 -1210610295 928653319 1559095497 -1738052706 -554364362 280606158 744527178 -557180920 2111781977 1116716624 395954683 -614123005 -2052451954 1541936020 1683461374
REM
CELL 1.54180   50.00000   50.00000   50.00000   90.00000   90.00000   90.00000
LATT -1
SFAC C  
C      1  0.4855530000000  0.5141360000000  0.4955020000000 1.0
C      1  0.4387460000000  0.5703640000000  0.5112490000000 1.0
C      1  0.4337670000000  0.4536050000000  0.4498840000000 1.0
C      1  0.4641180000000  0.4088360000000  0.5154510000000 1.0
C      1  0.5548350000000  0.5735580000000  0.4758930000000 1.0
C      1  0.4085640000000  0.4972190000000  0.4798480000000 1.0
C      1  0.4689850000000  0.4972570000000  0.4125640000000 1.0
C      1  0.5041530000000  0.5768540000000  0.4430860000000 1.0
C      1  0.4541150000000  0.4518070000000  0.5732550000000 1.0
C      1  0.5264430000000  0.4975110000000  0.5055530000000 1.0
C      1  0.5312470000000  0.5513260000000  0.4285610000000 1.0
C      1  0.4861670000000  0.5144410000000  0.5669330000000 1.0
C      1  0.5129390000000  0.5774300000000  0.4704580000000 1.0
C      1  0.5203100000000  0.4759470000000  0.5462130000000 1.0
C      1  0.4583120000000  0.5430010000000  0.5109860000000 1.0
C      1  0.5305020000000  0.5312130000000  0.5075070000000 1.0
C      1  0.5697540000000  0.4842430000000  0.4399790000000 1.0
C      1  0.4705520000000  0.4613630000000  0.5092080000000 1.0
C      1  0.4422320000000  0.4944280000000  0.5846790000000 1.0
C      1  0.4993090000000  0.5476690000000  0.4263260000000 1.0
C      1  0.4898090000000  0.5848650000000  0.4921100000000 1.0
C      1  0.4970500000000  0.4783620000000  0.5835670000000 1.0
C      1  0.4915010000000  0.4844230000000  0.4464660000000 1.0
C      1  0.5577430000000  0.5701900000000  0.5030780000000 1.0
C      1  0.5361940000000  0.5083710000000  0.4301020000000 1.0
C      1  0.5633360000000  0.5082770000000  0.4947010000000 1.0
C      1  0.4452800000000  0.5639000000000  0.4796590000000 1.0
C      1  0.5211630000000  0.5489500000000  0.4849580000000 1.0
C      1  0.5709540000000  0.4656620000000  0.5301110000000 1.0
C      1  0.4981380000000  0.4537840000000  0.4386210000000 1.0
C      1  0.5634580000000  0.4198180000000  0.5121110000000 1.0
C      1  0.4869140000000  0.4165030000000  0.5358360000000 1.0
C      1  0.5426810000000  0.5468530000000  0.4587100000000 1.0
C      1  0.5848320000000  0.5157310000000  0.5369550000000 1.0
C      1  0.4794180000000  0.4067790000000  0.4885890000000 1.0
C      1  0.5074760000000  0.4966650000000  0.4229680000000 1.0
C      1  0.5389650000000  0.4980540000000  0.4759310000000 1.0
C      1  0.4804950000000  0.4669740000000  0.4126980000000 1.0
C      1  0.4701020000000  0.5542600000000  0.5408650000000 1.0
C      1  0.4351600000000  0.4681380000000  0.5857970000000 1.0
C      1  0.4290130000000  0.4847580000000  0.4470610000000 1.0
C      1  0.4383630000000  0.4228890000000  0.5052100000000 1.0
C      1  0.5331360000000  0.5457170000000  0.5796610000000 1.0
C      1  0.5139030000000  0.4489780000000  0.5805350000000 1.0
C      1  0.4296770000000  0.4470250000000  0.4826920000000 1.0
C      1  0.4056690000000  0.5216140000000  0.4746570000000 1.0
C      1  0.5020200000000  0.4550490000000  0.4726240000000 1.0
C      1  0.5259480000000  0.5937110000000  0.5295340000000 1.0
C      1  0.4708250000000  0.4937810000000  0.5184210000000 1.0
C      1  0.4386830000000  0.5151370000000  0.5592820000000 1.0
C      1  0.5135490000000  0.4695010000000  0.4046100000000 1.0
C      1  0.5604060000000  0.5377740000000  0.5456020000000 1.0
C      1  0.5278250000000  0.4257000000000  0.4646120000000 1.0
C      1  0.4680640000000  0.4373900000000  0.4878420000000 1.0
C      1  0.4289940000000  0.5407570000000  0.4650650000000 1.0
C      1  0.5888820000000  0.4932490000000  0.5214150000000 1.0
C      1  0.5333270000000  0.4583070000000  0.5047650000000 1.0
C      1  0.4754880000000  0.4731750000000  0.5577940000000 1.0
C      1  0.4976500000000  0.4276100000000  0.5662900000000 1.0
C      1  0.5819050000000  0.5038580000000  0.4595850000000 1.0
C      1  0.5719250000000  0.5304020000000  0.4561240000000 1.0
C      1  0.5351410000000  0.4988050000000  0.6058270000000 1.0
C      1  0.5269110000000  0.4923670000000  0.5752570000000 1.0
C      1  0.4477790000000  0.5049770000000  0.4335230000000 1.0
C      1  0.4942530000000  0.5337900000000  0.4718470000000 1.0
C      1  0.4899020000000  0.4488220000000  0.5416510000000 1.0
C      1  0.4555150000000  0.5399580000000  0.5654600000000 1.0
C      1  0.5447430000000  0.4483630000000  0.4743260000000 1.0
C      1  0.5448480000000  0.5657360000000  0.5335710000000 1.0
C      1  0.5008590000000  0.5432070000000  0.5758830000000 1.0
C      1  0.4204650000000  0.5453090000000  0.5235570000000 1.0
C      1  0.5270960000000  0.5687920000000  0.5604430000000 1.0
C      1  0.5412420000000  0.4505990000000  0.5369540000000 1.0
C      1  0.4963860000000  0.5691660000000  0.5560650000000 1.0
C      1  0.5342030000000  0.5206930000000  0.5589350000000 1.0
C      1  0.4597940000000  0.5537030000000  0.4270400000000 1.0
C      1  0.4923990000000  0.5201190000000  0.4076270000000 1.0
C      1  0.5625540000000  0.4744860000000  0.4984230000000 1.0
C      1  0.5129760000000  0.4142640000000  0.5169630000000 1.0
C      1  0.5607590000000  0.4541290000000  0.4157330000000 1.0
C      1  0.5468280000000  0.4895750000000  0.5316640000000 1.0
C      1  0.4721090000000  0.4996050000000  0.5932080000000 1.0
C      1  0.5679810000000  0.4409080000000  0.4956360000000 1.0
C      1  0.4294130000000  0.4705490000000  0.5349620000000 1.0
C      1  0.5171760000000  0.4289360000000  0.4393060000000 1.0
C      1  0.5148330000000  0.5226640000000  0.5341770000000 1.0
C      1  0.4641030000000  0.4506700000000  0.4617770000000 1.0
C      1  0.4741680000000  0.5337880000000  0.5927130000000 1.0
C      1  0.4709630000000  0.4822810000000  0.4722630000000 1.0
C      1  0.4494290000000  0.4890760000000  0.5444330000000 1.0
C      1  0.5557060000000  0.4783900000000  0.5637850000000 1.0
C      1  0.4477750000000  0.5252390000000  0.4887640000000 1.0
C      1  0.4760400000000  0.5625640000000  0.4735470000000 1.0
C      1  0.4268310000000  0.5188740000000  0.5300460000000 1.0
C      1  0.5404680000000  0.4510470000000  0.5709480000000 1.0
C      1  0.5957290000000  0.5436600000000  0.5073370000000 1.0
C      1  0.4989590000000  0.4831250000000  0.4915810000000 1.0
C      1  0.4869610000000  0.5299540000000  0.5238360000000 1.0
C      1  0.4777770000000  0.5296210000000  0.4429400000000 1.0
C      1  0.4599380000000  0.4481900000000  0.4287250000000 1.0
C      1  0.4387100000000  0.5350130000000  0.4369630000000 1.0
C      1  0.5004170000000  0.5960060000000  0.5209620000000 1.0
C      1  0.5386050000000  0.4199110000000  0.5275920000000 1.0
C      1  0.5496510000000  0.4744190000000  0.4606470000000 1.0
C      1  0.5029010000000  0.4586220000000  0.5148300000000 1.0
C      1  0.4395170000000  0.4548050000000  0.5130510000000 1.0
C      1  0.4378360000000  0.4799040000000  0.4797190000000 1.0
C      1  0.5941300000000  0.4968130000000  0.4892080000000 1.0
C      1  0.5059930000000  0.4247350000000  0.4875120000000 1.0
C      1  0.5630750000000  0.5377350000000  0.5117030000000 1.0
C      1  0.4957690000000  0.4957230000000  0.5424010000000 1.0
C      1  0.4703380000000  0.5802800000000  0.5189740000000 1.0
C      1  0.5235850000000  0.5187140000000  0.4589860000000 1.0
C      1  0.4610580000000  0.5128920000000  0.4638100000000 1.0
C      1  0.4736010000000  0.5732590000000  0.4429830000000 1.0
C      1  0.5455880000000  0.5325500000000  0.4112140000000 1.0
C      1  0.4396860000000  0.5006580000000  0.5066040000000 1.0
C      1  0.5420030000000  0.4768100000000  0.4217590000000 1.0
END
