TITL C-2847948-6138-161 -0.000513632557852478 125000 -722.54578615251 0 0 137 (C1) n - 1
REM
REM in /home/bkarasulu/work/CARBON/AIRSS/Generating-Clusters/AIREBO/with-SteepDescent/Only-C1/SD-CG-opt/Try1-1.4A-POS3A/HFTN-CG
REM
REM
REM
REM
REM
REM ./C.cell (11c1c37f851c82e70ff6c80c92926a4b)
REM
REM compiler GCC version 9.2.1 20190827 (Red Hat 9.2.1-1)
REM options -cpp -mtune=generic -march=x86-64 -g -O0 -fpre-include=/usr/include/finclude/math-vector-fortran.h
REM seed 266901481 -1899835591 -2076905740 16837588 1280977090 -164082292 890084754 664592172 22850749 -1264945860 -902064875 -455597699 -190181828 -1867734442 -1942828325 2133602950 -631160863 -1308145620 -1200899316 621159600 -381574240 682785444 -917992298 -799625306 1071749483 266438125 -538554576 -263521726 -1016835803 1141187960 -591421906 -643257815 1979331960
REM
CELL 1.54180   50.00000   50.00000   50.00000   90.00000   90.00000   90.00000
LATT -1
SFAC C  
C      1  0.4322550000000  0.5667330000000  0.5333260000000 1.0
C      1  0.5820460000000  0.4984430000000  0.4678420000000 1.0
C      1  0.5136210000000  0.4074580000000  0.5283060000000 1.0
C      1  0.5381410000000  0.4847210000000  0.4862050000000 1.0
C      1  0.4883210000000  0.4277210000000  0.5391290000000 1.0
C      1  0.5750120000000  0.5349220000000  0.5471540000000 1.0
C      1  0.4166580000000  0.5226210000000  0.5160040000000 1.0
C      1  0.4737960000000  0.5021630000000  0.4148190000000 1.0
C      1  0.4337180000000  0.4776250000000  0.4357410000000 1.0
C      1  0.5843300000000  0.5502500000000  0.4997870000000 1.0
C      1  0.5532630000000  0.4151900000000  0.5147700000000 1.0
C      1  0.5895480000000  0.5274220000000  0.5232500000000 1.0
C      1  0.5481520000000  0.4537300000000  0.4868090000000 1.0
C      1  0.4693420000000  0.4451490000000  0.4191350000000 1.0
C      1  0.5002640000000  0.4355850000000  0.4965490000000 1.0
C      1  0.5440220000000  0.5271630000000  0.4829900000000 1.0
C      1  0.5162590000000  0.5248670000000  0.4376040000000 1.0
C      1  0.5246850000000  0.4665350000000  0.5888610000000 1.0
C      1  0.5273850000000  0.4120510000000  0.4693030000000 1.0
C      1  0.3866620000000  0.5123080000000  0.5037500000000 1.0
C      1  0.4344480000000  0.4881860000000  0.5519190000000 1.0
C      1  0.4679320000000  0.4062570000000  0.5224080000000 1.0
C      1  0.5272770000000  0.5284380000000  0.5811410000000 1.0
C      1  0.4933660000000  0.4767800000000  0.5522750000000 1.0
C      1  0.4461730000000  0.4460970000000  0.5188400000000 1.0
C      1  0.4742430000000  0.4280540000000  0.4773210000000 1.0
C      1  0.5066540000000  0.4840970000000  0.6117190000000 1.0
C      1  0.5878400000000  0.4759740000000  0.5098070000000 1.0
C      1  0.4419610000000  0.4286750000000  0.4660390000000 1.0
C      1  0.5363440000000  0.5307470000000  0.5244340000000 1.0
C      1  0.4333690000000  0.4606300000000  0.4616140000000 1.0
C      1  0.4743490000000  0.4301290000000  0.5709140000000 1.0
C      1  0.4955160000000  0.5592250000000  0.5910010000000 1.0
C      1  0.4851420000000  0.4311290000000  0.4452610000000 1.0
C      1  0.5643980000000  0.4963130000000  0.4388310000000 1.0
C      1  0.5484690000000  0.5852030000000  0.5095160000000 1.0
C      1  0.5007840000000  0.4423160000000  0.5884890000000 1.0
C      1  0.5720130000000  0.5015660000000  0.5155000000000 1.0
C      1  0.4660030000000  0.4920710000000  0.5903820000000 1.0
C      1  0.5110370000000  0.4126190000000  0.4426670000000 1.0
C      1  0.4240830000000  0.4820760000000  0.5239430000000 1.0
C      1  0.5480530000000  0.5013300000000  0.4094260000000 1.0
C      1  0.5742170000000  0.4495140000000  0.4653750000000 1.0
C      1  0.5429760000000  0.4523320000000  0.4369630000000 1.0
C      1  0.4568930000000  0.5731520000000  0.5567860000000 1.0
C      1  0.4947220000000  0.5644280000000  0.4367850000000 1.0
C      1  0.5382630000000  0.4976210000000  0.5170160000000 1.0
C      1  0.5229490000000  0.5597360000000  0.5770200000000 1.0
C      1  0.5691480000000  0.5633100000000  0.5464070000000 1.0
C      1  0.5233810000000  0.5149100000000  0.4082450000000 1.0
C      1  0.5594590000000  0.4199760000000  0.4686580000000 1.0
C      1  0.4727520000000  0.4890200000000  0.5210610000000 1.0
C      1  0.4773670000000  0.4553640000000  0.5226280000000 1.0
C      1  0.4796740000000  0.4802780000000  0.6117580000000 1.0
C      1  0.4464430000000  0.5466800000000  0.4542220000000 1.0
C      1  0.4706170000000  0.5863440000000  0.5320680000000 1.0
C      1  0.4755960000000  0.5174940000000  0.5836390000000 1.0
C      1  0.4830520000000  0.4841510000000  0.4422080000000 1.0
C      1  0.4987810000000  0.5106380000000  0.3956250000000 1.0
C      1  0.4211870000000  0.5554000000000  0.4738410000000 1.0
C      1  0.5778040000000  0.5729540000000  0.4770860000000 1.0
C      1  0.4162190000000  0.5031890000000  0.4310710000000 1.0
C      1  0.4296160000000  0.5262040000000  0.4329160000000 1.0
C      1  0.5134140000000  0.4935800000000  0.4403670000000 1.0
C      1  0.5726460000000  0.5736000000000  0.5202080000000 1.0
C      1  0.4518350000000  0.4475920000000  0.5523380000000 1.0
C      1  0.5506450000000  0.5816080000000  0.4809570000000 1.0
C      1  0.4532620000000  0.5557310000000  0.4977010000000 1.0
C      1  0.4724250000000  0.5248790000000  0.4566980000000 1.0
C      1  0.4666050000000  0.5253650000000  0.4901940000000 1.0
C      1  0.5302120000000  0.5618380000000  0.4700520000000 1.0
C      1  0.3993960000000  0.5655300000000  0.4632370000000 1.0
C      1  0.5503840000000  0.5154270000000  0.5513650000000 1.0
C      1  0.4945550000000  0.5165130000000  0.5023710000000 1.0
C      1  0.4636870000000  0.4603160000000  0.4770030000000 1.0
C      1  0.5736640000000  0.4635690000000  0.4363960000000 1.0
C      1  0.5023060000000  0.4678260000000  0.5046230000000 1.0
C      1  0.5716130000000  0.4614300000000  0.5359160000000 1.0
C      1  0.5698290000000  0.4403180000000  0.5093200000000 1.0
C      1  0.5430510000000  0.4638550000000  0.5637750000000 1.0
C      1  0.4272960000000  0.4618320000000  0.5710750000000 1.0
C      1  0.5318050000000  0.5894250000000  0.5630600000000 1.0
C      1  0.4467720000000  0.5028750000000  0.4819960000000 1.0
C      1  0.4744350000000  0.5741410000000  0.5821710000000 1.0
C      1  0.5053150000000  0.4860160000000  0.4788460000000 1.0
C      1  0.4366530000000  0.4270250000000  0.4994550000000 1.0
C      1  0.5255940000000  0.4448120000000  0.4636000000000 1.0
C      1  0.4974320000000  0.5746040000000  0.5273850000000 1.0
C      1  0.4678300000000  0.4021400000000  0.4973430000000 1.0
C      1  0.4563620000000  0.4729630000000  0.4150220000000 1.0
C      1  0.5160780000000  0.4055100000000  0.4977560000000 1.0
C      1  0.5234290000000  0.5479890000000  0.5003570000000 1.0
C      1  0.5059860000000  0.4502300000000  0.5575030000000 1.0
C      1  0.5276230000000  0.4320600000000  0.5451000000000 1.0
C      1  0.4634510000000  0.4773500000000  0.5640490000000 1.0
C      1  0.4695120000000  0.5662350000000  0.4697790000000 1.0
C      1  0.5390210000000  0.5535930000000  0.5480530000000 1.0
C      1  0.4163310000000  0.4963510000000  0.4944100000000 1.0
C      1  0.5003840000000  0.4499550000000  0.4134480000000 1.0
C      1  0.5147860000000  0.5160840000000  0.4781790000000 1.0
C      1  0.5056860000000  0.4954250000000  0.5266260000000 1.0
C      1  0.5722800000000  0.5205960000000  0.4884050000000 1.0
C      1  0.4552300000000  0.4957220000000  0.4528340000000 1.0
C      1  0.5373860000000  0.4816110000000  0.4533330000000 1.0
C      1  0.5871590000000  0.4734220000000  0.4812920000000 1.0
C      1  0.4228210000000  0.5506050000000  0.5061070000000 1.0
C      1  0.5386420000000  0.4675070000000  0.5302580000000 1.0
C      1  0.5404870000000  0.5376140000000  0.4517260000000 1.0
C      1  0.4945660000000  0.4589700000000  0.4619670000000 1.0
C      1  0.4570170000000  0.5288030000000  0.4200720000000 1.0
C      1  0.5008970000000  0.5426780000000  0.4621830000000 1.0
C      1  0.4496890000000  0.4758580000000  0.5024320000000 1.0
C      1  0.5824060000000  0.5438310000000  0.4235330000000 1.0
C      1  0.4927350000000  0.5555300000000  0.4925900000000 1.0
C      1  0.4857770000000  0.5179460000000  0.5576750000000 1.0
C      1  0.4643550000000  0.5592830000000  0.4281830000000 1.0
C      1  0.5635030000000  0.4880720000000  0.5558560000000 1.0
C      1  0.5259970000000  0.5799010000000  0.5308970000000 1.0
C      1  0.5300410000000  0.4400510000000  0.5121350000000 1.0
C      1  0.5165860000000  0.5125990000000  0.5538810000000 1.0
C      1  0.4909660000000  0.5333730000000  0.6009190000000 1.0
C      1  0.4814300000000  0.6074620000000  0.4397170000000 1.0
C      1  0.4559980000000  0.5874380000000  0.5088380000000 1.0
C      1  0.5660970000000  0.5297710000000  0.4379620000000 1.0
C      1  0.4421460000000  0.5441440000000  0.5523110000000 1.0
C      1  0.4767130000000  0.5483430000000  0.5211900000000 1.0
C      1  0.4476560000000  0.4239220000000  0.4340080000000 1.0
C      1  0.5375840000000  0.4978120000000  0.5919480000000 1.0
C      1  0.5030650000000  0.5903850000000  0.4329190000000 1.0
C      1  0.4111190000000  0.4694190000000  0.4778720000000 1.0
C      1  0.5079150000000  0.4760140000000  0.4122260000000 1.0
C      1  0.4622640000000  0.5881600000000  0.4467890000000 1.0
C      1  0.5159560000000  0.5161160000000  0.6107430000000 1.0
C      1  0.4688700000000  0.5206560000000  0.5329200000000 1.0
C      1  0.5593820000000  0.4359600000000  0.5555600000000 1.0
C      1  0.4362470000000  0.5168580000000  0.5394600000000 1.0
C      1  0.5196550000000  0.4347130000000  0.4253720000000 1.0
END
