TITL C-2848499-1157-433 -0.00862453039749163 125000 -691.302722212148 0 0 128 (C1) n - 1
REM
REM in /home/bkarasulu/work/CARBON/AIRSS/Generating-Clusters/AIREBO/with-SteepDescent/Only-C1/SD-CG-opt/Try1-1.4A-POS3A/HFTN-CG
REM
REM
REM
REM
REM
REM ./C.cell (11c1c37f851c82e70ff6c80c92926a4b)
REM
REM compiler GCC version 9.2.1 20190827 (Red Hat 9.2.1-1)
REM options -cpp -mtune=generic -march=x86-64 -g -O0 -fpre-include=/usr/include/finclude/math-vector-fortran.h
REM seed -120855247 921710259 -1542566346 -725113430 1041064019 592682902 1911098770 61231060 154513011 -766896119 -807959854 -1992008584 414091123 673774081 -1299493601 -2115524977 -1508955750 -1205668565 -773190052 -858395052 -1731003247 -896182580 -515627167 -1428658356 1699835639 912073097 -289404101 669283968 -304954591 -125611497 -300141419 -789184409 -1473361973
REM
CELL 1.54180   50.00000   50.00000   50.00000   90.00000   90.00000   90.00000
LATT -1
SFAC C  
C      1  0.4447210000000  0.4878960000000  0.4671770000000 1.0
C      1  0.4284600000000  0.5633340000000  0.4818040000000 1.0
C      1  0.4617390000000  0.5404770000000  0.4187250000000 1.0
C      1  0.5429330000000  0.4693110000000  0.5810810000000 1.0
C      1  0.4665630000000  0.4449980000000  0.4544910000000 1.0
C      1  0.4615300000000  0.5132810000000  0.4924760000000 1.0
C      1  0.4695110000000  0.4643220000000  0.5523200000000 1.0
C      1  0.4329120000000  0.5403540000000  0.5614610000000 1.0
C      1  0.4597910000000  0.5829020000000  0.4428030000000 1.0
C      1  0.4927010000000  0.4719380000000  0.5103500000000 1.0
C      1  0.5303820000000  0.4482600000000  0.4167740000000 1.0
C      1  0.4477280000000  0.5095030000000  0.4179780000000 1.0
C      1  0.5422220000000  0.4554300000000  0.4588670000000 1.0
C      1  0.5166670000000  0.5514510000000  0.4633280000000 1.0
C      1  0.4821140000000  0.5558910000000  0.5742060000000 1.0
C      1  0.4920830000000  0.5235680000000  0.5032990000000 1.0
C      1  0.5016440000000  0.4662340000000  0.6027100000000 1.0
C      1  0.5425230000000  0.4148950000000  0.4823090000000 1.0
C      1  0.4802330000000  0.5295600000000  0.5872920000000 1.0
C      1  0.4556170000000  0.4715970000000  0.5802260000000 1.0
C      1  0.4353950000000  0.4691270000000  0.4404020000000 1.0
C      1  0.5445340000000  0.5662280000000  0.5226500000000 1.0
C      1  0.4871940000000  0.4428510000000  0.4774370000000 1.0
C      1  0.4946080000000  0.4118640000000  0.4797910000000 1.0
C      1  0.4885200000000  0.5410660000000  0.4483880000000 1.0
C      1  0.5342960000000  0.5752650000000  0.5537870000000 1.0
C      1  0.5041930000000  0.5622990000000  0.4269500000000 1.0
C      1  0.5330540000000  0.5277910000000  0.4451740000000 1.0
C      1  0.4725900000000  0.5891980000000  0.5545420000000 1.0
C      1  0.4843690000000  0.4166670000000  0.5279580000000 1.0
C      1  0.5763190000000  0.4717450000000  0.4999360000000 1.0
C      1  0.5185740000000  0.4072010000000  0.4669900000000 1.0
C      1  0.5504160000000  0.4667480000000  0.4214480000000 1.0
C      1  0.4558790000000  0.4607520000000  0.5210860000000 1.0
C      1  0.5310480000000  0.4310910000000  0.5100300000000 1.0
C      1  0.4312160000000  0.5376010000000  0.4624820000000 1.0
C      1  0.4737290000000  0.5652250000000  0.4203880000000 1.0
C      1  0.4764240000000  0.5843720000000  0.5225760000000 1.0
C      1  0.4490320000000  0.5211140000000  0.5846330000000 1.0
C      1  0.5155450000000  0.5140560000000  0.4012530000000 1.0
C      1  0.5684440000000  0.5225640000000  0.5642900000000 1.0
C      1  0.4143860000000  0.4809420000000  0.5396250000000 1.0
C      1  0.4747480000000  0.4680310000000  0.4360510000000 1.0
C      1  0.4322310000000  0.5359500000000  0.4310610000000 1.0
C      1  0.4130770000000  0.4811720000000  0.5111180000000 1.0
C      1  0.4240380000000  0.4596950000000  0.4969360000000 1.0
C      1  0.5357000000000  0.4975270000000  0.5098730000000 1.0
C      1  0.4211430000000  0.5071950000000  0.5022340000000 1.0
C      1  0.5220980000000  0.4851160000000  0.5964490000000 1.0
C      1  0.5485000000000  0.4529350000000  0.4921960000000 1.0
C      1  0.5675140000000  0.5157790000000  0.4176830000000 1.0
C      1  0.4920430000000  0.4399110000000  0.5595890000000 1.0
C      1  0.5015870000000  0.4407180000000  0.5898490000000 1.0
C      1  0.5087680000000  0.5419310000000  0.5624300000000 1.0
C      1  0.5083500000000  0.4921490000000  0.4254090000000 1.0
C      1  0.5609810000000  0.5623240000000  0.4749700000000 1.0
C      1  0.4663240000000  0.5402660000000  0.5201550000000 1.0
C      1  0.4637370000000  0.4970500000000  0.4436670000000 1.0
C      1  0.5414530000000  0.4983870000000  0.4302620000000 1.0
C      1  0.5039760000000  0.5805200000000  0.4755880000000 1.0
C      1  0.4163320000000  0.4542740000000  0.5497890000000 1.0
C      1  0.5132710000000  0.4684760000000  0.4466980000000 1.0
C      1  0.5264370000000  0.5344630000000  0.4132410000000 1.0
C      1  0.4750280000000  0.4773750000000  0.6014640000000 1.0
C      1  0.4612550000000  0.5525100000000  0.4568290000000 1.0
C      1  0.4497590000000  0.4374490000000  0.4970830000000 1.0
C      1  0.5455320000000  0.4987670000000  0.5671620000000 1.0
C      1  0.4398130000000  0.4401840000000  0.5416890000000 1.0
C      1  0.4370520000000  0.4486820000000  0.4675190000000 1.0
C      1  0.4903300000000  0.5112670000000  0.4475200000000 1.0
C      1  0.4465640000000  0.5117080000000  0.5215500000000 1.0
C      1  0.5950390000000  0.5145960000000  0.5233680000000 1.0
C      1  0.5087130000000  0.5076560000000  0.5249240000000 1.0
C      1  0.4824510000000  0.4912020000000  0.5359710000000 1.0
C      1  0.4909180000000  0.4316780000000  0.4376010000000 1.0
C      1  0.4353720000000  0.4912220000000  0.5807180000000 1.0
C      1  0.4470960000000  0.5765360000000  0.5072370000000 1.0
C      1  0.5534800000000  0.4875210000000  0.4599860000000 1.0
C      1  0.5657170000000  0.4520180000000  0.5447240000000 1.0
C      1  0.4493870000000  0.5870050000000  0.4749320000000 1.0
C      1  0.5149090000000  0.5510040000000  0.5296700000000 1.0
C      1  0.5777440000000  0.5108330000000  0.4653560000000 1.0
C      1  0.4642220000000  0.5467020000000  0.4868330000000 1.0
C      1  0.5875940000000  0.4985340000000  0.4942200000000 1.0
C      1  0.5869130000000  0.4560630000000  0.5258310000000 1.0
C      1  0.5622360000000  0.4283780000000  0.4638550000000 1.0
C      1  0.5497610000000  0.4704640000000  0.5213100000000 1.0
C      1  0.4961330000000  0.5034390000000  0.4761870000000 1.0
C      1  0.5904810000000  0.5189380000000  0.5493790000000 1.0
C      1  0.5400060000000  0.5246200000000  0.4952010000000 1.0
C      1  0.5667900000000  0.5584100000000  0.4433700000000 1.0
C      1  0.5110300000000  0.5153060000000  0.5840690000000 1.0
C      1  0.4802970000000  0.5968870000000  0.4647890000000 1.0
C      1  0.5715790000000  0.5260120000000  0.5037920000000 1.0
C      1  0.4847080000000  0.5683450000000  0.4972020000000 1.0
C      1  0.5241440000000  0.4302000000000  0.4449060000000 1.0
C      1  0.4638330000000  0.4798770000000  0.4941990000000 1.0
C      1  0.5016020000000  0.4474400000000  0.4147480000000 1.0
C      1  0.4319930000000  0.5079870000000  0.5510610000000 1.0
C      1  0.5193050000000  0.3798800000000  0.5475970000000 1.0
C      1  0.5104410000000  0.4030600000000  0.5414730000000 1.0
C      1  0.5161020000000  0.5435780000000  0.4964590000000 1.0
C      1  0.5324620000000  0.4877930000000  0.4816560000000 1.0
C      1  0.5451500000000  0.4472610000000  0.5634870000000 1.0
C      1  0.4991680000000  0.4385860000000  0.5089750000000 1.0
C      1  0.5702550000000  0.4515210000000  0.4399940000000 1.0
C      1  0.5178840000000  0.4675970000000  0.5327960000000 1.0
C      1  0.4865080000000  0.4745710000000  0.4061530000000 1.0
C      1  0.4540390000000  0.5666280000000  0.5660540000000 1.0
C      1  0.5160420000000  0.4862750000000  0.5571910000000 1.0
C      1  0.5294890000000  0.5941060000000  0.4865140000000 1.0
C      1  0.5047250000000  0.4719670000000  0.4784180000000 1.0
C      1  0.5529260000000  0.5311370000000  0.4688590000000 1.0
C      1  0.5021970000000  0.5786290000000  0.5441340000000 1.0
C      1  0.5209420000000  0.4353950000000  0.5422390000000 1.0
C      1  0.5422000000000  0.5441930000000  0.5651160000000 1.0
C      1  0.4630820000000  0.4249990000000  0.5498380000000 1.0
C      1  0.4699910000000  0.4136760000000  0.4986350000000 1.0
C      1  0.5349670000000  0.5192420000000  0.5431600000000 1.0
C      1  0.4258530000000  0.5106940000000  0.4749670000000 1.0
C      1  0.5565070000000  0.5383060000000  0.5285200000000 1.0
C      1  0.5367000000000  0.5673430000000  0.4409040000000 1.0
C      1  0.5784480000000  0.5315480000000  0.4382800000000 1.0
C      1  0.4524910000000  0.4764300000000  0.4116840000000 1.0
C      1  0.4450560000000  0.5579210000000  0.5351080000000 1.0
C      1  0.4891870000000  0.4925860000000  0.5751790000000 1.0
C      1  0.4651050000000  0.5062380000000  0.5586220000000 1.0
C      1  0.5491460000000  0.5771840000000  0.4949920000000 1.0
END
