TITL C-2848499-1157-376 -0.00156998622572606 125000 -782.112365560917 0 0 142 (C1) n - 1
REM
REM in /home/bkarasulu/work/CARBON/AIRSS/Generating-Clusters/AIREBO/with-SteepDescent/Only-C1/SD-CG-opt/Try1-1.4A-POS3A/HFTN-CG
REM
REM
REM
REM
REM
REM ./C.cell (11c1c37f851c82e70ff6c80c92926a4b)
REM
REM compiler GCC version 9.2.1 20190827 (Red Hat 9.2.1-1)
REM options -cpp -mtune=generic -march=x86-64 -g -O0 -fpre-include=/usr/include/finclude/math-vector-fortran.h
REM seed 1506492471 1535265640 1812764557 -1643786766 1090563282 1840422023 1047901584 -1557413845 240838834 -660604815 2078273040 644435033 -597583790 445041063 1730791804 302700168 528777353 -487270647 -270918743 -901551686 499522757 21183184 -1500364014 2121512969 581150416 -730031260 919190282 320221831 -870136256 -1996545778 -2051796476 -1361723486 2015925463
REM
CELL 1.54180   50.00000   50.00000   50.00000   90.00000   90.00000   90.00000
LATT -1
SFAC C  
C      1  0.5011860000000  0.4964650000000  0.5262220000000 1.0
C      1  0.4651060000000  0.5490910000000  0.5323150000000 1.0
C      1  0.4264900000000  0.4483210000000  0.5432100000000 1.0
C      1  0.4584330000000  0.3873430000000  0.4497950000000 1.0
C      1  0.5864610000000  0.4908310000000  0.5676650000000 1.0
C      1  0.4532690000000  0.4931040000000  0.5975460000000 1.0
C      1  0.3776270000000  0.5315240000000  0.4928620000000 1.0
C      1  0.4743810000000  0.5870010000000  0.5238280000000 1.0
C      1  0.4856120000000  0.5104360000000  0.4069520000000 1.0
C      1  0.5118100000000  0.5435850000000  0.5182520000000 1.0
C      1  0.5396730000000  0.5978560000000  0.4872000000000 1.0
C      1  0.5203720000000  0.4643550000000  0.5909110000000 1.0
C      1  0.4507470000000  0.4362030000000  0.5470800000000 1.0
C      1  0.4972470000000  0.4712280000000  0.4784880000000 1.0
C      1  0.4939560000000  0.5814040000000  0.4523370000000 1.0
C      1  0.4830590000000  0.4973310000000  0.5524070000000 1.0
C      1  0.4424800000000  0.5555550000000  0.5644320000000 1.0
C      1  0.5681870000000  0.5387580000000  0.5100560000000 1.0
C      1  0.4161600000000  0.4748020000000  0.5268250000000 1.0
C      1  0.5454100000000  0.5884830000000  0.4590490000000 1.0
C      1  0.4189880000000  0.4503020000000  0.4572010000000 1.0
C      1  0.4556630000000  0.4814030000000  0.4478390000000 1.0
C      1  0.5955490000000  0.4686940000000  0.5156200000000 1.0
C      1  0.4520610000000  0.5017830000000  0.5505490000000 1.0
C      1  0.4650200000000  0.4778700000000  0.4165640000000 1.0
C      1  0.4009700000000  0.5017780000000  0.5232300000000 1.0
C      1  0.5945290000000  0.5192040000000  0.5011010000000 1.0
C      1  0.5127130000000  0.4743660000000  0.4520190000000 1.0
C      1  0.4528370000000  0.5197510000000  0.5860190000000 1.0
C      1  0.4932290000000  0.5922530000000  0.4773130000000 1.0
C      1  0.5738920000000  0.4566120000000  0.4400300000000 1.0
C      1  0.5269810000000  0.3829260000000  0.5136390000000 1.0
C      1  0.5319300000000  0.4264860000000  0.4332210000000 1.0
C      1  0.5294450000000  0.5477390000000  0.5765020000000 1.0
C      1  0.5598990000000  0.4309580000000  0.4367480000000 1.0
C      1  0.5395110000000  0.3594790000000  0.5163990000000 1.0
C      1  0.4924690000000  0.4464600000000  0.5333920000000 1.0
C      1  0.4315390000000  0.5235130000000  0.5609860000000 1.0
C      1  0.5025940000000  0.5071410000000  0.5783190000000 1.0
C      1  0.4306890000000  0.5172280000000  0.5014740000000 1.0
C      1  0.5426350000000  0.5562690000000  0.5243040000000 1.0
C      1  0.3912690000000  0.5548290000000  0.5021690000000 1.0
C      1  0.5070560000000  0.5354310000000  0.4140920000000 1.0
C      1  0.5940370000000  0.4901240000000  0.4929210000000 1.0
C      1  0.4933900000000  0.5546620000000  0.4941480000000 1.0
C      1  0.5448130000000  0.4972050000000  0.4581020000000 1.0
C      1  0.4884250000000  0.5170700000000  0.4545890000000 1.0
C      1  0.4690140000000  0.5783440000000  0.4927900000000 1.0
C      1  0.4604510000000  0.4125540000000  0.4552230000000 1.0
C      1  0.4546880000000  0.5100500000000  0.4206410000000 1.0
C      1  0.5608770000000  0.5768200000000  0.4939480000000 1.0
C      1  0.4725760000000  0.5397680000000  0.4143520000000 1.0
C      1  0.5462350000000  0.4310580000000  0.4988660000000 1.0
C      1  0.5524080000000  0.5457480000000  0.4830490000000 1.0
C      1  0.5440440000000  0.4660570000000  0.4472350000000 1.0
C      1  0.3924920000000  0.5073400000000  0.4959780000000 1.0
C      1  0.5313830000000  0.5018130000000  0.5610060000000 1.0
C      1  0.4173300000000  0.5639150000000  0.4884720000000 1.0
C      1  0.4800660000000  0.4345170000000  0.4425990000000 1.0
C      1  0.5077630000000  0.5648900000000  0.5615120000000 1.0
C      1  0.5417750000000  0.4313900000000  0.5325900000000 1.0
C      1  0.5040650000000  0.4532140000000  0.4034610000000 1.0
C      1  0.5314740000000  0.4029090000000  0.4940340000000 1.0
C      1  0.4079870000000  0.5241340000000  0.5404850000000 1.0
C      1  0.4433890000000  0.4948070000000  0.5230100000000 1.0
C      1  0.4986570000000  0.4805330000000  0.5942510000000 1.0
C      1  0.5637090000000  0.4784110000000  0.5375380000000 1.0
C      1  0.5599040000000  0.4948040000000  0.5757000000000 1.0
C      1  0.5137500000000  0.4214250000000  0.5417840000000 1.0
C      1  0.5792260000000  0.5666890000000  0.5876140000000 1.0
C      1  0.4861380000000  0.5269600000000  0.5260060000000 1.0
C      1  0.4729690000000  0.4940110000000  0.4742540000000 1.0
C      1  0.5299420000000  0.4807790000000  0.5343250000000 1.0
C      1  0.5474450000000  0.5613730000000  0.4562460000000 1.0
C      1  0.5611550000000  0.5531850000000  0.5757190000000 1.0
C      1  0.4871720000000  0.4103630000000  0.5140190000000 1.0
C      1  0.4548580000000  0.5768110000000  0.5467280000000 1.0
C      1  0.5809720000000  0.4808160000000  0.4628790000000 1.0
C      1  0.4546590000000  0.5556270000000  0.4367690000000 1.0
C      1  0.4159080000000  0.4377290000000  0.4840430000000 1.0
C      1  0.5129420000000  0.5988300000000  0.4962280000000 1.0
C      1  0.4712800000000  0.4696590000000  0.5365460000000 1.0
C      1  0.4959830000000  0.4465970000000  0.4995660000000 1.0
C      1  0.4404840000000  0.5316810000000  0.4742240000000 1.0
C      1  0.4780190000000  0.5306290000000  0.5790880000000 1.0
C      1  0.5012410000000  0.4402170000000  0.5655510000000 1.0
C      1  0.5606390000000  0.4475850000000  0.5515510000000 1.0
C      1  0.4508110000000  0.4505550000000  0.4493970000000 1.0
C      1  0.5181970000000  0.5289220000000  0.5992560000000 1.0
C      1  0.5957830000000  0.5117940000000  0.5499440000000 1.0
C      1  0.5038410000000  0.4172230000000  0.4849300000000 1.0
C      1  0.5758470000000  0.4551750000000  0.4990620000000 1.0
C      1  0.5205580000000  0.4304940000000  0.4074780000000 1.0
C      1  0.5034420000000  0.5928090000000  0.5228760000000 1.0
C      1  0.5058680000000  0.4941230000000  0.4969460000000 1.0
C      1  0.4105270000000  0.4983950000000  0.4714250000000 1.0
C      1  0.5109810000000  0.4342400000000  0.4570500000000 1.0
C      1  0.6105970000000  0.5663190000000  0.4995170000000 1.0
C      1  0.5350010000000  0.4506840000000  0.4748230000000 1.0
C      1  0.4707640000000  0.4530880000000  0.5662420000000 1.0
C      1  0.5155000000000  0.4790980000000  0.4054780000000 1.0
C      1  0.5681740000000  0.5112900000000  0.5301000000000 1.0
C      1  0.5909480000000  0.4630700000000  0.5488120000000 1.0
C      1  0.4620640000000  0.4219960000000  0.5254370000000 1.0
C      1  0.6158380000000  0.5385840000000  0.4830340000000 1.0
C      1  0.4280160000000  0.5384960000000  0.4449530000000 1.0
C      1  0.4093320000000  0.5482810000000  0.5260540000000 1.0
C      1  0.4325770000000  0.5048170000000  0.4461830000000 1.0
C      1  0.5545600000000  0.4769690000000  0.4839620000000 1.0
C      1  0.4042230000000  0.4727490000000  0.4525000000000 1.0
C      1  0.6180860000000  0.5388950000000  0.5162070000000 1.0
C      1  0.5316730000000  0.5138840000000  0.4368330000000 1.0
C      1  0.5653720000000  0.5133470000000  0.4155350000000 1.0
C      1  0.5068310000000  0.5193220000000  0.4818180000000 1.0
C      1  0.4462810000000  0.4297200000000  0.4775530000000 1.0
C      1  0.4666110000000  0.5384590000000  0.4922690000000 1.0
C      1  0.4270170000000  0.5673310000000  0.4629410000000 1.0
C      1  0.5265260000000  0.5460700000000  0.4401570000000 1.0
C      1  0.5388270000000  0.5162910000000  0.4829170000000 1.0
C      1  0.4405660000000  0.4899460000000  0.4837380000000 1.0
C      1  0.5557640000000  0.5369740000000  0.5486040000000 1.0
C      1  0.4692760000000  0.5077650000000  0.5051370000000 1.0
C      1  0.4718250000000  0.4719590000000  0.5911710000000 1.0
C      1  0.4559730000000  0.4687160000000  0.5061540000000 1.0
C      1  0.5781350000000  0.5021980000000  0.4365940000000 1.0
C      1  0.5260590000000  0.4541910000000  0.5134890000000 1.0
C      1  0.5880800000000  0.5820590000000  0.4973480000000 1.0
C      1  0.4815870000000  0.5502910000000  0.4517040000000 1.0
C      1  0.5451470000000  0.4984180000000  0.5086400000000 1.0
C      1  0.5104330000000  0.5480610000000  0.4665770000000 1.0
C      1  0.4392450000000  0.5489540000000  0.5102330000000 1.0
C      1  0.5296000000000  0.4582060000000  0.5602190000000 1.0
C      1  0.4087930000000  0.4489850000000  0.5074030000000 1.0
C      1  0.5403500000000  0.5298540000000  0.4085820000000 1.0
C      1  0.5064580000000  0.3937740000000  0.5302410000000 1.0
C      1  0.4629870000000  0.4396180000000  0.4993680000000 1.0
C      1  0.5230000000000  0.5307740000000  0.5477030000000 1.0
C      1  0.4827640000000  0.5519570000000  0.5608740000000 1.0
C      1  0.5196790000000  0.5767120000000  0.5388740000000 1.0
C      1  0.4788280000000  0.4525940000000  0.4159310000000 1.0
C      1  0.5047350000000  0.4981240000000  0.4315270000000 1.0
C      1  0.4551780000000  0.5781230000000  0.4623940000000 1.0
END
