TITL C-2847954-6904-187 -0.00272956966776141 125000 -1059.99243833022 0 0 196 (C1) n - 1
REM
REM in /home/bkarasulu/work/CARBON/AIRSS/Generating-Clusters/AIREBO/with-SteepDescent/Only-C1/SD-CG-opt/Try1-1.4A-POS3A/HFTN-CG
REM
REM
REM
REM
REM
REM ./C.cell (11c1c37f851c82e70ff6c80c92926a4b)
REM
REM compiler GCC version 9.2.1 20190827 (Red Hat 9.2.1-1)
REM options -cpp -mtune=generic -march=x86-64 -g -O0 -fpre-include=/usr/include/finclude/math-vector-fortran.h
REM seed -2059705413 1372028713 -1871854472 804547417 -2025562911 -91892996 -1208975694 -851998689 334326440 842924622 1297173239 1765658804 142153278 1737849262 1685033600 -634688775 -1226973499 658476625 1183562270 1788743964 1515803991 1461445003 -1392903713 -377710268 -1251465866 663810425 138394980 749150736 962710253 -32959259 -213858440 -1565867632 1962606119
REM
CELL 1.54180   50.00000   50.00000   50.00000   90.00000   90.00000   90.00000
LATT -1
SFAC C  
C      1  0.4424960000000  0.4471820000000  0.5633230000000 1.0
C      1  0.4515470000000  0.3857500000000  0.4679620000000 1.0
C      1  0.5251940000000  0.4239460000000  0.4915270000000 1.0
C      1  0.4174170000000  0.5742210000000  0.5129530000000 1.0
C      1  0.4443650000000  0.5092210000000  0.5489970000000 1.0
C      1  0.5171780000000  0.5400980000000  0.4122470000000 1.0
C      1  0.4567650000000  0.4520030000000  0.5327250000000 1.0
C      1  0.6034340000000  0.4890750000000  0.5001260000000 1.0
C      1  0.3983260000000  0.4474350000000  0.5048450000000 1.0
C      1  0.5356310000000  0.5072850000000  0.5350780000000 1.0
C      1  0.5750400000000  0.5600510000000  0.4395710000000 1.0
C      1  0.4816400000000  0.4794890000000  0.3818370000000 1.0
C      1  0.5769350000000  0.4371160000000  0.5397020000000 1.0
C      1  0.4097830000000  0.5456960000000  0.4573600000000 1.0
C      1  0.5671110000000  0.5524940000000  0.4851100000000 1.0
C      1  0.5991930000000  0.5647870000000  0.5120790000000 1.0
C      1  0.4973790000000  0.3913250000000  0.5201910000000 1.0
C      1  0.5646840000000  0.5454980000000  0.5796950000000 1.0
C      1  0.5071180000000  0.5695960000000  0.4133810000000 1.0
C      1  0.3935230000000  0.4695380000000  0.4472320000000 1.0
C      1  0.6133410000000  0.5542320000000  0.4830190000000 1.0
C      1  0.4681990000000  0.5604800000000  0.5403310000000 1.0
C      1  0.4767980000000  0.6088150000000  0.4991680000000 1.0
C      1  0.5865940000000  0.5037990000000  0.4475380000000 1.0
C      1  0.4366420000000  0.4098170000000  0.4622390000000 1.0
C      1  0.4215140000000  0.5078410000000  0.4189820000000 1.0
C      1  0.5104110000000  0.4181750000000  0.5812740000000 1.0
C      1  0.5705500000000  0.4967830000000  0.4183760000000 1.0
C      1  0.5270270000000  0.4556660000000  0.4850770000000 1.0
C      1  0.4413740000000  0.4216740000000  0.5325470000000 1.0
C      1  0.4478250000000  0.4753480000000  0.5127980000000 1.0
C      1  0.5862510000000  0.4657010000000  0.5320840000000 1.0
C      1  0.5889900000000  0.5770310000000  0.4820060000000 1.0
C      1  0.4711380000000  0.5579930000000  0.5074470000000 1.0
C      1  0.5025590000000  0.5463740000000  0.5125240000000 1.0
C      1  0.4048430000000  0.5208230000000  0.4397570000000 1.0
C      1  0.4165870000000  0.4340610000000  0.5522680000000 1.0
C      1  0.5166440000000  0.5702580000000  0.5933640000000 1.0
C      1  0.4332170000000  0.4727640000000  0.5837170000000 1.0
C      1  0.4768380000000  0.5715800000000  0.5898230000000 1.0
C      1  0.5268220000000  0.4693810000000  0.5769480000000 1.0
C      1  0.5962560000000  0.5281230000000  0.4965440000000 1.0
C      1  0.5727790000000  0.4720240000000  0.5789100000000 1.0
C      1  0.4780650000000  0.4582720000000  0.4581590000000 1.0
C      1  0.5283040000000  0.4183780000000  0.4153400000000 1.0
C      1  0.4169900000000  0.5485520000000  0.4906210000000 1.0
C      1  0.4743350000000  0.5709960000000  0.4134450000000 1.0
C      1  0.5666180000000  0.4070820000000  0.5275480000000 1.0
C      1  0.4256780000000  0.5580130000000  0.4375660000000 1.0
C      1  0.5313350000000  0.4674520000000  0.4391270000000 1.0
C      1  0.5543750000000  0.4309340000000  0.5075430000000 1.0
C      1  0.5203630000000  0.5883780000000  0.3976570000000 1.0
C      1  0.5108200000000  0.4081330000000  0.4426590000000 1.0
C      1  0.5084970000000  0.5723570000000  0.4463500000000 1.0
C      1  0.5304260000000  0.6142840000000  0.4898800000000 1.0
C      1  0.3982420000000  0.4531540000000  0.5462790000000 1.0
C      1  0.5039790000000  0.4181000000000  0.5487200000000 1.0
C      1  0.4181480000000  0.4796710000000  0.4175370000000 1.0
C      1  0.5685940000000  0.5392670000000  0.5404260000000 1.0
C      1  0.5046690000000  0.6001050000000  0.5887480000000 1.0
C      1  0.4703880000000  0.4439410000000  0.4822320000000 1.0
C      1  0.5146240000000  0.4844270000000  0.5489640000000 1.0
C      1  0.4605440000000  0.3970840000000  0.5070420000000 1.0
C      1  0.4687170000000  0.4965030000000  0.5690390000000 1.0
C      1  0.5040020000000  0.4049010000000  0.4729430000000 1.0
C      1  0.5358130000000  0.5288780000000  0.3964320000000 1.0
C      1  0.5210730000000  0.5717220000000  0.4779480000000 1.0
C      1  0.4901520000000  0.4277950000000  0.5973880000000 1.0
C      1  0.5438740000000  0.5938760000000  0.4658710000000 1.0
C      1  0.5386300000000  0.5294770000000  0.4442540000000 1.0
C      1  0.4592820000000  0.5011530000000  0.4303310000000 1.0
C      1  0.5476600000000  0.4717490000000  0.4686430000000 1.0
C      1  0.6251770000000  0.5303730000000  0.4692450000000 1.0
C      1  0.5501750000000  0.5174780000000  0.5708340000000 1.0
C      1  0.4446410000000  0.5712210000000  0.4138920000000 1.0
C      1  0.4982560000000  0.5554340000000  0.5689050000000 1.0
C      1  0.5791610000000  0.4660750000000  0.4118760000000 1.0
C      1  0.5453610000000  0.4976000000000  0.4383760000000 1.0
C      1  0.4552030000000  0.5870050000000  0.6068290000000 1.0
C      1  0.6132270000000  0.5082210000000  0.5264690000000 1.0
C      1  0.4365910000000  0.4641740000000  0.4869430000000 1.0
C      1  0.4501740000000  0.5156610000000  0.4023780000000 1.0
C      1  0.4432670000000  0.5188530000000  0.4506570000000 1.0
C      1  0.4839620000000  0.5107740000000  0.5126950000000 1.0
C      1  0.4930220000000  0.5519210000000  0.6097900000000 1.0
C      1  0.4391560000000  0.4323400000000  0.4819850000000 1.0
C      1  0.5377100000000  0.5384270000000  0.5485680000000 1.0
C      1  0.5703910000000  0.5808970000000  0.4573160000000 1.0
C      1  0.5875930000000  0.5276320000000  0.5619990000000 1.0
C      1  0.5679500000000  0.4908160000000  0.5182650000000 1.0
C      1  0.4188960000000  0.5089770000000  0.4997230000000 1.0
C      1  0.4847790000000  0.4201990000000  0.4244300000000 1.0
C      1  0.4634070000000  0.4474140000000  0.5899130000000 1.0
C      1  0.4798500000000  0.3823460000000  0.4830010000000 1.0
C      1  0.4899870000000  0.5317200000000  0.4647670000000 1.0
C      1  0.4979220000000  0.4455670000000  0.4379210000000 1.0
C      1  0.5735020000000  0.4749620000000  0.4905060000000 1.0
C      1  0.4883810000000  0.5624240000000  0.4788980000000 1.0
C      1  0.5147260000000  0.6127020000000  0.5523200000000 1.0
C      1  0.4290380000000  0.5781430000000  0.5382440000000 1.0
C      1  0.4809540000000  0.6102250000000  0.5310720000000 1.0
C      1  0.4912730000000  0.4972780000000  0.4357370000000 1.0
C      1  0.3818540000000  0.4994450000000  0.4885940000000 1.0
C      1  0.5021600000000  0.4242870000000  0.5153320000000 1.0
C      1  0.5450060000000  0.3925850000000  0.5058130000000 1.0
C      1  0.4891740000000  0.5951250000000  0.4726850000000 1.0
C      1  0.4297090000000  0.4613680000000  0.3980420000000 1.0
C      1  0.4909030000000  0.4580510000000  0.6068930000000 1.0
C      1  0.5520240000000  0.5209240000000  0.4809500000000 1.0
C      1  0.5500900000000  0.4133930000000  0.4415410000000 1.0
C      1  0.5204000000000  0.5628790000000  0.5441000000000 1.0
C      1  0.5186080000000  0.4415240000000  0.4039580000000 1.0
C      1  0.5605250000000  0.5171760000000  0.3967870000000 1.0
C      1  0.4634340000000  0.5284800000000  0.5332160000000 1.0
C      1  0.5380530000000  0.5176330000000  0.5984550000000 1.0
C      1  0.4256640000000  0.5867330000000  0.4836160000000 1.0
C      1  0.4636680000000  0.4690890000000  0.4293110000000 1.0
C      1  0.5272010000000  0.4370160000000  0.4501470000000 1.0
C      1  0.4725800000000  0.4072070000000  0.5371900000000 1.0
C      1  0.3926010000000  0.4978490000000  0.4589550000000 1.0
C      1  0.6037190000000  0.4555150000000  0.5056500000000 1.0
C      1  0.5019270000000  0.5064280000000  0.4841320000000 1.0
C      1  0.5467240000000  0.4607570000000  0.5507630000000 1.0
C      1  0.4240380000000  0.5307230000000  0.5679680000000 1.0
C      1  0.5766400000000  0.4424870000000  0.4896830000000 1.0
C      1  0.4287170000000  0.4983090000000  0.5771420000000 1.0
C      1  0.5110830000000  0.4754590000000  0.6018480000000 1.0
C      1  0.6025450000000  0.5054510000000  0.5530390000000 1.0
C      1  0.5443510000000  0.5467710000000  0.5097180000000 1.0
C      1  0.5082610000000  0.5225530000000  0.4375800000000 1.0
C      1  0.4540400000000  0.5991630000000  0.5486740000000 1.0
C      1  0.5383390000000  0.4807490000000  0.5139930000000 1.0
C      1  0.4726800000000  0.5268010000000  0.6161520000000 1.0
C      1  0.5700640000000  0.5328350000000  0.4408980000000 1.0
C      1  0.5053700000000  0.4624040000000  0.5270260000000 1.0
C      1  0.5549180000000  0.4903050000000  0.5576870000000 1.0
C      1  0.4909280000000  0.5222500000000  0.5700490000000 1.0
C      1  0.5933060000000  0.4793940000000  0.5584380000000 1.0
C      1  0.4817860000000  0.5521730000000  0.4388670000000 1.0
C      1  0.4288310000000  0.4304560000000  0.4376730000000 1.0
C      1  0.4564060000000  0.5706830000000  0.5660540000000 1.0
C      1  0.4636800000000  0.5125680000000  0.5976490000000 1.0
C      1  0.4216290000000  0.4334550000000  0.5074830000000 1.0
C      1  0.3922090000000  0.5272110000000  0.5002500000000 1.0
C      1  0.5679320000000  0.5222660000000  0.5109810000000 1.0
C      1  0.5093550000000  0.4774290000000  0.4984550000000 1.0
C      1  0.5531630000000  0.4514940000000  0.5888910000000 1.0
C      1  0.4920700000000  0.4497030000000  0.5527330000000 1.0
C      1  0.4000760000000  0.4771740000000  0.5313490000000 1.0
C      1  0.5752230000000  0.5668980000000  0.5294250000000 1.0
C      1  0.4772310000000  0.4660760000000  0.5676610000000 1.0
C      1  0.5363630000000  0.4492550000000  0.5233950000000 1.0
C      1  0.6191480000000  0.5379420000000  0.5189440000000 1.0
C      1  0.4264460000000  0.4935880000000  0.5277690000000 1.0
C      1  0.6054820000000  0.5071430000000  0.4713110000000 1.0
C      1  0.5529690000000  0.5835170000000  0.5257130000000 1.0
C      1  0.4801590000000  0.4461690000000  0.5110000000000 1.0
C      1  0.5494250000000  0.4287060000000  0.5560170000000 1.0
C      1  0.4703790000000  0.5050560000000  0.3795440000000 1.0
C      1  0.5219620000000  0.5212990000000  0.5072620000000 1.0
C      1  0.5316660000000  0.5935680000000  0.5453080000000 1.0
C      1  0.4459370000000  0.4810520000000  0.4629670000000 1.0
C      1  0.4621920000000  0.4629820000000  0.3957960000000 1.0
C      1  0.4522430000000  0.5402240000000  0.4256710000000 1.0
C      1  0.4584850000000  0.5282520000000  0.4748140000000 1.0
C      1  0.5381750000000  0.4239200000000  0.5847090000000 1.0
C      1  0.5233080000000  0.5733940000000  0.5118740000000 1.0
C      1  0.5082720000000  0.6039000000000  0.5118410000000 1.0
C      1  0.5490650000000  0.4064130000000  0.4748130000000 1.0
C      1  0.5050340000000  0.4735670000000  0.4233400000000 1.0
C      1  0.5327410000000  0.5006410000000  0.4709330000000 1.0
C      1  0.4323740000000  0.3912730000000  0.5202450000000 1.0
C      1  0.4495240000000  0.4405360000000  0.4174490000000 1.0
C      1  0.5331930000000  0.4079530000000  0.5345230000000 1.0
C      1  0.4748410000000  0.4146070000000  0.4827450000000 1.0
C      1  0.5728560000000  0.4282190000000  0.4619850000000 1.0
C      1  0.5391640000000  0.5482730000000  0.4700920000000 1.0
C      1  0.5130680000000  0.6081070000000  0.4636990000000 1.0
C      1  0.4458970000000  0.5596640000000  0.4765500000000 1.0
C      1  0.4430680000000  0.5386850000000  0.5100890000000 1.0
C      1  0.4528340000000  0.5073580000000  0.5010660000000 1.0
C      1  0.4571760000000  0.5860940000000  0.4947240000000 1.0
C      1  0.4248890000000  0.4617150000000  0.4443830000000 1.0
C      1  0.5065730000000  0.4689210000000  0.3919130000000 1.0
C      1  0.4064510000000  0.4078440000000  0.4420310000000 1.0
C      1  0.5478170000000  0.5623760000000  0.5925930000000 1.0
C      1  0.5071240000000  0.5275280000000  0.5960940000000 1.0
C      1  0.4229420000000  0.5025080000000  0.4700140000000 1.0
C      1  0.5751170000000  0.4738970000000  0.4506270000000 1.0
C      1  0.4786690000000  0.4901170000000  0.4653890000000 1.0
C      1  0.3856750000000  0.4762950000000  0.5047040000000 1.0
C      1  0.4264580000000  0.5576090000000  0.5638250000000 1.0
C      1  0.5159990000000  0.4999960000000  0.6120500000000 1.0
C      1  0.4965430000000  0.5086280000000  0.5430490000000 1.0
C      1  0.4845560000000  0.6046500000000  0.5629470000000 1.0
C      1  0.5809580000000  0.4478110000000  0.4357800000000 1.0
END
