TITL C-2847946-5639-237 -0.000140147334595953 125000 -163.326853356895 0 0 28 (C1) n - 1
REM
REM in /home/bkarasulu/work/CARBON/AIRSS/Generating-Clusters/AIREBO/with-SteepDescent/Only-C1/SD-CG-opt/Try1-1.4A-POS3A/HFTN-CG
REM
REM
REM
REM
REM
REM ./C.cell (11c1c37f851c82e70ff6c80c92926a4b)
REM
REM compiler GCC version 9.2.1 20190827 (Red Hat 9.2.1-1)
REM options -cpp -mtune=generic -march=x86-64 -g -O0 -fpre-include=/usr/include/finclude/math-vector-fortran.h
REM seed 505724184 960388945 -1607858014 -850795760 1570198315 890783445 -1955862147 928201664 -369247624 -950689057 1241575393 -1845030643 -540318431 -1508053959 1692523323 545131383 1648387365 1529899890 1741205077 1297070036 1804540062 1738411566 402771719 4571400 -1405182425 469787405 -1589477539 625409155 -1113319827 -1232247556 583902662 -1223728087 -1655829533
REM
CELL 1.54180   50.00000   50.00000   50.00000   90.00000   90.00000   90.00000
LATT -1
SFAC C  
C      1  0.4837150000000  0.5147290000000  0.4750520000000 1.0
C      1  0.5291540000000  0.5583630000000  0.4881120000000 1.0
C      1  0.4995080000000  0.4820370000000  0.5631200000000 1.0
C      1  0.5353720000000  0.5375430000000  0.5321350000000 1.0
C      1  0.5334100000000  0.4806500000000  0.4561000000000 1.0
C      1  0.4909660000000  0.5145010000000  0.5262320000000 1.0
C      1  0.5019720000000  0.5029660000000  0.4982370000000 1.0
C      1  0.5150370000000  0.4602740000000  0.4554220000000 1.0
C      1  0.4782360000000  0.4908630000000  0.5434790000000 1.0
C      1  0.4732110000000  0.5363000000000  0.5231730000000 1.0
C      1  0.4458770000000  0.4579470000000  0.4835950000000 1.0
C      1  0.4656220000000  0.4968320000000  0.4627520000000 1.0
C      1  0.4631160000000  0.4689730000000  0.5285560000000 1.0
C      1  0.5466900000000  0.4973330000000  0.4743770000000 1.0
C      1  0.4431330000000  0.4610580000000  0.5108840000000 1.0
C      1  0.4664420000000  0.4689270000000  0.4675020000000 1.0
C      1  0.5374450000000  0.5366090000000  0.5039920000000 1.0
C      1  0.5312680000000  0.5112740000000  0.4928660000000 1.0
C      1  0.5167790000000  0.5043990000000  0.5670440000000 1.0
C      1  0.4715370000000  0.5485940000000  0.4437970000000 1.0
C      1  0.5006250000000  0.4716550000000  0.4988290000000 1.0
C      1  0.5062250000000  0.4582370000000  0.5471140000000 1.0
C      1  0.5736280000000  0.4991270000000  0.4743860000000 1.0
C      1  0.4915530000000  0.4595470000000  0.5225420000000 1.0
C      1  0.4934000000000  0.4608810000000  0.4734850000000 1.0
C      1  0.5039030000000  0.5581340000000  0.4775990000000 1.0
C      1  0.4861550000000  0.5405420000000  0.4650330000000 1.0
C      1  0.5160210000000  0.5217060000000  0.5445860000000 1.0
END
