TITL C-2847952-8118-204 -0.00319003409803914 125000 -681.908714688536 0 0 131 (C1) n - 1
REM
REM in /home/bkarasulu/work/CARBON/AIRSS/Generating-Clusters/AIREBO/with-SteepDescent/Only-C1/SD-CG-opt/Try1-1.4A-POS3A/HFTN-CG
REM
REM
REM
REM
REM
REM ./C.cell (11c1c37f851c82e70ff6c80c92926a4b)
REM
REM compiler GCC version 9.2.1 20190827 (Red Hat 9.2.1-1)
REM options -cpp -mtune=generic -march=x86-64 -g -O0 -fpre-include=/usr/include/finclude/math-vector-fortran.h
REM seed -99931101 1633306126 704033905 -148040132 -1504289201 59245303 -1143538030 -1973181335 1234202493 1327267943 -1398682598 118444436 164098002 1618445837 822091851 15728323 -920495738 1868924379 -1606082798 -1374137960 -679280886 762394953 383892554 -205096222 -1556451494 -1388430460 -1132797740 -369449129 -620724112 1330603897 -1030481557 -954928483 2036139871
REM
CELL 1.54180   50.00000   50.00000   50.00000   90.00000   90.00000   90.00000
LATT -1
SFAC C  
C      1  0.4929790000000  0.5852910000000  0.4749250000000 1.0
C      1  0.5265820000000  0.5233110000000  0.4449250000000 1.0
C      1  0.4556140000000  0.5254570000000  0.4224240000000 1.0
C      1  0.5267400000000  0.4654500000000  0.4958240000000 1.0
C      1  0.5165590000000  0.4128560000000  0.5269970000000 1.0
C      1  0.5210750000000  0.4046070000000  0.4441610000000 1.0
C      1  0.5609910000000  0.5153660000000  0.5197520000000 1.0
C      1  0.5624450000000  0.4850260000000  0.4339850000000 1.0
C      1  0.4807640000000  0.5079110000000  0.4105020000000 1.0
C      1  0.5337000000000  0.4117150000000  0.5505680000000 1.0
C      1  0.4648450000000  0.5414640000000  0.5460070000000 1.0
C      1  0.5407110000000  0.5898440000000  0.5279620000000 1.0
C      1  0.4688270000000  0.4245360000000  0.5704510000000 1.0
C      1  0.5393320000000  0.5687630000000  0.4679860000000 1.0
C      1  0.4339420000000  0.4115180000000  0.4964320000000 1.0
C      1  0.4739570000000  0.5443070000000  0.5072820000000 1.0
C      1  0.5757380000000  0.5325040000000  0.5451530000000 1.0
C      1  0.5246890000000  0.5534720000000  0.4303250000000 1.0
C      1  0.5295060000000  0.5214860000000  0.4761660000000 1.0
C      1  0.5475660000000  0.4466710000000  0.5150560000000 1.0
C      1  0.4595830000000  0.4124150000000  0.5072470000000 1.0
C      1  0.5739360000000  0.4413460000000  0.5032610000000 1.0
C      1  0.5586080000000  0.5100630000000  0.5592950000000 1.0
C      1  0.5056030000000  0.5057460000000  0.5423400000000 1.0
C      1  0.5186850000000  0.5355480000000  0.5432310000000 1.0
C      1  0.4761130000000  0.4876410000000  0.5228190000000 1.0
C      1  0.5112410000000  0.4369430000000  0.4827340000000 1.0
C      1  0.4575890000000  0.5138210000000  0.4637950000000 1.0
C      1  0.5973050000000  0.4525630000000  0.5170130000000 1.0
C      1  0.4850440000000  0.5094450000000  0.4441990000000 1.0
C      1  0.5846800000000  0.4708110000000  0.4784640000000 1.0
C      1  0.5540190000000  0.5541680000000  0.4409320000000 1.0
C      1  0.5494000000000  0.4699920000000  0.5697490000000 1.0
C      1  0.4729160000000  0.5544500000000  0.4268900000000 1.0
C      1  0.4824440000000  0.5212130000000  0.5249010000000 1.0
C      1  0.5283810000000  0.5194330000000  0.5717580000000 1.0
C      1  0.5089860000000  0.5775930000000  0.5039600000000 1.0
C      1  0.5787320000000  0.4803190000000  0.5105840000000 1.0
C      1  0.5086240000000  0.5680790000000  0.4534020000000 1.0
C      1  0.4027040000000  0.4885890000000  0.5357460000000 1.0
C      1  0.4100160000000  0.5560770000000  0.5094770000000 1.0
C      1  0.4185380000000  0.4409330000000  0.4916970000000 1.0
C      1  0.5264010000000  0.4570050000000  0.5398010000000 1.0
C      1  0.4814470000000  0.4207610000000  0.4887930000000 1.0
C      1  0.4025340000000  0.4568780000000  0.5417340000000 1.0
C      1  0.4949710000000  0.5451600000000  0.4830070000000 1.0
C      1  0.4850030000000  0.5504620000000  0.5677990000000 1.0
C      1  0.5188010000000  0.4336570000000  0.4497320000000 1.0
C      1  0.4257860000000  0.4588880000000  0.5171980000000 1.0
C      1  0.5569190000000  0.5106380000000  0.4223390000000 1.0
C      1  0.5772230000000  0.4887110000000  0.4585330000000 1.0
C      1  0.5364450000000  0.4687590000000  0.4381930000000 1.0
C      1  0.4859690000000  0.4418230000000  0.4476510000000 1.0
C      1  0.4246750000000  0.4952790000000  0.5613550000000 1.0
C      1  0.5625300000000  0.5143850000000  0.4728100000000 1.0
C      1  0.5267880000000  0.5504610000000  0.4937620000000 1.0
C      1  0.4972880000000  0.5278610000000  0.5829680000000 1.0
C      1  0.6097460000000  0.5396320000000  0.4765240000000 1.0
C      1  0.4690680000000  0.5736040000000  0.4537480000000 1.0
C      1  0.5659030000000  0.5292840000000  0.4424180000000 1.0
C      1  0.5433240000000  0.5478920000000  0.5828650000000 1.0
C      1  0.4868350000000  0.4783280000000  0.4146450000000 1.0
C      1  0.4040120000000  0.4975860000000  0.5023160000000 1.0
C      1  0.5127170000000  0.4943100000000  0.4842940000000 1.0
C      1  0.4824320000000  0.5952300000000  0.5157900000000 1.0
C      1  0.4137980000000  0.4840520000000  0.4535830000000 1.0
C      1  0.4802620000000  0.4878680000000  0.5562890000000 1.0
C      1  0.5515000000000  0.4884610000000  0.4919170000000 1.0
C      1  0.4006660000000  0.5188760000000  0.4760760000000 1.0
C      1  0.4421340000000  0.4836400000000  0.5143320000000 1.0
C      1  0.4344380000000  0.4464670000000  0.5464560000000 1.0
C      1  0.5512660000000  0.4400690000000  0.5556890000000 1.0
C      1  0.4675140000000  0.5135780000000  0.5745250000000 1.0
C      1  0.4309060000000  0.5048690000000  0.4826770000000 1.0
C      1  0.4647220000000  0.5684330000000  0.5252990000000 1.0
C      1  0.4940480000000  0.5518610000000  0.4023590000000 1.0
C      1  0.4500970000000  0.5108310000000  0.5454440000000 1.0
C      1  0.5155180000000  0.4489690000000  0.5710080000000 1.0
C      1  0.5943650000000  0.5082620000000  0.5193660000000 1.0
C      1  0.5665630000000  0.5668230000000  0.4846570000000 1.0
C      1  0.5287240000000  0.4246700000000  0.5052660000000 1.0
C      1  0.5612730000000  0.5803720000000  0.5110180000000 1.0
C      1  0.5211630000000  0.4484190000000  0.4191850000000 1.0
C      1  0.5522980000000  0.5481230000000  0.5169880000000 1.0
C      1  0.4141770000000  0.5481130000000  0.4797730000000 1.0
C      1  0.4397550000000  0.4689810000000  0.5694080000000 1.0
C      1  0.4617180000000  0.5424950000000  0.4776150000000 1.0
C      1  0.6087560000000  0.5026020000000  0.5458740000000 1.0
C      1  0.4964480000000  0.5743870000000  0.5584430000000 1.0
C      1  0.5037030000000  0.5255770000000  0.4004790000000 1.0
C      1  0.4402550000000  0.5637080000000  0.4645160000000 1.0
C      1  0.4273940000000  0.4713490000000  0.4793220000000 1.0
C      1  0.4984120000000  0.4709360000000  0.5871620000000 1.0
C      1  0.5723180000000  0.4442350000000  0.4737770000000 1.0
C      1  0.5309520000000  0.5031360000000  0.5116040000000 1.0
C      1  0.4170620000000  0.5414210000000  0.5311620000000 1.0
C      1  0.4327510000000  0.4515970000000  0.4400640000000 1.0
C      1  0.4401750000000  0.4363000000000  0.4658760000000 1.0
C      1  0.4310610000000  0.5326760000000  0.4540730000000 1.0
C      1  0.4553810000000  0.4549420000000  0.4899160000000 1.0
C      1  0.5012970000000  0.4652070000000  0.5183860000000 1.0
C      1  0.4662080000000  0.4853360000000  0.4903730000000 1.0
C      1  0.5252010000000  0.5973350000000  0.4798320000000 1.0
C      1  0.5285330000000  0.5184850000000  0.4113230000000 1.0
C      1  0.4254700000000  0.5113680000000  0.5248040000000 1.0
C      1  0.5269450000000  0.4862270000000  0.5793930000000 1.0
C      1  0.4873050000000  0.4880430000000  0.4704100000000 1.0
C      1  0.6076400000000  0.5325950000000  0.5046530000000 1.0
C      1  0.4325180000000  0.5452070000000  0.5558700000000 1.0
C      1  0.5147870000000  0.4932010000000  0.4412110000000 1.0
C      1  0.4912480000000  0.4218160000000  0.5297700000000 1.0
C      1  0.5476910000000  0.5483270000000  0.5512660000000 1.0
C      1  0.5170370000000  0.5687020000000  0.5357950000000 1.0
C      1  0.5500070000000  0.4444850000000  0.4578030000000 1.0
C      1  0.4768450000000  0.5925280000000  0.5467740000000 1.0
C      1  0.4780120000000  0.4702900000000  0.4429130000000 1.0
C      1  0.4478130000000  0.4746310000000  0.4353790000000 1.0
C      1  0.4586460000000  0.4267360000000  0.5380850000000 1.0
C      1  0.4742570000000  0.4482110000000  0.5166800000000 1.0
C      1  0.5212700000000  0.4227360000000  0.5755620000000 1.0
C      1  0.5800830000000  0.5431100000000  0.4777070000000 1.0
C      1  0.4344100000000  0.5229740000000  0.5788030000000 1.0
C      1  0.5865030000000  0.5474340000000  0.5188620000000 1.0
C      1  0.4646760000000  0.4740040000000  0.5901870000000 1.0
C      1  0.4325050000000  0.5049880000000  0.4343540000000 1.0
C      1  0.5311710000000  0.4887700000000  0.5396580000000 1.0
C      1  0.5025900000000  0.4595870000000  0.4032160000000 1.0
C      1  0.4770510000000  0.4555260000000  0.5649480000000 1.0
C      1  0.4910540000000  0.5404120000000  0.4506590000000 1.0
C      1  0.5635990000000  0.4817290000000  0.5411710000000 1.0
C      1  0.4695220000000  0.4275670000000  0.4643070000000 1.0
END
