TITL C-2848494-1720-145 -0.000439892097192195 125000 -971.552800124083 0 0 177 (C1) n - 1
REM
REM in /home/bkarasulu/work/CARBON/AIRSS/Generating-Clusters/AIREBO/with-SteepDescent/Only-C1/SD-CG-opt/Try1-1.4A-POS3A/HFTN-CG
REM
REM
REM
REM
REM
REM ./C.cell (11c1c37f851c82e70ff6c80c92926a4b)
REM
REM compiler GCC version 9.2.1 20190827 (Red Hat 9.2.1-1)
REM options -cpp -mtune=generic -march=x86-64 -g -O0 -fpre-include=/usr/include/finclude/math-vector-fortran.h
REM seed 188653410 328219759 1382696730 -1823065580 1805038429 1413140794 -755984556 -1919536841 974730799 -953870320 347135873 -1873917142 1888047478 -851209960 2129464772 -1968522499 -15486590 -1174664092 -315535285 -2018427136 -1845520444 730509645 1739947004 418377695 -1121660753 -1310899914 -1669272212 997700804 1179292589 -438665656 2078860472 645484593 -1305990110
REM
CELL 1.54180   50.00000   50.00000   50.00000   90.00000   90.00000   90.00000
LATT -1
SFAC C  
C      1  0.4311570000000  0.4302310000000  0.5657050000000 1.0
C      1  0.4279510000000  0.5894660000000  0.4798820000000 1.0
C      1  0.4628320000000  0.4428340000000  0.5875070000000 1.0
C      1  0.4169130000000  0.5619980000000  0.4394050000000 1.0
C      1  0.4935170000000  0.5724120000000  0.4542300000000 1.0
C      1  0.4783070000000  0.5481960000000  0.4159210000000 1.0
C      1  0.4407390000000  0.4346940000000  0.4780740000000 1.0
C      1  0.5144440000000  0.5538410000000  0.4672110000000 1.0
C      1  0.4967020000000  0.6093290000000  0.5171290000000 1.0
C      1  0.5741840000000  0.5173170000000  0.4045740000000 1.0
C      1  0.5827730000000  0.5550250000000  0.5586290000000 1.0
C      1  0.4469710000000  0.4033530000000  0.4896940000000 1.0
C      1  0.4397170000000  0.4625060000000  0.5721630000000 1.0
C      1  0.5023270000000  0.5519870000000  0.5768200000000 1.0
C      1  0.5387220000000  0.4314330000000  0.4838660000000 1.0
C      1  0.5429230000000  0.4874480000000  0.5881570000000 1.0
C      1  0.4771960000000  0.3979730000000  0.4507680000000 1.0
C      1  0.4374660000000  0.5514650000000  0.5169100000000 1.0
C      1  0.4842050000000  0.5971030000000  0.5719980000000 1.0
C      1  0.5688030000000  0.4209250000000  0.4796870000000 1.0
C      1  0.4711680000000  0.5430620000000  0.5871450000000 1.0
C      1  0.5046220000000  0.4587150000000  0.4102170000000 1.0
C      1  0.4584010000000  0.5986500000000  0.5199970000000 1.0
C      1  0.5074800000000  0.4016810000000  0.5551100000000 1.0
C      1  0.4766640000000  0.4146730000000  0.5486330000000 1.0
C      1  0.4089940000000  0.5116100000000  0.4548650000000 1.0
C      1  0.4143130000000  0.4536000000000  0.5089400000000 1.0
C      1  0.4579650000000  0.5107250000000  0.4955090000000 1.0
C      1  0.5352100000000  0.4571970000000  0.4979920000000 1.0
C      1  0.5573250000000  0.4746830000000  0.4867340000000 1.0
C      1  0.5847620000000  0.4752030000000  0.5652260000000 1.0
C      1  0.4849190000000  0.4713250000000  0.5708790000000 1.0
C      1  0.5914020000000  0.5726160000000  0.5314410000000 1.0
C      1  0.5358340000000  0.5125470000000  0.5672940000000 1.0
C      1  0.4620010000000  0.5051060000000  0.4427840000000 1.0
C      1  0.4429710000000  0.5754880000000  0.4457490000000 1.0
C      1  0.4072060000000  0.4666350000000  0.5373470000000 1.0
C      1  0.4774840000000  0.5923010000000  0.4948330000000 1.0
C      1  0.5189120000000  0.4519870000000  0.5643290000000 1.0
C      1  0.5522470000000  0.5965050000000  0.4933660000000 1.0
C      1  0.4465300000000  0.4646300000000  0.4774350000000 1.0
C      1  0.4439580000000  0.4307470000000  0.4144980000000 1.0
C      1  0.5423950000000  0.5173460000000  0.4143270000000 1.0
C      1  0.4669740000000  0.4727920000000  0.4513510000000 1.0
C      1  0.4776570000000  0.5128190000000  0.5927590000000 1.0
C      1  0.4236480000000  0.5283130000000  0.5346980000000 1.0
C      1  0.5528970000000  0.5554330000000  0.5423320000000 1.0
C      1  0.4779570000000  0.4557330000000  0.4857140000000 1.0
C      1  0.5747590000000  0.5244020000000  0.4366770000000 1.0
C      1  0.5577360000000  0.4590410000000  0.5762360000000 1.0
C      1  0.6061730000000  0.5174260000000  0.5210770000000 1.0
C      1  0.4672870000000  0.4553160000000  0.5179980000000 1.0
C      1  0.5749640000000  0.5576440000000  0.4400870000000 1.0
C      1  0.5541170000000  0.5312370000000  0.4615550000000 1.0
C      1  0.4595160000000  0.5778920000000  0.4759620000000 1.0
C      1  0.6023280000000  0.4538900000000  0.5479650000000 1.0
C      1  0.5155930000000  0.5023720000000  0.3870880000000 1.0
C      1  0.4975730000000  0.6056850000000  0.4599940000000 1.0
C      1  0.4731490000000  0.4967610000000  0.4055800000000 1.0
C      1  0.4910100000000  0.4636640000000  0.5382740000000 1.0
C      1  0.4594880000000  0.4884180000000  0.5181850000000 1.0
C      1  0.5719020000000  0.4958930000000  0.4562620000000 1.0
C      1  0.5891370000000  0.4452290000000  0.5254300000000 1.0
C      1  0.3768760000000  0.5060040000000  0.5552490000000 1.0
C      1  0.5975540000000  0.4382330000000  0.4740190000000 1.0
C      1  0.5990000000000  0.5438990000000  0.4794270000000 1.0
C      1  0.5113850000000  0.5274350000000  0.4081690000000 1.0
C      1  0.5303390000000  0.5667180000000  0.5849010000000 1.0
C      1  0.5925370000000  0.4904750000000  0.5358570000000 1.0
C      1  0.4461110000000  0.5290200000000  0.4477950000000 1.0
C      1  0.5424860000000  0.5658290000000  0.4823560000000 1.0
C      1  0.5838140000000  0.4565980000000  0.4980330000000 1.0
C      1  0.4533260000000  0.4192560000000  0.4419600000000 1.0
C      1  0.4631550000000  0.5579730000000  0.5499050000000 1.0
C      1  0.4880910000000  0.4383560000000  0.5690360000000 1.0
C      1  0.5689760000000  0.5486570000000  0.4826740000000 1.0
C      1  0.4412260000000  0.5271130000000  0.5848160000000 1.0
C      1  0.4678000000000  0.5390030000000  0.5096920000000 1.0
C      1  0.4354680000000  0.4686760000000  0.4392180000000 1.0
C      1  0.4539950000000  0.5300460000000  0.5461080000000 1.0
C      1  0.5176090000000  0.4391830000000  0.4265380000000 1.0
C      1  0.5265470000000  0.4188730000000  0.5655090000000 1.0
C      1  0.5587090000000  0.4094840000000  0.5101190000000 1.0
C      1  0.5639010000000  0.4308020000000  0.5312940000000 1.0
C      1  0.5703120000000  0.4890240000000  0.4169180000000 1.0
C      1  0.5396490000000  0.4842400000000  0.4233640000000 1.0
C      1  0.5101070000000  0.4201900000000  0.5092380000000 1.0
C      1  0.5438530000000  0.4274230000000  0.4295860000000 1.0
C      1  0.5247210000000  0.5731330000000  0.5104190000000 1.0
C      1  0.4400690000000  0.5018950000000  0.5999870000000 1.0
C      1  0.4898770000000  0.4003480000000  0.4750000000000 1.0
C      1  0.4972340000000  0.6257430000000  0.4877500000000 1.0
C      1  0.4658730000000  0.5028220000000  0.5459550000000 1.0
C      1  0.5118020000000  0.4210220000000  0.4756910000000 1.0
C      1  0.5914580000000  0.4948820000000  0.4824110000000 1.0
C      1  0.4115250000000  0.4202170000000  0.4877340000000 1.0
C      1  0.5058000000000  0.5915380000000  0.4300120000000 1.0
C      1  0.4791270000000  0.4234060000000  0.5191830000000 1.0
C      1  0.4466680000000  0.5772560000000  0.5322670000000 1.0
C      1  0.3950900000000  0.4891250000000  0.4495640000000 1.0
C      1  0.6107540000000  0.4682510000000  0.4838920000000 1.0
C      1  0.5107650000000  0.4818650000000  0.5174290000000 1.0
C      1  0.4391080000000  0.4835750000000  0.4103190000000 1.0
C      1  0.4641810000000  0.5281290000000  0.4041080000000 1.0
C      1  0.4735840000000  0.4398710000000  0.4559490000000 1.0
C      1  0.5229730000000  0.4711010000000  0.4499460000000 1.0
C      1  0.5689340000000  0.5052940000000  0.5644220000000 1.0
C      1  0.4907120000000  0.5128720000000  0.4298510000000 1.0
C      1  0.5738300000000  0.5838090000000  0.5143520000000 1.0
C      1  0.5359660000000  0.5432340000000  0.4354130000000 1.0
C      1  0.4354880000000  0.5385810000000  0.4777770000000 1.0
C      1  0.5265690000000  0.5391830000000  0.5564630000000 1.0
C      1  0.5513520000000  0.4833590000000  0.5452650000000 1.0
C      1  0.4184930000000  0.5312500000000  0.4314140000000 1.0
C      1  0.5217990000000  0.4786470000000  0.3992520000000 1.0
C      1  0.5597240000000  0.4361320000000  0.4506250000000 1.0
C      1  0.5062330000000  0.4691360000000  0.4897470000000 1.0
C      1  0.4966000000000  0.5031130000000  0.5375480000000 1.0
C      1  0.5915320000000  0.4791840000000  0.4340740000000 1.0
C      1  0.5669750000000  0.5358430000000  0.5765480000000 1.0
C      1  0.4199520000000  0.5266910000000  0.5666150000000 1.0
C      1  0.5301100000000  0.4573540000000  0.5959900000000 1.0
C      1  0.4290900000000  0.4072560000000  0.4611460000000 1.0
C      1  0.4956910000000  0.4853790000000  0.4645100000000 1.0
C      1  0.4433030000000  0.4191060000000  0.5430700000000 1.0
C      1  0.5393880000000  0.4930600000000  0.5173040000000 1.0
C      1  0.5190990000000  0.3840550000000  0.5357570000000 1.0
C      1  0.5352920000000  0.5934430000000  0.4638570000000 1.0
C      1  0.4969470000000  0.4998510000000  0.6068680000000 1.0
C      1  0.5502490000000  0.5496460000000  0.5929230000000 1.0
C      1  0.3865770000000  0.4923450000000  0.5317320000000 1.0
C      1  0.5595910000000  0.5431440000000  0.5131330000000 1.0
C      1  0.4682860000000  0.5546120000000  0.4446950000000 1.0
C      1  0.4677890000000  0.5449300000000  0.4773220000000 1.0
C      1  0.5123800000000  0.5254930000000  0.4520250000000 1.0
C      1  0.5442030000000  0.5939440000000  0.5265490000000 1.0
C      1  0.5140410000000  0.5506860000000  0.5270060000000 1.0
C      1  0.4124350000000  0.5027390000000  0.5210100000000 1.0
C      1  0.5727800000000  0.4929480000000  0.5108940000000 1.0
C      1  0.4356470000000  0.4516560000000  0.4031910000000 1.0
C      1  0.4057150000000  0.5719920000000  0.4643560000000 1.0
C      1  0.6078410000000  0.5198570000000  0.4895290000000 1.0
C      1  0.5393750000000  0.5220680000000  0.5086030000000 1.0
C      1  0.4116680000000  0.4795260000000  0.5685680000000 1.0
C      1  0.5891020000000  0.5396550000000  0.5296650000000 1.0
C      1  0.4951490000000  0.5638160000000  0.5483390000000 1.0
C      1  0.5192340000000  0.4850500000000  0.5561440000000 1.0
C      1  0.4008530000000  0.5055640000000  0.5717880000000 1.0
C      1  0.4811770000000  0.4707420000000  0.4205170000000 1.0
C      1  0.5151030000000  0.5181040000000  0.4851220000000 1.0
C      1  0.4106590000000  0.4657800000000  0.4531980000000 1.0
C      1  0.5048190000000  0.4772230000000  0.5940650000000 1.0
C      1  0.4599430000000  0.4896760000000  0.5752350000000 1.0
C      1  0.4197020000000  0.5599660000000  0.4927840000000 1.0
C      1  0.5053530000000  0.4423670000000  0.4549550000000 1.0
C      1  0.4282600000000  0.5084420000000  0.4791130000000 1.0
C      1  0.5102240000000  0.5885000000000  0.4864640000000 1.0
C      1  0.5321630000000  0.3981650000000  0.5138570000000 1.0
C      1  0.4733610000000  0.4015020000000  0.4971910000000 1.0
C      1  0.4826860000000  0.5139850000000  0.4757140000000 1.0
C      1  0.4305800000000  0.4823140000000  0.5007470000000 1.0
C      1  0.4994810000000  0.5273880000000  0.5138890000000 1.0
C      1  0.4402670000000  0.4586510000000  0.5383830000000 1.0
C      1  0.5501080000000  0.5730120000000  0.4437500000000 1.0
C      1  0.4381610000000  0.5151070000000  0.4111500000000 1.0
C      1  0.4271200000000  0.4233430000000  0.5178610000000 1.0
C      1  0.5315250000000  0.5794570000000  0.5533980000000 1.0
C      1  0.5436680000000  0.5036790000000  0.4735630000000 1.0
C      1  0.5032140000000  0.5964550000000  0.5448590000000 1.0
C      1  0.4693730000000  0.5744870000000  0.5769220000000 1.0
C      1  0.5148930000000  0.4426420000000  0.5318720000000 1.0
C      1  0.5434600000000  0.4549220000000  0.5286110000000 1.0
C      1  0.5558600000000  0.4659350000000  0.4548730000000 1.0
C      1  0.5534360000000  0.4322050000000  0.5607600000000 1.0
C      1  0.5100710000000  0.5593780000000  0.4197500000000 1.0
C      1  0.4047080000000  0.4514790000000  0.4763820000000 1.0
C      1  0.6167200000000  0.4863770000000  0.5120750000000 1.0
END
