TITL C-2847952-8118-439 0.0141113264205516 125000 -533.852400304412 0 0 101 (C1) n - 1
REM
REM in /home/bkarasulu/work/CARBON/AIRSS/Generating-Clusters/AIREBO/with-SteepDescent/Only-C1/SD-CG-opt/Try1-1.4A-POS3A/HFTN-CG
REM
REM
REM
REM
REM
REM ./C.cell (11c1c37f851c82e70ff6c80c92926a4b)
REM
REM compiler GCC version 9.2.1 20190827 (Red Hat 9.2.1-1)
REM options -cpp -mtune=generic -march=x86-64 -g -O0 -fpre-include=/usr/include/finclude/math-vector-fortran.h
REM seed -1297677312 2046829112 -373000088 1279210217 1090333799 -436096589 -167745131 -1517577908 1793433289 -195645588 1388133458 800383428 -1029030212 -2008849994 959197450 14275084 -2128830678 -427494941 1891806099 -506654700 213680644 702733640 195837685 1744343264 -993688726 -1527794802 5200781 -1462273067 321219942 901608574 -874485733 1003929498 -1197099512
REM
CELL 1.54180   50.00000   50.00000   50.00000   90.00000   90.00000   90.00000
LATT -1
SFAC C  
C      1  0.4771300000000  0.4459410000000  0.5620310000000 1.0
C      1  0.4495790000000  0.5425730000000  0.5033160000000 1.0
C      1  0.5650630000000  0.4540540000000  0.5311190000000 1.0
C      1  0.4235750000000  0.5211140000000  0.4766710000000 1.0
C      1  0.4725490000000  0.5561070000000  0.4334110000000 1.0
C      1  0.5579170000000  0.4347270000000  0.4534760000000 1.0
C      1  0.5114870000000  0.5162160000000  0.4807190000000 1.0
C      1  0.4680540000000  0.5375440000000  0.4775940000000 1.0
C      1  0.4040510000000  0.4957190000000  0.5117420000000 1.0
C      1  0.5002980000000  0.4883280000000  0.5499030000000 1.0
C      1  0.5296250000000  0.4169830000000  0.5113470000000 1.0
C      1  0.5397250000000  0.4872070000000  0.4550540000000 1.0
C      1  0.5741760000000  0.4297460000000  0.4322110000000 1.0
C      1  0.4948990000000  0.5331910000000  0.4572990000000 1.0
C      1  0.4379270000000  0.4917140000000  0.4250900000000 1.0
C      1  0.5169370000000  0.5433180000000  0.4253030000000 1.0
C      1  0.5556730000000  0.5694160000000  0.5048590000000 1.0
C      1  0.4775200000000  0.4668420000000  0.4412380000000 1.0
C      1  0.4099230000000  0.5240320000000  0.4526970000000 1.0
C      1  0.5096470000000  0.4984590000000  0.5188070000000 1.0
C      1  0.5503370000000  0.5347570000000  0.5240330000000 1.0
C      1  0.5463910000000  0.4315330000000  0.5370790000000 1.0
C      1  0.5273030000000  0.5506520000000  0.5047190000000 1.0
C      1  0.4439900000000  0.5623190000000  0.5304250000000 1.0
C      1  0.4112990000000  0.4688830000000  0.4937280000000 1.0
C      1  0.5354790000000  0.5114170000000  0.5367310000000 1.0
C      1  0.4902730000000  0.4596450000000  0.5345960000000 1.0
C      1  0.5925830000000  0.5107850000000  0.5077420000000 1.0
C      1  0.4864250000000  0.4891880000000  0.5809400000000 1.0
C      1  0.5447070000000  0.4874720000000  0.5793160000000 1.0
C      1  0.5345310000000  0.5871560000000  0.4909390000000 1.0
C      1  0.4749100000000  0.5863350000000  0.4760330000000 1.0
C      1  0.5364270000000  0.4942480000000  0.4879920000000 1.0
C      1  0.4930220000000  0.4928430000000  0.4526550000000 1.0
C      1  0.4540780000000  0.5180100000000  0.5434410000000 1.0
C      1  0.4876770000000  0.5816840000000  0.5010090000000 1.0
C      1  0.5228080000000  0.4580340000000  0.4778800000000 1.0
C      1  0.5124100000000  0.5099630000000  0.4301470000000 1.0
C      1  0.5468120000000  0.5604350000000  0.5460770000000 1.0
C      1  0.5134170000000  0.5889370000000  0.5105560000000 1.0
C      1  0.5738700000000  0.5500620000000  0.4956240000000 1.0
C      1  0.5101500000000  0.4187760000000  0.4588020000000 1.0
C      1  0.4611640000000  0.5283640000000  0.5744760000000 1.0
C      1  0.5211560000000  0.4601080000000  0.5255200000000 1.0
C      1  0.4439060000000  0.4670460000000  0.4424820000000 1.0
C      1  0.4493020000000  0.4880930000000  0.5175370000000 1.0
C      1  0.4597500000000  0.5056370000000  0.4169050000000 1.0
C      1  0.5386400000000  0.4820580000000  0.5403950000000 1.0
C      1  0.5065940000000  0.4789390000000  0.4937040000000 1.0
C      1  0.4147470000000  0.5065210000000  0.4316610000000 1.0
C      1  0.5171990000000  0.5580070000000  0.5612770000000 1.0
C      1  0.5031870000000  0.5219840000000  0.5539300000000 1.0
C      1  0.4956430000000  0.4158130000000  0.5106400000000 1.0
C      1  0.5157930000000  0.4829310000000  0.4098040000000 1.0
C      1  0.5007480000000  0.5300370000000  0.5098700000000 1.0
C      1  0.4356370000000  0.4749320000000  0.4717270000000 1.0
C      1  0.3928240000000  0.4675610000000  0.5222750000000 1.0
C      1  0.4664770000000  0.4890340000000  0.5463750000000 1.0
C      1  0.5315260000000  0.4369020000000  0.5599490000000 1.0
C      1  0.5171880000000  0.4719040000000  0.4410660000000 1.0
C      1  0.4301320000000  0.5151310000000  0.5095010000000 1.0
C      1  0.4899830000000  0.4356110000000  0.4463060000000 1.0
C      1  0.5125410000000  0.4759160000000  0.3855340000000 1.0
C      1  0.5534850000000  0.5230240000000  0.4925140000000 1.0
C      1  0.4578090000000  0.5566530000000  0.5752900000000 1.0
C      1  0.5590440000000  0.4743730000000  0.5040610000000 1.0
C      1  0.4459590000000  0.5019220000000  0.4753120000000 1.0
C      1  0.4792770000000  0.5053210000000  0.4811790000000 1.0
C      1  0.5773500000000  0.5472760000000  0.5505720000000 1.0
C      1  0.5290210000000  0.4429810000000  0.4505800000000 1.0
C      1  0.4643420000000  0.5664090000000  0.5491740000000 1.0
C      1  0.5688910000000  0.5028910000000  0.4619620000000 1.0
C      1  0.5355920000000  0.5586560000000  0.4723190000000 1.0
C      1  0.4791740000000  0.5555940000000  0.5127170000000 1.0
C      1  0.4780010000000  0.4717800000000  0.4867240000000 1.0
C      1  0.5632820000000  0.4321470000000  0.4804340000000 1.0
C      1  0.4817750000000  0.5244310000000  0.4270740000000 1.0
C      1  0.4918490000000  0.5518550000000  0.5422170000000 1.0
C      1  0.4641090000000  0.4578250000000  0.5129340000000 1.0
C      1  0.4693710000000  0.5637220000000  0.4595610000000 1.0
C      1  0.5835400000000  0.5285000000000  0.5278410000000 1.0
C      1  0.4828440000000  0.5163930000000  0.5876100000000 1.0
C      1  0.5219390000000  0.5818130000000  0.5370920000000 1.0
C      1  0.5119890000000  0.5337100000000  0.5846120000000 1.0
C      1  0.4279610000000  0.5359790000000  0.5362720000000 1.0
C      1  0.4381230000000  0.4489610000000  0.4928690000000 1.0
C      1  0.4689020000000  0.4485940000000  0.4674000000000 1.0
C      1  0.5361380000000  0.5130690000000  0.5774460000000 1.0
C      1  0.5223340000000  0.4671280000000  0.5648400000000 1.0
C      1  0.4717860000000  0.4254070000000  0.5197680000000 1.0
C      1  0.5403100000000  0.4468220000000  0.5007570000000 1.0
C      1  0.5801940000000  0.4936040000000  0.4900140000000 1.0
C      1  0.5147660000000  0.5571980000000  0.4511590000000 1.0
C      1  0.5444160000000  0.5156220000000  0.4401840000000 1.0
C      1  0.4722930000000  0.5119850000000  0.5144460000000 1.0
C      1  0.4766350000000  0.4627330000000  0.5844730000000 1.0
C      1  0.5104960000000  0.4091380000000  0.4840940000000 1.0
C      1  0.5570700000000  0.5358820000000  0.4624560000000 1.0
C      1  0.4391030000000  0.4373980000000  0.4608990000000 1.0
C      1  0.4667160000000  0.4227970000000  0.5480000000000 1.0
C      1  0.5653250000000  0.4715170000000  0.5578600000000 1.0
END
