TITL C-2847957-7266-160 5.33065553466831e-08 125000 -126.535355245119 0 0 23 (C1) n - 1
REM
REM in /home/bkarasulu/work/CARBON/AIRSS/Generating-Clusters/AIREBO/with-SteepDescent/Only-C1/SD-CG-opt/Try1-1.4A-POS3A/HFTN-CG
REM
REM
REM
REM
REM
REM ./C.cell (11c1c37f851c82e70ff6c80c92926a4b)
REM
REM compiler GCC version 9.2.1 20190827 (Red Hat 9.2.1-1)
REM options -cpp -mtune=generic -march=x86-64 -g -O0 -fpre-include=/usr/include/finclude/math-vector-fortran.h
REM seed 1215719275 -1890175401 -236136071 834510390 24353672 -131508393 -692384469 886794877 650727266 1757065466 -336322902 1849040050 300187814 -14614075 924556977 2028088470 -1124779452 -1048166206 412106003 1199977127 -1398831573 -377092896 -16731013 960924761 1444192996 751912487 2114833961 611175470 -895696958 1644773355 -1112892762 1732023267 -1614908795
REM
CELL 1.54180   50.00000   50.00000   50.00000   90.00000   90.00000   90.00000
LATT -1
SFAC C  
C      1  0.5808760000000  0.5495140000000  0.4851760000000 1.0
C      1  0.4330350000000  0.4784770000000  0.4736350000000 1.0
C      1  0.4822410000000  0.4734330000000  0.5302570000000 1.0
C      1  0.4380980000000  0.4667360000000  0.4497400000000 1.0
C      1  0.5928280000000  0.5198870000000  0.5347850000000 1.0
C      1  0.4570510000000  0.5290270000000  0.4558730000000 1.0
C      1  0.4086430000000  0.4771410000000  0.4852080000000 1.0
C      1  0.4662440000000  0.5152640000000  0.4770880000000 1.0
C      1  0.4817710000000  0.4477540000000  0.5385560000000 1.0
C      1  0.4884630000000  0.5232030000000  0.4918400000000 1.0
C      1  0.4562440000000  0.4636920000000  0.4228340000000 1.0
C      1  0.4539590000000  0.4921370000000  0.4870890000000 1.0
C      1  0.5623230000000  0.5375020000000  0.5005120000000 1.0
C      1  0.5345220000000  0.5410340000000  0.4969130000000 1.0
C      1  0.5133570000000  0.5237310000000  0.5037360000000 1.0
C      1  0.6165920000000  0.5185550000000  0.5457640000000 1.0
C      1  0.5475940000000  0.5019710000000  0.5281250000000 1.0
C      1  0.4303670000000  0.4450980000000  0.4266280000000 1.0
C      1  0.5011700000000  0.4918230000000  0.5412310000000 1.0
C      1  0.4644740000000  0.4830780000000  0.5112150000000 1.0
C      1  0.5017050000000  0.4960600000000  0.5679550000000 1.0
C      1  0.5687010000000  0.5194900000000  0.5213870000000 1.0
C      1  0.5197410000000  0.5053960000000  0.5244530000000 1.0
END
