TITL C-2847947-6848-199 8.49244965228196e-05 125000 -380.849150794178 0 0 73 (C1) n - 1
REM
REM in /home/bkarasulu/work/CARBON/AIRSS/Generating-Clusters/AIREBO/with-SteepDescent/Only-C1/SD-CG-opt/Try1-1.4A-POS3A/HFTN-CG
REM
REM
REM
REM
REM
REM ./C.cell (11c1c37f851c82e70ff6c80c92926a4b)
REM
REM compiler GCC version 9.2.1 20190827 (Red Hat 9.2.1-1)
REM options -cpp -mtune=generic -march=x86-64 -g -O0 -fpre-include=/usr/include/finclude/math-vector-fortran.h
REM seed 543912220 780735145 1072799685 -1182657286 1850649047 -909194003 -1924940079 1159918090 -1022051946 -641399445 -1636203356 1905662223 1537702321 43598552 -2055122859 -764868771 712281211 -977986966 -765009138 2046046341 -1832040927 -927370344 -1710104656 2081558428 195969476 -498301433 -976421991 -1828919214 624088515 -1584826286 1608251816 -1406282151 1835545489
REM
CELL 1.54180   50.00000   50.00000   50.00000   90.00000   90.00000   90.00000
LATT -1
SFAC C  
C      1  0.5327220000000  0.5826530000000  0.4411460000000 1.0
C      1  0.4302270000000  0.5435030000000  0.5098470000000 1.0
C      1  0.5211880000000  0.4219550000000  0.5538820000000 1.0
C      1  0.4285940000000  0.5392890000000  0.4374600000000 1.0
C      1  0.5025670000000  0.4285710000000  0.5094250000000 1.0
C      1  0.4644320000000  0.5012590000000  0.4668210000000 1.0
C      1  0.5265560000000  0.5030580000000  0.5712420000000 1.0
C      1  0.5516500000000  0.4888160000000  0.4105390000000 1.0
C      1  0.5280800000000  0.5585400000000  0.4520440000000 1.0
C      1  0.5310730000000  0.5892510000000  0.4089150000000 1.0
C      1  0.4753680000000  0.4614460000000  0.4110200000000 1.0
C      1  0.5530470000000  0.4382490000000  0.5344790000000 1.0
C      1  0.4485930000000  0.4828850000000  0.4867940000000 1.0
C      1  0.5615960000000  0.4533920000000  0.5050850000000 1.0
C      1  0.5302050000000  0.4431170000000  0.5097700000000 1.0
C      1  0.4040250000000  0.5468460000000  0.4328950000000 1.0
C      1  0.5115940000000  0.4396770000000  0.4439060000000 1.0
C      1  0.4916520000000  0.4872120000000  0.4550880000000 1.0
C      1  0.4660690000000  0.4641620000000  0.5814040000000 1.0
C      1  0.5268970000000  0.4556390000000  0.5475090000000 1.0
C      1  0.5387390000000  0.6124940000000  0.4292110000000 1.0
C      1  0.5111080000000  0.5305380000000  0.5581690000000 1.0
C      1  0.4947290000000  0.5667220000000  0.5629800000000 1.0
C      1  0.5186340000000  0.5191900000000  0.5956170000000 1.0
C      1  0.5060860000000  0.5333290000000  0.5246290000000 1.0
C      1  0.4742130000000  0.4144420000000  0.5087490000000 1.0
C      1  0.5144090000000  0.5107170000000  0.4461580000000 1.0
C      1  0.4159660000000  0.5653400000000  0.5072880000000 1.0
C      1  0.5102140000000  0.5401700000000  0.4415000000000 1.0
C      1  0.4988630000000  0.5642310000000  0.5368120000000 1.0
C      1  0.4521350000000  0.4834070000000  0.5682480000000 1.0
C      1  0.5633010000000  0.5287880000000  0.4813820000000 1.0
C      1  0.5634380000000  0.4772680000000  0.4829520000000 1.0
C      1  0.4492800000000  0.5180460000000  0.4491930000000 1.0
C      1  0.4802560000000  0.4497900000000  0.4648330000000 1.0
C      1  0.5291270000000  0.4764600000000  0.5058890000000 1.0
C      1  0.5586760000000  0.4824880000000  0.5222830000000 1.0
C      1  0.4270400000000  0.4213790000000  0.4989980000000 1.0
C      1  0.4057380000000  0.4900870000000  0.5109790000000 1.0
C      1  0.5175460000000  0.5347320000000  0.4937380000000 1.0
C      1  0.5384260000000  0.5520930000000  0.4790440000000 1.0
C      1  0.4530790000000  0.4295790000000  0.5004660000000 1.0
C      1  0.4441260000000  0.5217200000000  0.5149750000000 1.0
C      1  0.4761010000000  0.5210670000000  0.5172620000000 1.0
C      1  0.5118340000000  0.4709910000000  0.4771310000000 1.0
C      1  0.5066660000000  0.4919030000000  0.5225040000000 1.0
C      1  0.4620570000000  0.4550650000000  0.4880740000000 1.0
C      1  0.4337420000000  0.4924450000000  0.5120190000000 1.0
C      1  0.5509800000000  0.5012280000000  0.4782740000000 1.0
C      1  0.4807150000000  0.4436950000000  0.5702460000000 1.0
C      1  0.4640160000000  0.5026280000000  0.5435900000000 1.0
C      1  0.5508800000000  0.5411090000000  0.5310470000000 1.0
C      1  0.4958920000000  0.5417990000000  0.5864120000000 1.0
C      1  0.5312860000000  0.4307900000000  0.4295650000000 1.0
C      1  0.4968140000000  0.4414560000000  0.5403770000000 1.0
C      1  0.4469110000000  0.4759600000000  0.5361070000000 1.0
C      1  0.5804240000000  0.5005780000000  0.5213530000000 1.0
C      1  0.4874320000000  0.4615580000000  0.4354930000000 1.0
C      1  0.4707000000000  0.4580660000000  0.5270120000000 1.0
C      1  0.5077870000000  0.4384630000000  0.4772810000000 1.0
C      1  0.5356350000000  0.4987360000000  0.4277610000000 1.0
C      1  0.4865730000000  0.5466250000000  0.4285530000000 1.0
C      1  0.4871330000000  0.5740380000000  0.5926600000000 1.0
C      1  0.4941300000000  0.5030610000000  0.5478800000000 1.0
C      1  0.5626150000000  0.5560970000000  0.5025880000000 1.0
C      1  0.4861920000000  0.5044550000000  0.4907400000000 1.0
C      1  0.5327860000000  0.5126910000000  0.5289570000000 1.0
C      1  0.5365480000000  0.4847600000000  0.5480020000000 1.0
C      1  0.4599020000000  0.5431410000000  0.4330500000000 1.0
C      1  0.4835210000000  0.4754660000000  0.5048070000000 1.0
C      1  0.5730890000000  0.5257620000000  0.5128390000000 1.0
C      1  0.5381330000000  0.5495210000000  0.5556900000000 1.0
C      1  0.5182430000000  0.5043110000000  0.4793600000000 1.0
END
