TITL C-2848507-1641-86 -0.00368635804051892 125000 -749.06972834866 0 0 143 (C1) n - 1
REM
REM in /home/bkarasulu/work/CARBON/AIRSS/Generating-Clusters/AIREBO/with-SteepDescent/Only-C1/SD-CG-opt/Try1-1.4A-POS3A/HFTN-CG
REM
REM
REM
REM
REM
REM ./C.cell (11c1c37f851c82e70ff6c80c92926a4b)
REM
REM compiler GCC version 9.2.1 20190827 (Red Hat 9.2.1-1)
REM options -cpp -mtune=generic -march=x86-64 -g -O0 -fpre-include=/usr/include/finclude/math-vector-fortran.h
REM seed 175797208 -1512464462 -472335588 -309147807 -35461899 2006649630 -1887112104 -1627884499 -1387729895 222366771 2007610141 827878819 -1059613838 -1631527771 1658020876 687508999 -67252374 -1216405410 -22545305 718406040 481256792 2094055384 163691339 -1584354592 1461416908 2105465292 1793145734 195538056 894475434 1843034388 708045985 -1285099577 -1083296222
REM
CELL 1.54180   50.00000   50.00000   50.00000   90.00000   90.00000   90.00000
LATT -1
SFAC C  
C      1  0.5641350000000  0.5837000000000  0.5576290000000 1.0
C      1  0.5597730000000  0.5391420000000  0.4519510000000 1.0
C      1  0.4298430000000  0.4661830000000  0.5415460000000 1.0
C      1  0.4734500000000  0.5927370000000  0.4830190000000 1.0
C      1  0.5498430000000  0.4118450000000  0.4699380000000 1.0
C      1  0.4180940000000  0.4758890000000  0.4453890000000 1.0
C      1  0.5923560000000  0.4556780000000  0.4454200000000 1.0
C      1  0.4115500000000  0.5033760000000  0.4837940000000 1.0
C      1  0.5327530000000  0.4867840000000  0.4433500000000 1.0
C      1  0.5285990000000  0.5484710000000  0.4929170000000 1.0
C      1  0.5158870000000  0.4773390000000  0.4898860000000 1.0
C      1  0.4283080000000  0.5293440000000  0.5363380000000 1.0
C      1  0.4339500000000  0.4512310000000  0.4369960000000 1.0
C      1  0.5429130000000  0.4481450000000  0.4194980000000 1.0
C      1  0.4634990000000  0.4229720000000  0.4744650000000 1.0
C      1  0.5158520000000  0.5581440000000  0.5811770000000 1.0
C      1  0.5437190000000  0.5754260000000  0.4404110000000 1.0
C      1  0.4706800000000  0.5485840000000  0.5638080000000 1.0
C      1  0.4946140000000  0.6030620000000  0.5075980000000 1.0
C      1  0.4866830000000  0.5124810000000  0.5926250000000 1.0
C      1  0.5079260000000  0.5765820000000  0.5563390000000 1.0
C      1  0.4101500000000  0.4778120000000  0.4729210000000 1.0
C      1  0.5206290000000  0.5086090000000  0.5139660000000 1.0
C      1  0.4481050000000  0.5214910000000  0.4489800000000 1.0
C      1  0.4209410000000  0.5269730000000  0.4686850000000 1.0
C      1  0.4078650000000  0.4553090000000  0.4949550000000 1.0
C      1  0.4082740000000  0.5461300000000  0.5145630000000 1.0
C      1  0.5059520000000  0.4036960000000  0.4775480000000 1.0
C      1  0.5393240000000  0.5014490000000  0.5617590000000 1.0
C      1  0.5219530000000  0.5985740000000  0.5111140000000 1.0
C      1  0.5407270000000  0.5540850000000  0.5241980000000 1.0
C      1  0.5731450000000  0.5306900000000  0.4212080000000 1.0
C      1  0.5507200000000  0.5431110000000  0.4054630000000 1.0
C      1  0.4920530000000  0.4604110000000  0.5761040000000 1.0
C      1  0.4618490000000  0.4936990000000  0.4240440000000 1.0
C      1  0.4633870000000  0.5607220000000  0.5331750000000 1.0
C      1  0.4556820000000  0.4830870000000  0.5376490000000 1.0
C      1  0.5230830000000  0.4193540000000  0.5572040000000 1.0
C      1  0.5680690000000  0.4665660000000  0.4287180000000 1.0
C      1  0.4917770000000  0.4936060000000  0.4310110000000 1.0
C      1  0.4459610000000  0.5139000000000  0.5011480000000 1.0
C      1  0.4548430000000  0.4835480000000  0.4885830000000 1.0
C      1  0.5288090000000  0.4474580000000  0.5439720000000 1.0
C      1  0.4532590000000  0.4487010000000  0.4105270000000 1.0
C      1  0.5741730000000  0.5105200000000  0.5457420000000 1.0
C      1  0.4858020000000  0.5705140000000  0.5806750000000 1.0
C      1  0.4591200000000  0.5143000000000  0.5319830000000 1.0
C      1  0.4698230000000  0.5925930000000  0.5226020000000 1.0
C      1  0.4918610000000  0.5193390000000  0.5285800000000 1.0
C      1  0.5658280000000  0.5685270000000  0.5777440000000 1.0
C      1  0.5695130000000  0.4901850000000  0.5726270000000 1.0
C      1  0.4305400000000  0.4219990000000  0.4742790000000 1.0
C      1  0.4726610000000  0.4721440000000  0.5140380000000 1.0
C      1  0.4456770000000  0.3981640000000  0.4974200000000 1.0
C      1  0.4911230000000  0.4649680000000  0.4686590000000 1.0
C      1  0.4788830000000  0.4367330000000  0.4262550000000 1.0
C      1  0.4481010000000  0.5802320000000  0.5019200000000 1.0
C      1  0.5820340000000  0.5217510000000  0.4801090000000 1.0
C      1  0.4997500000000  0.4048350000000  0.5068210000000 1.0
C      1  0.5475550000000  0.4740040000000  0.5434470000000 1.0
C      1  0.5085790000000  0.4976100000000  0.5712670000000 1.0
C      1  0.4486760000000  0.5501220000000  0.4673910000000 1.0
C      1  0.4210980000000  0.5537010000000  0.4869620000000 1.0
C      1  0.5929310000000  0.4625030000000  0.4697500000000 1.0
C      1  0.5010900000000  0.5559350000000  0.4617680000000 1.0
C      1  0.4668140000000  0.5885120000000  0.4511630000000 1.0
C      1  0.4866510000000  0.5483660000000  0.5116390000000 1.0
C      1  0.5025100000000  0.4810910000000  0.5193740000000 1.0
C      1  0.5183820000000  0.5147730000000  0.4304030000000 1.0
C      1  0.4397540000000  0.4535390000000  0.4844830000000 1.0
C      1  0.4291990000000  0.4989260000000  0.4319690000000 1.0
C      1  0.4563560000000  0.5239360000000  0.5823470000000 1.0
C      1  0.4717090000000  0.3963650000000  0.5140140000000 1.0
C      1  0.5479310000000  0.5318810000000  0.5491220000000 1.0
C      1  0.5082210000000  0.4264330000000  0.4522930000000 1.0
C      1  0.5106170000000  0.5210400000000  0.4839330000000 1.0
C      1  0.5025180000000  0.4062300000000  0.5512130000000 1.0
C      1  0.5275140000000  0.5701850000000  0.4685030000000 1.0
C      1  0.5798500000000  0.5015090000000  0.5073880000000 1.0
C      1  0.5297620000000  0.5259680000000  0.4033340000000 1.0
C      1  0.5841440000000  0.5160970000000  0.4499820000000 1.0
C      1  0.4656630000000  0.4597370000000  0.4467280000000 1.0
C      1  0.5691190000000  0.5617000000000  0.5080030000000 1.0
C      1  0.4269010000000  0.5182280000000  0.5664940000000 1.0
C      1  0.5970330000000  0.5225840000000  0.5278020000000 1.0
C      1  0.4316850000000  0.5619460000000  0.5454120000000 1.0
C      1  0.4576000000000  0.4741190000000  0.4001720000000 1.0
C      1  0.5421040000000  0.4969500000000  0.4806620000000 1.0
C      1  0.4270210000000  0.4442030000000  0.5208750000000 1.0
C      1  0.4617420000000  0.4701640000000  0.5849430000000 1.0
C      1  0.5687610000000  0.4488490000000  0.5429700000000 1.0
C      1  0.5079300000000  0.4723500000000  0.5484960000000 1.0
C      1  0.4209810000000  0.4252840000000  0.4472610000000 1.0
C      1  0.4778500000000  0.5607930000000  0.4812180000000 1.0
C      1  0.5770520000000  0.4433040000000  0.5117820000000 1.0
C      1  0.4524230000000  0.4302590000000  0.5057810000000 1.0
C      1  0.4456970000000  0.4298030000000  0.5449860000000 1.0
C      1  0.5402770000000  0.4881580000000  0.4102200000000 1.0
C      1  0.5691040000000  0.4974800000000  0.4258310000000 1.0
C      1  0.5195050000000  0.4286380000000  0.5184670000000 1.0
C      1  0.4892520000000  0.4433290000000  0.5134560000000 1.0
C      1  0.5178420000000  0.6065350000000  0.5499520000000 1.0
C      1  0.5493650000000  0.4610040000000  0.4565820000000 1.0
C      1  0.4454030000000  0.5352480000000  0.6075630000000 1.0
C      1  0.4471240000000  0.5474810000000  0.5064120000000 1.0
C      1  0.5842340000000  0.4635460000000  0.5656410000000 1.0
C      1  0.5594260000000  0.4203240000000  0.5280760000000 1.0
C      1  0.4724700000000  0.4377910000000  0.5647200000000 1.0
C      1  0.5713230000000  0.4833000000000  0.4814690000000 1.0
C      1  0.4960520000000  0.5384160000000  0.4403600000000 1.0
C      1  0.4160040000000  0.5058230000000  0.5150780000000 1.0
C      1  0.5456600000000  0.5697410000000  0.4133360000000 1.0
C      1  0.5059230000000  0.4949670000000  0.4625730000000 1.0
C      1  0.5096150000000  0.5592630000000  0.5321260000000 1.0
C      1  0.4693790000000  0.5411350000000  0.4320030000000 1.0
C      1  0.4705510000000  0.4142200000000  0.4468170000000 1.0
C      1  0.4614450000000  0.5687380000000  0.4327830000000 1.0
C      1  0.5195640000000  0.4736170000000  0.5915010000000 1.0
C      1  0.4771170000000  0.4206450000000  0.5357140000000 1.0
C      1  0.5094810000000  0.4435980000000  0.4238440000000 1.0
C      1  0.5467290000000  0.4791340000000  0.5954170000000 1.0
C      1  0.5460270000000  0.5445340000000  0.5806310000000 1.0
C      1  0.5368510000000  0.5941160000000  0.4881120000000 1.0
C      1  0.4775230000000  0.5223520000000  0.4917150000000 1.0
C      1  0.4608940000000  0.4942070000000  0.5664770000000 1.0
C      1  0.4326910000000  0.4675370000000  0.5754500000000 1.0
C      1  0.5386390000000  0.4312140000000  0.4481300000000 1.0
C      1  0.5447640000000  0.4250710000000  0.4980150000000 1.0
C      1  0.5515520000000  0.5261730000000  0.4945150000000 1.0
C      1  0.5166080000000  0.5275400000000  0.5852960000000 1.0
C      1  0.5665030000000  0.5687510000000  0.4602150000000 1.0
C      1  0.5411170000000  0.5859180000000  0.5361890000000 1.0
C      1  0.5585990000000  0.4547920000000  0.4887360000000 1.0
C      1  0.5105550000000  0.4738000000000  0.4131320000000 1.0
C      1  0.5870590000000  0.5407180000000  0.5057150000000 1.0
C      1  0.5499450000000  0.4994190000000  0.5234320000000 1.0
C      1  0.4150780000000  0.4927640000000  0.5670380000000 1.0
C      1  0.4924060000000  0.4346840000000  0.4812550000000 1.0
C      1  0.4053800000000  0.4869520000000  0.5378070000000 1.0
C      1  0.4882050000000  0.5216150000000  0.5584040000000 1.0
C      1  0.5630350000000  0.5790580000000  0.4860980000000 1.0
C      1  0.5340260000000  0.5232260000000  0.4593420000000 1.0
C      1  0.4623970000000  0.4915260000000  0.4579810000000 1.0
END
