TITL C-2847945-6269-715 0.000535954952965636 125000 -1088.19268561605 0 0 197 (C1) n - 1
REM
REM in /home/bkarasulu/work/CARBON/AIRSS/Generating-Clusters/AIREBO/with-SteepDescent/Only-C1/SD-CG-opt/Try1-1.4A-POS3A/HFTN-CG
REM
REM
REM
REM
REM
REM ./C.cell (11c1c37f851c82e70ff6c80c92926a4b)
REM
REM compiler GCC version 9.2.1 20190827 (Red Hat 9.2.1-1)
REM options -cpp -mtune=generic -march=x86-64 -g -O0 -fpre-include=/usr/include/finclude/math-vector-fortran.h
REM seed 1795766826 -1197572033 2060436473 1463540974 813911834 932785048 -586396484 1247171960 -931383562 1219315034 1953131636 452612111 -1677857531 61115333 -1406099871 1198118753 1141879693 466943769 438834479 1776616990 1922635228 -1862934203 -1759029583 -466474134 170935507 -548956573 1714052585 -2099615372 -1663750803 -650859970 856807979 -174490341 1680460800
REM
CELL 1.54180   50.00000   50.00000   50.00000   90.00000   90.00000   90.00000
LATT -1
SFAC C  
C      1  0.4562180000000  0.4457150000000  0.4130370000000 1.0
C      1  0.5870550000000  0.4893550000000  0.4880610000000 1.0
C      1  0.5683920000000  0.4205100000000  0.5530460000000 1.0
C      1  0.5222150000000  0.3949850000000  0.5293030000000 1.0
C      1  0.5126190000000  0.6107730000000  0.4526330000000 1.0
C      1  0.4142620000000  0.4296730000000  0.5129230000000 1.0
C      1  0.5044670000000  0.4207330000000  0.5297420000000 1.0
C      1  0.4858460000000  0.4651770000000  0.5545580000000 1.0
C      1  0.4155710000000  0.4560690000000  0.5556770000000 1.0
C      1  0.4182780000000  0.5632120000000  0.5400550000000 1.0
C      1  0.5347490000000  0.4531050000000  0.4259680000000 1.0
C      1  0.5362790000000  0.4098780000000  0.5564510000000 1.0
C      1  0.4866670000000  0.4006380000000  0.4488280000000 1.0
C      1  0.5009810000000  0.5232740000000  0.6240300000000 1.0
C      1  0.4935860000000  0.5038960000000  0.4190850000000 1.0
C      1  0.5159000000000  0.5393330000000  0.5487750000000 1.0
C      1  0.4585710000000  0.4047420000000  0.4399070000000 1.0
C      1  0.5876940000000  0.5495070000000  0.4731010000000 1.0
C      1  0.5653600000000  0.4146010000000  0.4533390000000 1.0
C      1  0.5918430000000  0.4730360000000  0.5410020000000 1.0
C      1  0.4531670000000  0.5160650000000  0.4620960000000 1.0
C      1  0.4325410000000  0.4554370000000  0.4843850000000 1.0
C      1  0.5634760000000  0.4601090000000  0.5545850000000 1.0
C      1  0.5304290000000  0.5074250000000  0.5248160000000 1.0
C      1  0.4807340000000  0.6011600000000  0.4594900000000 1.0
C      1  0.5069820000000  0.6066990000000  0.5058070000000 1.0
C      1  0.5905880000000  0.4272720000000  0.4694270000000 1.0
C      1  0.5362140000000  0.4925110000000  0.5519770000000 1.0
C      1  0.4011020000000  0.4894630000000  0.4292360000000 1.0
C      1  0.5664740000000  0.4952350000000  0.5364560000000 1.0
C      1  0.4446220000000  0.4825220000000  0.5353110000000 1.0
C      1  0.5426840000000  0.5304900000000  0.5876240000000 1.0
C      1  0.4053400000000  0.5611450000000  0.5162460000000 1.0
C      1  0.4259760000000  0.4870800000000  0.4896340000000 1.0
C      1  0.3774110000000  0.5020730000000  0.5523190000000 1.0
C      1  0.5604260000000  0.6075910000000  0.5200490000000 1.0
C      1  0.5279440000000  0.5602450000000  0.5007450000000 1.0
C      1  0.4818640000000  0.6075420000000  0.5479680000000 1.0
C      1  0.5035800000000  0.5247420000000  0.5222630000000 1.0
C      1  0.5278250000000  0.4842990000000  0.4254750000000 1.0
C      1  0.6109480000000  0.5087710000000  0.4755080000000 1.0
C      1  0.5305230000000  0.5329170000000  0.6160820000000 1.0
C      1  0.4677470000000  0.4373750000000  0.5621300000000 1.0
C      1  0.4231580000000  0.5011710000000  0.5204640000000 1.0
C      1  0.5831760000000  0.5363510000000  0.4432740000000 1.0
C      1  0.4503630000000  0.4159850000000  0.5461890000000 1.0
C      1  0.5455940000000  0.4128140000000  0.4789900000000 1.0
C      1  0.4298130000000  0.4160630000000  0.4903290000000 1.0
C      1  0.4697660000000  0.5130100000000  0.5636760000000 1.0
C      1  0.4755910000000  0.6112650000000  0.5086560000000 1.0
C      1  0.4858190000000  0.4273770000000  0.5026170000000 1.0
C      1  0.4766720000000  0.5165710000000  0.6121460000000 1.0
C      1  0.3806290000000  0.5184040000000  0.5305600000000 1.0
C      1  0.4765240000000  0.5537760000000  0.5464070000000 1.0
C      1  0.5734110000000  0.4532330000000  0.4592020000000 1.0
C      1  0.5473610000000  0.5914860000000  0.5682470000000 1.0
C      1  0.4506530000000  0.4763680000000  0.5905940000000 1.0
C      1  0.5006020000000  0.4295580000000  0.4439180000000 1.0
C      1  0.4661870000000  0.4516090000000  0.4876280000000 1.0
C      1  0.4070170000000  0.4731450000000  0.5273180000000 1.0
C      1  0.5255410000000  0.3789990000000  0.5590190000000 1.0
C      1  0.5578320000000  0.4247350000000  0.5856570000000 1.0
C      1  0.5259040000000  0.5114600000000  0.4810580000000 1.0
C      1  0.5529780000000  0.4397060000000  0.5295730000000 1.0
C      1  0.5945480000000  0.4723660000000  0.5759660000000 1.0
C      1  0.4571940000000  0.4149340000000  0.4716670000000 1.0
C      1  0.5914360000000  0.5621820000000  0.5036970000000 1.0
C      1  0.5126370000000  0.6036890000000  0.5372370000000 1.0
C      1  0.5136770000000  0.4690550000000  0.4818690000000 1.0
C      1  0.4230930000000  0.5809760000000  0.4636470000000 1.0
C      1  0.4623950000000  0.5726190000000  0.4250310000000 1.0
C      1  0.4394480000000  0.4936820000000  0.4454230000000 1.0
C      1  0.4610810000000  0.6072450000000  0.4833670000000 1.0
C      1  0.4853600000000  0.4507750000000  0.3962630000000 1.0
C      1  0.6162980000000  0.4717870000000  0.4892610000000 1.0
C      1  0.4828560000000  0.5207360000000  0.4534880000000 1.0
C      1  0.4600400000000  0.4845850000000  0.5608260000000 1.0
C      1  0.5181590000000  0.4668200000000  0.5601570000000 1.0
C      1  0.4505340000000  0.5737970000000  0.4535510000000 1.0
C      1  0.5074130000000  0.4636730000000  0.5125620000000 1.0
C      1  0.4570430000000  0.6219940000000  0.5422100000000 1.0
C      1  0.5496760000000  0.5157860000000  0.4159710000000 1.0
C      1  0.5563460000000  0.5023870000000  0.5893460000000 1.0
C      1  0.4895690000000  0.5794320000000  0.5310450000000 1.0
C      1  0.4928790000000  0.5477270000000  0.4006050000000 1.0
C      1  0.4221940000000  0.4294070000000  0.5392830000000 1.0
C      1  0.5386210000000  0.6115020000000  0.4942810000000 1.0
C      1  0.5627800000000  0.5570950000000  0.5431420000000 1.0
C      1  0.3788040000000  0.4827630000000  0.4672910000000 1.0
C      1  0.6116520000000  0.4873300000000  0.5192020000000 1.0
C      1  0.5270690000000  0.5037510000000  0.4497360000000 1.0
C      1  0.4889840000000  0.4762540000000  0.4349990000000 1.0
C      1  0.4507000000000  0.5700500000000  0.5473710000000 1.0
C      1  0.4037780000000  0.4565370000000  0.5026620000000 1.0
C      1  0.4467750000000  0.4958360000000  0.4122880000000 1.0
C      1  0.4414180000000  0.4519370000000  0.5744730000000 1.0
C      1  0.5155310000000  0.5804480000000  0.4206420000000 1.0
C      1  0.5687670000000  0.4959610000000  0.4289420000000 1.0
C      1  0.4600250000000  0.3918620000000  0.5232940000000 1.0
C      1  0.5595410000000  0.5324820000000  0.4969400000000 1.0
C      1  0.5482830000000  0.5732900000000  0.4875490000000 1.0
C      1  0.5052650000000  0.5899920000000  0.4787620000000 1.0
C      1  0.3900100000000  0.4784400000000  0.5541380000000 1.0
C      1  0.4543540000000  0.5556650000000  0.5851780000000 1.0
C      1  0.5704660000000  0.5836940000000  0.5007080000000 1.0
C      1  0.4781030000000  0.4865370000000  0.6019340000000 1.0
C      1  0.5386730000000  0.5672140000000  0.4282490000000 1.0
C      1  0.4325020000000  0.5325530000000  0.5108420000000 1.0
C      1  0.4968580000000  0.4635810000000  0.6100680000000 1.0
C      1  0.4994420000000  0.5567560000000  0.4825260000000 1.0
C      1  0.5891740000000  0.4338530000000  0.5084270000000 1.0
C      1  0.5663940000000  0.5028660000000  0.5047550000000 1.0
C      1  0.4187010000000  0.4263670000000  0.4369830000000 1.0
C      1  0.5069340000000  0.5272200000000  0.4930070000000 1.0
C      1  0.5368700000000  0.4869720000000  0.4991170000000 1.0
C      1  0.4095670000000  0.4960450000000  0.4615080000000 1.0
C      1  0.4389910000000  0.5903090000000  0.4878600000000 1.0
C      1  0.6136860000000  0.4393830000000  0.4855070000000 1.0
C      1  0.3967130000000  0.5219540000000  0.4794100000000 1.0
C      1  0.5751510000000  0.4483710000000  0.5808030000000 1.0
C      1  0.5407460000000  0.6046160000000  0.5450290000000 1.0
C      1  0.4757230000000  0.5738170000000  0.5809090000000 1.0
C      1  0.4537440000000  0.4572940000000  0.5187590000000 1.0
C      1  0.4588970000000  0.4675990000000  0.4378610000000 1.0
C      1  0.5558330000000  0.5421230000000  0.4637490000000 1.0
C      1  0.5922020000000  0.4392220000000  0.5373520000000 1.0
C      1  0.5448560000000  0.4439300000000  0.4535890000000 1.0
C      1  0.5030140000000  0.5639190000000  0.5651620000000 1.0
C      1  0.3792600000000  0.4627010000000  0.4848750000000 1.0
C      1  0.4352610000000  0.5421940000000  0.4719810000000 1.0
C      1  0.5229680000000  0.4620480000000  0.5924610000000 1.0
C      1  0.5265570000000  0.5019060000000  0.6252430000000 1.0
C      1  0.4616740000000  0.5450050000000  0.4084520000000 1.0
C      1  0.4653570000000  0.5184180000000  0.4240770000000 1.0
C      1  0.4284350000000  0.5626600000000  0.5709340000000 1.0
C      1  0.5253720000000  0.4324510000000  0.5791060000000 1.0
C      1  0.5128820000000  0.4149990000000  0.4867310000000 1.0
C      1  0.4763020000000  0.4824580000000  0.4858240000000 1.0
C      1  0.4444270000000  0.5643380000000  0.5085630000000 1.0
C      1  0.4431200000000  0.4209690000000  0.4232070000000 1.0
C      1  0.5784980000000  0.4592240000000  0.4896810000000 1.0
C      1  0.3730830000000  0.5080960000000  0.4505090000000 1.0
C      1  0.5487390000000  0.4789720000000  0.3990380000000 1.0
C      1  0.4718860000000  0.5024420000000  0.5130030000000 1.0
C      1  0.5331770000000  0.5352560000000  0.4384800000000 1.0
C      1  0.4182960000000  0.5449260000000  0.4437750000000 1.0
C      1  0.5037550000000  0.5463650000000  0.4514740000000 1.0
C      1  0.5641570000000  0.4443170000000  0.4155030000000 1.0
C      1  0.4683780000000  0.3919270000000  0.4940460000000 1.0
C      1  0.4329930000000  0.5553200000000  0.4227780000000 1.0
C      1  0.4208700000000  0.4322080000000  0.4629480000000 1.0
C      1  0.5194820000000  0.4420950000000  0.4692710000000 1.0
C      1  0.6121670000000  0.5358940000000  0.4900460000000 1.0
C      1  0.5219880000000  0.4463230000000  0.5344590000000 1.0
C      1  0.4523520000000  0.5928710000000  0.5253250000000 1.0
C      1  0.4155360000000  0.4943860000000  0.4093150000000 1.0
C      1  0.5035190000000  0.4528790000000  0.4221010000000 1.0
C      1  0.5398250000000  0.4852600000000  0.6054910000000 1.0
C      1  0.5508190000000  0.5749980000000  0.4566160000000 1.0
C      1  0.4904050000000  0.5754570000000  0.4394350000000 1.0
C      1  0.5884050000000  0.5237240000000  0.5537960000000 1.0
C      1  0.4537280000000  0.4237420000000  0.5132490000000 1.0
C      1  0.4915340000000  0.3949780000000  0.4760290000000 1.0
C      1  0.5253980000000  0.4142260000000  0.4264000000000 1.0
C      1  0.5404510000000  0.5399190000000  0.5240850000000 1.0
C      1  0.4633160000000  0.5295060000000  0.5902290000000 1.0
C      1  0.5529210000000  0.5556790000000  0.5737410000000 1.0
C      1  0.4494330000000  0.5110540000000  0.4926840000000 1.0
C      1  0.3987080000000  0.5301200000000  0.5079150000000 1.0
C      1  0.5882110000000  0.4757080000000  0.4441950000000 1.0
C      1  0.5221930000000  0.5157900000000  0.5684700000000 1.0
C      1  0.5529990000000  0.4175940000000  0.4248940000000 1.0
C      1  0.4113350000000  0.5614650000000  0.4865480000000 1.0
C      1  0.5398770000000  0.3928760000000  0.5060790000000 1.0
C      1  0.5255090000000  0.5002680000000  0.3955440000000 1.0
C      1  0.5396570000000  0.6053940000000  0.4656770000000 1.0
C      1  0.5744940000000  0.5838940000000  0.5399750000000 1.0
C      1  0.5086830000000  0.5301850000000  0.4154310000000 1.0
C      1  0.5756410000000  0.4706690000000  0.4072260000000 1.0
C      1  0.5627130000000  0.4161810000000  0.5070260000000 1.0
C      1  0.5265750000000  0.5731940000000  0.5806400000000 1.0
C      1  0.6118090000000  0.4831600000000  0.4575260000000 1.0
C      1  0.5809710000000  0.5362680000000  0.5230760000000 1.0
C      1  0.4982290000000  0.4276550000000  0.5605780000000 1.0
C      1  0.5770520000000  0.4977130000000  0.5686790000000 1.0
C      1  0.4960560000000  0.5048660000000  0.5794570000000 1.0
C      1  0.4977470000000  0.4912340000000  0.4615790000000 1.0
C      1  0.4962300000000  0.4829590000000  0.3947240000000 1.0
C      1  0.4775520000000  0.5695450000000  0.5051820000000 1.0
C      1  0.5542210000000  0.4617530000000  0.5072380000000 1.0
C      1  0.4817220000000  0.4732150000000  0.5241310000000 1.0
C      1  0.4759040000000  0.5246870000000  0.5369480000000 1.0
C      1  0.6060150000000  0.5148670000000  0.5146170000000 1.0
C      1  0.4625880000000  0.4755790000000  0.3975050000000 1.0
C      1  0.3939990000000  0.5309590000000  0.4497730000000 1.0
C      1  0.4713110000000  0.4417820000000  0.4561760000000 1.0
C      1  0.4660590000000  0.5557190000000  0.4760800000000 1.0
END
