TITL C-2848505-4874-694 0.00376766674232515 125000 -1110.15054907364 0 0 200 (C1) n - 1
REM
REM in /home/bkarasulu/work/CARBON/AIRSS/Generating-Clusters/AIREBO/with-SteepDescent/Only-C1/SD-CG-opt/Try1-1.4A-POS3A/HFTN-CG
REM
REM
REM
REM
REM
REM ./C.cell (11c1c37f851c82e70ff6c80c92926a4b)
REM
REM compiler GCC version 9.2.1 20190827 (Red Hat 9.2.1-1)
REM options -cpp -mtune=generic -march=x86-64 -g -O0 -fpre-include=/usr/include/finclude/math-vector-fortran.h
REM seed -1208191836 -1399513647 -759088558 690582399 163204409 -537387801 1641409481 473450842 1245522430 1127841029 -1850500639 1721633709 1317589431 -2092728145 -34415767 -2119218494 -350254512 1912042927 149184734 -28246961 237555021 1327296114 700195863 1443622025 -999119190 -543787246 -104631102 1449921392 -807464127 262428744 1267100200 1603098551 -2099001898
REM
CELL 1.54180   50.00000   50.00000   50.00000   90.00000   90.00000   90.00000
LATT -1
SFAC C  
C      1  0.5622660000000  0.5471530000000  0.5595370000000 1.0
C      1  0.4454190000000  0.5300110000000  0.5980340000000 1.0
C      1  0.4717400000000  0.4837720000000  0.5463020000000 1.0
C      1  0.4913330000000  0.5242980000000  0.4597040000000 1.0
C      1  0.4994390000000  0.4780250000000  0.5150170000000 1.0
C      1  0.5103170000000  0.4690920000000  0.4859430000000 1.0
C      1  0.4065300000000  0.5763440000000  0.5119800000000 1.0
C      1  0.4066190000000  0.5359350000000  0.4808390000000 1.0
C      1  0.4215270000000  0.4609170000000  0.6213670000000 1.0
C      1  0.4716470000000  0.4852060000000  0.6097960000000 1.0
C      1  0.4236640000000  0.4836390000000  0.5374930000000 1.0
C      1  0.5175690000000  0.3638340000000  0.4871880000000 1.0
C      1  0.5924930000000  0.5085080000000  0.4741090000000 1.0
C      1  0.4017110000000  0.4634130000000  0.4898810000000 1.0
C      1  0.4885890000000  0.5522020000000  0.4404550000000 1.0
C      1  0.5476340000000  0.5436230000000  0.5879100000000 1.0
C      1  0.4545410000000  0.4453970000000  0.5310150000000 1.0
C      1  0.5317300000000  0.6097820000000  0.4963310000000 1.0
C      1  0.4842670000000  0.5302120000000  0.6215270000000 1.0
C      1  0.4065000000000  0.4550550000000  0.4278600000000 1.0
C      1  0.4198150000000  0.4390800000000  0.5665680000000 1.0
C      1  0.5604360000000  0.5924160000000  0.4941130000000 1.0
C      1  0.4638330000000  0.5101750000000  0.4899210000000 1.0
C      1  0.4662110000000  0.5796170000000  0.5798060000000 1.0
C      1  0.5094910000000  0.4014580000000  0.4538700000000 1.0
C      1  0.4073660000000  0.4355250000000  0.4711990000000 1.0
C      1  0.6103690000000  0.5277690000000  0.4572280000000 1.0
C      1  0.4228100000000  0.5855600000000  0.4421330000000 1.0
C      1  0.5028090000000  0.5428120000000  0.4848780000000 1.0
C      1  0.5649640000000  0.4165540000000  0.5156560000000 1.0
C      1  0.5817330000000  0.5216650000000  0.4996010000000 1.0
C      1  0.5192140000000  0.5173140000000  0.4981810000000 1.0
C      1  0.4956420000000  0.4379190000000  0.5062440000000 1.0
C      1  0.5966780000000  0.4632620000000  0.4461440000000 1.0
C      1  0.6072450000000  0.4804330000000  0.5566180000000 1.0
C      1  0.5553500000000  0.4424870000000  0.5286080000000 1.0
C      1  0.5861550000000  0.5051090000000  0.5852640000000 1.0
C      1  0.3867170000000  0.4756050000000  0.5248690000000 1.0
C      1  0.5666230000000  0.5281810000000  0.4349580000000 1.0
C      1  0.6078030000000  0.5352150000000  0.5263920000000 1.0
C      1  0.4716680000000  0.6093760000000  0.4548160000000 1.0
C      1  0.3983390000000  0.4909370000000  0.5504260000000 1.0
C      1  0.4448090000000  0.4841660000000  0.3777950000000 1.0
C      1  0.5337290000000  0.4741760000000  0.4630420000000 1.0
C      1  0.4870760000000  0.5509310000000  0.5981280000000 1.0
C      1  0.5342800000000  0.5183150000000  0.6062760000000 1.0
C      1  0.4706470000000  0.4393160000000  0.4253880000000 1.0
C      1  0.5767410000000  0.4785490000000  0.5848270000000 1.0
C      1  0.6051200000000  0.4798490000000  0.4750480000000 1.0
C      1  0.5023820000000  0.6226040000000  0.4537110000000 1.0
C      1  0.4313050000000  0.4143540000000  0.5707080000000 1.0
C      1  0.4243320000000  0.5105530000000  0.4913620000000 1.0
C      1  0.5621980000000  0.4820340000000  0.4899270000000 1.0
C      1  0.5467060000000  0.5116260000000  0.4835370000000 1.0
C      1  0.5269190000000  0.6189600000000  0.4650700000000 1.0
C      1  0.4730640000000  0.4552480000000  0.5647650000000 1.0
C      1  0.4308270000000  0.4667820000000  0.4791860000000 1.0
C      1  0.4331250000000  0.5226190000000  0.5700710000000 1.0
C      1  0.5326170000000  0.4167460000000  0.5550820000000 1.0
C      1  0.5345350000000  0.4206250000000  0.4929380000000 1.0
C      1  0.4036500000000  0.5645880000000  0.5370600000000 1.0
C      1  0.5140830000000  0.5811350000000  0.4835420000000 1.0
C      1  0.5391950000000  0.5332690000000  0.4247090000000 1.0
C      1  0.5424670000000  0.3705730000000  0.4774500000000 1.0
C      1  0.4409690000000  0.5151410000000  0.4225940000000 1.0
C      1  0.4614910000000  0.5443340000000  0.3951630000000 1.0
C      1  0.6153520000000  0.5023710000000  0.5310720000000 1.0
C      1  0.4662670000000  0.4626310000000  0.4614740000000 1.0
C      1  0.6102170000000  0.5113360000000  0.4344520000000 1.0
C      1  0.4863200000000  0.4808200000000  0.5815130000000 1.0
C      1  0.4599180000000  0.4795300000000  0.4906270000000 1.0
C      1  0.5276170000000  0.6081940000000  0.5525590000000 1.0
C      1  0.4024670000000  0.5147280000000  0.5652190000000 1.0
C      1  0.4432360000000  0.4247610000000  0.4393960000000 1.0
C      1  0.4502480000000  0.5599810000000  0.4937670000000 1.0
C      1  0.5103010000000  0.5721820000000  0.5963830000000 1.0
C      1  0.5276420000000  0.5049380000000  0.3711290000000 1.0
C      1  0.5579380000000  0.3992330000000  0.4872480000000 1.0
C      1  0.5257020000000  0.5045860000000  0.4116660000000 1.0
C      1  0.4937000000000  0.4778940000000  0.4506660000000 1.0
C      1  0.5355440000000  0.4417250000000  0.4712970000000 1.0
C      1  0.5293170000000  0.4827330000000  0.5303800000000 1.0
C      1  0.4191230000000  0.5366660000000  0.5357540000000 1.0
C      1  0.5137080000000  0.4884580000000  0.5724470000000 1.0
C      1  0.5960060000000  0.4478360000000  0.4820030000000 1.0
C      1  0.4870720000000  0.5796740000000  0.5286450000000 1.0
C      1  0.5748430000000  0.5261590000000  0.5984580000000 1.0
C      1  0.6046520000000  0.5564670000000  0.4677870000000 1.0
C      1  0.4751060000000  0.4345030000000  0.3920180000000 1.0
C      1  0.5661380000000  0.4553640000000  0.4705440000000 1.0
C      1  0.5975340000000  0.5117800000000  0.5570910000000 1.0
C      1  0.4759750000000  0.4263060000000  0.5493220000000 1.0
C      1  0.4528470000000  0.4678250000000  0.4306020000000 1.0
C      1  0.4494610000000  0.5405790000000  0.5460070000000 1.0
C      1  0.5201230000000  0.5382930000000  0.5697980000000 1.0
C      1  0.5949100000000  0.5515760000000  0.4994660000000 1.0
C      1  0.4909980000000  0.4557460000000  0.6118810000000 1.0
C      1  0.3844690000000  0.5349280000000  0.5555530000000 1.0
C      1  0.4452080000000  0.4638050000000  0.6092500000000 1.0
C      1  0.5363290000000  0.4706950000000  0.5027680000000 1.0
C      1  0.5654560000000  0.4069830000000  0.4548700000000 1.0
C      1  0.5093040000000  0.4867840000000  0.3799700000000 1.0
C      1  0.5681500000000  0.5180900000000  0.5485750000000 1.0
C      1  0.5762200000000  0.5009610000000  0.5222090000000 1.0
C      1  0.4836090000000  0.5330330000000  0.4128150000000 1.0
C      1  0.5154750000000  0.5118200000000  0.5539180000000 1.0
C      1  0.4702590000000  0.4695770000000  0.5165590000000 1.0
C      1  0.4132790000000  0.4263200000000  0.4990410000000 1.0
C      1  0.4548530000000  0.5517750000000  0.4447910000000 1.0
C      1  0.5833130000000  0.5522500000000  0.4405850000000 1.0
C      1  0.4532990000000  0.4091310000000  0.4625000000000 1.0
C      1  0.4882950000000  0.4097630000000  0.4308160000000 1.0
C      1  0.4413610000000  0.3956550000000  0.5279630000000 1.0
C      1  0.4272400000000  0.4531980000000  0.5396130000000 1.0
C      1  0.4781280000000  0.5021590000000  0.4226760000000 1.0
C      1  0.5388460000000  0.3891880000000  0.4537960000000 1.0
C      1  0.4637510000000  0.4323170000000  0.5037760000000 1.0
C      1  0.5836080000000  0.4607010000000  0.5597500000000 1.0
C      1  0.4740420000000  0.5382370000000  0.5693910000000 1.0
C      1  0.4673450000000  0.4486020000000  0.5953510000000 1.0
C      1  0.4941830000000  0.6022450000000  0.4312840000000 1.0
C      1  0.5329740000000  0.4939120000000  0.5954920000000 1.0
C      1  0.4738600000000  0.6041580000000  0.5108940000000 1.0
C      1  0.5466060000000  0.4222860000000  0.4329110000000 1.0
C      1  0.5258380000000  0.4375460000000  0.4107310000000 1.0
C      1  0.4624230000000  0.5079010000000  0.5635880000000 1.0
C      1  0.4694660000000  0.3909360000000  0.4728020000000 1.0
C      1  0.5396340000000  0.5117950000000  0.5331950000000 1.0
C      1  0.4631450000000  0.5136110000000  0.6139860000000 1.0
C      1  0.5213120000000  0.4438370000000  0.5282180000000 1.0
C      1  0.3877280000000  0.5294490000000  0.5251680000000 1.0
C      1  0.4486710000000  0.4379490000000  0.4766350000000 1.0
C      1  0.4091430000000  0.5372090000000  0.4500760000000 1.0
C      1  0.5543870000000  0.5348480000000  0.5150420000000 1.0
C      1  0.3857100000000  0.4913350000000  0.4987720000000 1.0
C      1  0.5727060000000  0.5642360000000  0.4687270000000 1.0
C      1  0.5216210000000  0.5459810000000  0.4456150000000 1.0
C      1  0.5581920000000  0.4446210000000  0.4097870000000 1.0
C      1  0.6004950000000  0.4601960000000  0.5092660000000 1.0
C      1  0.5357020000000  0.5504220000000  0.3955580000000 1.0
C      1  0.5054580000000  0.5979880000000  0.5089460000000 1.0
C      1  0.5722980000000  0.4681800000000  0.5192950000000 1.0
C      1  0.5376020000000  0.5696490000000  0.6012700000000 1.0
C      1  0.4990420000000  0.3891950000000  0.4838120000000 1.0
C      1  0.5458960000000  0.5619270000000  0.5338130000000 1.0
C      1  0.5182850000000  0.5799540000000  0.5422540000000 1.0
C      1  0.5904640000000  0.4909080000000  0.4374680000000 1.0
C      1  0.5530970000000  0.5448230000000  0.4842000000000 1.0
C      1  0.5262290000000  0.4629860000000  0.5558970000000 1.0
C      1  0.5706740000000  0.5717070000000  0.5126020000000 1.0
C      1  0.5069610000000  0.5007460000000  0.4503250000000 1.0
C      1  0.4272230000000  0.5575930000000  0.4401790000000 1.0
C      1  0.4557570000000  0.5369050000000  0.4736780000000 1.0
C      1  0.4659020000000  0.5086360000000  0.5238240000000 1.0
C      1  0.5061880000000  0.5780520000000  0.4270770000000 1.0
C      1  0.5147450000000  0.4445870000000  0.6062400000000 1.0
C      1  0.3864340000000  0.5190690000000  0.4999750000000 1.0
C      1  0.4542560000000  0.5585710000000  0.5973620000000 1.0
C      1  0.4334930000000  0.5090240000000  0.5219940000000 1.0
C      1  0.5010900000000  0.4826190000000  0.4116480000000 1.0
C      1  0.5545650000000  0.5874940000000  0.6129450000000 1.0
C      1  0.4158720000000  0.5082430000000  0.4410440000000 1.0
C      1  0.5015450000000  0.4531810000000  0.4286680000000 1.0
C      1  0.4625540000000  0.5866560000000  0.4789040000000 1.0
C      1  0.4407330000000  0.5995620000000  0.4562450000000 1.0
C      1  0.5368470000000  0.4963710000000  0.4399490000000 1.0
C      1  0.4163440000000  0.4343790000000  0.4446960000000 1.0
C      1  0.5103150000000  0.4329990000000  0.4545890000000 1.0
C      1  0.5517630000000  0.4736450000000  0.5959390000000 1.0
C      1  0.5589580000000  0.5759610000000  0.4397530000000 1.0
C      1  0.4957480000000  0.5744670000000  0.5671340000000 1.0
C      1  0.4942540000000  0.5421870000000  0.5169100000000 1.0
C      1  0.5098990000000  0.5294480000000  0.3986010000000 1.0
C      1  0.4647320000000  0.5549830000000  0.5218690000000 1.0
C      1  0.5645140000000  0.5028220000000  0.4559390000000 1.0
C      1  0.6182330000000  0.4850770000000  0.5062000000000 1.0
C      1  0.5330870000000  0.5621750000000  0.4674920000000 1.0
C      1  0.5375290000000  0.5303850000000  0.3698890000000 1.0
C      1  0.4922950000000  0.4466440000000  0.4755220000000 1.0
C      1  0.4348590000000  0.4959070000000  0.4646260000000 1.0
C      1  0.5043570000000  0.4175210000000  0.5394100000000 1.0
C      1  0.5086040000000  0.4084530000000  0.5068890000000 1.0
C      1  0.4218020000000  0.4776090000000  0.4285040000000 1.0
C      1  0.5369990000000  0.4491730000000  0.5847430000000 1.0
C      1  0.4607650000000  0.5128570000000  0.4501500000000 1.0
C      1  0.4998820000000  0.5095760000000  0.5250620000000 1.0
C      1  0.4510570000000  0.4063670000000  0.5522230000000 1.0
C      1  0.4877070000000  0.5687090000000  0.4705740000000 1.0
C      1  0.5714020000000  0.4443030000000  0.4406490000000 1.0
C      1  0.5461300000000  0.5932940000000  0.4632790000000 1.0
C      1  0.4372730000000  0.4135830000000  0.5065180000000 1.0
C      1  0.5343530000000  0.5724690000000  0.4186730000000 1.0
C      1  0.4994830000000  0.4213790000000  0.4045270000000 1.0
C      1  0.3848810000000  0.5647170000000  0.5606920000000 1.0
C      1  0.4970950000000  0.5467480000000  0.5483610000000 1.0
C      1  0.4037720000000  0.4482200000000  0.5197650000000 1.0
C      1  0.5845290000000  0.5528010000000  0.5373790000000 1.0
C      1  0.5575720000000  0.4389160000000  0.5618380000000 1.0
C      1  0.4521650000000  0.4899850000000  0.4059100000000 1.0
C      1  0.4194470000000  0.5609130000000  0.4939700000000 1.0
END
