TITL C-2848506-1665-683 -0.000286687403167385 125000 -322.134007477042 0 0 59 (C1) n - 1
REM
REM in /home/bkarasulu/work/CARBON/AIRSS/Generating-Clusters/AIREBO/with-SteepDescent/Only-C1/SD-CG-opt/Try1-1.4A-POS3A/HFTN-CG
REM
REM
REM
REM
REM
REM ./C.cell (11c1c37f851c82e70ff6c80c92926a4b)
REM
REM compiler GCC version 9.2.1 20190827 (Red Hat 9.2.1-1)
REM options -cpp -mtune=generic -march=x86-64 -g -O0 -fpre-include=/usr/include/finclude/math-vector-fortran.h
REM seed 1725485930 1885938661 44884827 2024514963 -1592826783 361848954 -1965829451 -2000968835 2003020573 89589101 -775594554 -613533840 -781328385 1207898345 -930465897 -178751383 -1226193305 1927817588 -2083503861 -998082815 -198597422 -1566860780 -670121225 991321292 802859639 -1728541605 -1029475628 2028913316 -573987160 -766458777 589344154 -1734362316 1369512015
REM
CELL 1.54180   50.00000   50.00000   50.00000   90.00000   90.00000   90.00000
LATT -1
SFAC C  
C      1  0.4689880000000  0.5132430000000  0.5230850000000 1.0
C      1  0.4335270000000  0.4939700000000  0.5523850000000 1.0
C      1  0.5409080000000  0.5230580000000  0.5147370000000 1.0
C      1  0.4818480000000  0.4869210000000  0.4562750000000 1.0
C      1  0.5381850000000  0.4758650000000  0.5393480000000 1.0
C      1  0.4366860000000  0.4638350000000  0.4973840000000 1.0
C      1  0.4704460000000  0.4656100000000  0.5674060000000 1.0
C      1  0.4660700000000  0.4909490000000  0.4972030000000 1.0
C      1  0.5155320000000  0.4332810000000  0.5382280000000 1.0
C      1  0.5201330000000  0.4620270000000  0.4949370000000 1.0
C      1  0.4475450000000  0.5425010000000  0.4806230000000 1.0
C      1  0.4595390000000  0.5467570000000  0.4290300000000 1.0
C      1  0.4328750000000  0.4921710000000  0.4919070000000 1.0
C      1  0.5236500000000  0.5353000000000  0.4601330000000 1.0
C      1  0.4932230000000  0.4208760000000  0.5194700000000 1.0
C      1  0.5415640000000  0.5517950000000  0.5018150000000 1.0
C      1  0.4905290000000  0.4646150000000  0.4784000000000 1.0
C      1  0.4963890000000  0.5047540000000  0.5416050000000 1.0
C      1  0.5018260000000  0.5624580000000  0.5314220000000 1.0
C      1  0.5330460000000  0.5625730000000  0.5283590000000 1.0
C      1  0.4697690000000  0.4572620000000  0.5005180000000 1.0
C      1  0.5090770000000  0.5360630000000  0.5455900000000 1.0
C      1  0.5242260000000  0.4621570000000  0.4422330000000 1.0
C      1  0.4863930000000  0.5656620000000  0.5064470000000 1.0
C      1  0.5416860000000  0.5410390000000  0.5502580000000 1.0
C      1  0.5471500000000  0.4692910000000  0.5136620000000 1.0
C      1  0.4386870000000  0.5130930000000  0.5322820000000 1.0
C      1  0.5226390000000  0.4817010000000  0.4231560000000 1.0
C      1  0.4694760000000  0.5419390000000  0.4546220000000 1.0
C      1  0.5303160000000  0.5029190000000  0.5400160000000 1.0
C      1  0.5660940000000  0.4852530000000  0.5008720000000 1.0
C      1  0.5438680000000  0.4329390000000  0.4814050000000 1.0
C      1  0.5175330000000  0.4588340000000  0.5495190000000 1.0
C      1  0.4843590000000  0.5134730000000  0.5712170000000 1.0
C      1  0.5140040000000  0.5119970000000  0.5047600000000 1.0
C      1  0.5062290000000  0.5745620000000  0.4812160000000 1.0
C      1  0.4229680000000  0.5137970000000  0.5074160000000 1.0
C      1  0.5467310000000  0.5234880000000  0.4499970000000 1.0
C      1  0.4946320000000  0.4740160000000  0.5560600000000 1.0
C      1  0.5768950000000  0.5058400000000  0.5172650000000 1.0
C      1  0.4474000000000  0.4692130000000  0.5508640000000 1.0
C      1  0.5055140000000  0.5085510000000  0.4270100000000 1.0
C      1  0.5270830000000  0.5562980000000  0.4784750000000 1.0
C      1  0.4941560000000  0.5186230000000  0.4566470000000 1.0
C      1  0.4642050000000  0.4805840000000  0.4377070000000 1.0
C      1  0.4997860000000  0.4516840000000  0.4503190000000 1.0
C      1  0.4236550000000  0.5375790000000  0.4920170000000 1.0
C      1  0.4771820000000  0.5669010000000  0.4730630000000 1.0
C      1  0.5653210000000  0.5046870000000  0.4563670000000 1.0
C      1  0.5048070000000  0.4835250000000  0.5163670000000 1.0
C      1  0.4474780000000  0.4575420000000  0.5260620000000 1.0
C      1  0.5218900000000  0.4299490000000  0.5050020000000 1.0
C      1  0.4888720000000  0.5146820000000  0.4886570000000 1.0
C      1  0.5421550000000  0.4617050000000  0.4664800000000 1.0
C      1  0.4713470000000  0.5386400000000  0.5005900000000 1.0
C      1  0.4687290000000  0.4548360000000  0.5920320000000 1.0
C      1  0.5633070000000  0.4824940000000  0.4730200000000 1.0
C      1  0.5644990000000  0.5229500000000  0.5392240000000 1.0
C      1  0.5173720000000  0.5016730000000  0.3978300000000 1.0
END
