TITL C-2848496-4490-183 -0.000581460199213299 125000 -545.397996869353 0 0 101 (C1) n - 1
REM
REM in /home/bkarasulu/work/CARBON/AIRSS/Generating-Clusters/AIREBO/with-SteepDescent/Only-C1/SD-CG-opt/Try1-1.4A-POS3A/HFTN-CG
REM
REM
REM
REM
REM
REM ./C.cell (11c1c37f851c82e70ff6c80c92926a4b)
REM
REM compiler GCC version 9.2.1 20190827 (Red Hat 9.2.1-1)
REM options -cpp -mtune=generic -march=x86-64 -g -O0 -fpre-include=/usr/include/finclude/math-vector-fortran.h
REM seed -53963734 935859539 1223458414 -400782970 -1544453889 43919200 -1162844527 1061224784 808471425 1438702772 -1379807112 56677914 1191696403 493279859 2115264919 938837602 -302216698 834824752 -984146312 2104768417 -713806701 1237440379 -1866533970 -586461856 -908877305 1183824142 -1416015122 -1807145796 323308886 -1069679134 -298130212 364504985 1762134983
REM
CELL 1.54180   50.00000   50.00000   50.00000   90.00000   90.00000   90.00000
LATT -1
SFAC C  
C      1  0.4985950000000  0.4759970000000  0.4844670000000 1.0
C      1  0.4184960000000  0.4860680000000  0.5545830000000 1.0
C      1  0.5376290000000  0.4052680000000  0.5329200000000 1.0
C      1  0.4048000000000  0.4995730000000  0.4489040000000 1.0
C      1  0.5261590000000  0.4910110000000  0.5207320000000 1.0
C      1  0.5152850000000  0.4150700000000  0.4482210000000 1.0
C      1  0.5056560000000  0.4425730000000  0.5288860000000 1.0
C      1  0.5313850000000  0.5574330000000  0.5586040000000 1.0
C      1  0.5482900000000  0.5490340000000  0.5004230000000 1.0
C      1  0.5113920000000  0.4126960000000  0.5363240000000 1.0
C      1  0.4627860000000  0.4470900000000  0.4604530000000 1.0
C      1  0.5494050000000  0.5540930000000  0.5340310000000 1.0
C      1  0.4768010000000  0.4489580000000  0.5348890000000 1.0
C      1  0.4927850000000  0.5497770000000  0.5054990000000 1.0
C      1  0.4754390000000  0.4320350000000  0.5053990000000 1.0
C      1  0.5144760000000  0.4965760000000  0.4104260000000 1.0
C      1  0.5146200000000  0.5230980000000  0.4005110000000 1.0
C      1  0.5941970000000  0.4807600000000  0.4813370000000 1.0
C      1  0.4717490000000  0.4811420000000  0.5451060000000 1.0
C      1  0.5564730000000  0.4829440000000  0.4688220000000 1.0
C      1  0.4182450000000  0.4916910000000  0.4968100000000 1.0
C      1  0.4877280000000  0.6011840000000  0.5024240000000 1.0
C      1  0.5509820000000  0.5211960000000  0.5288510000000 1.0
C      1  0.4385670000000  0.4676920000000  0.4562510000000 1.0
C      1  0.4926610000000  0.5005080000000  0.4537830000000 1.0
C      1  0.5651890000000  0.5218090000000  0.5753680000000 1.0
C      1  0.5268950000000  0.5091290000000  0.5496020000000 1.0
C      1  0.5191540000000  0.4403490000000  0.4653200000000 1.0
C      1  0.4572100000000  0.5534020000000  0.4336280000000 1.0
C      1  0.4884570000000  0.4376680000000  0.4800130000000 1.0
C      1  0.5778710000000  0.5336660000000  0.4742880000000 1.0
C      1  0.5264290000000  0.5480530000000  0.4539830000000 1.0
C      1  0.5763340000000  0.4623100000000  0.4966100000000 1.0
C      1  0.4359340000000  0.5484580000000  0.4786470000000 1.0
C      1  0.4966720000000  0.5408990000000  0.4128630000000 1.0
C      1  0.5021680000000  0.5557130000000  0.4361520000000 1.0
C      1  0.3964880000000  0.4971540000000  0.4728660000000 1.0
C      1  0.5579200000000  0.4329340000000  0.4718050000000 1.0
C      1  0.5063580000000  0.5579390000000  0.5355950000000 1.0
C      1  0.4323460000000  0.4655100000000  0.5414030000000 1.0
C      1  0.4814130000000  0.5201700000000  0.5839180000000 1.0
C      1  0.4685110000000  0.5299050000000  0.4139870000000 1.0
C      1  0.4918100000000  0.4584570000000  0.4256950000000 1.0
C      1  0.5038340000000  0.4650960000000  0.5818730000000 1.0
C      1  0.5800040000000  0.5381290000000  0.5072220000000 1.0
C      1  0.5475140000000  0.4999010000000  0.4489980000000 1.0
C      1  0.4565240000000  0.5669810000000  0.4777170000000 1.0
C      1  0.5761450000000  0.5012160000000  0.5261670000000 1.0
C      1  0.4654110000000  0.5292790000000  0.5083110000000 1.0
C      1  0.5051110000000  0.5762940000000  0.5644740000000 1.0
C      1  0.4636230000000  0.4988800000000  0.5205250000000 1.0
C      1  0.5255080000000  0.4635790000000  0.5391330000000 1.0
C      1  0.5861600000000  0.5073170000000  0.4942310000000 1.0
C      1  0.4598480000000  0.5564440000000  0.5271940000000 1.0
C      1  0.4734140000000  0.4400720000000  0.4326210000000 1.0
C      1  0.4705880000000  0.5754570000000  0.5033950000000 1.0
C      1  0.5781790000000  0.4638540000000  0.4568490000000 1.0
C      1  0.4660740000000  0.4704470000000  0.4849470000000 1.0
C      1  0.5254410000000  0.4461790000000  0.5825670000000 1.0
C      1  0.5158220000000  0.4577660000000  0.5011080000000 1.0
C      1  0.4295520000000  0.5557770000000  0.5351490000000 1.0
C      1  0.4476080000000  0.4396690000000  0.5091840000000 1.0
C      1  0.5484810000000  0.4491830000000  0.4491580000000 1.0
C      1  0.5084790000000  0.5167090000000  0.5841960000000 1.0
C      1  0.4806090000000  0.5626250000000  0.5719540000000 1.0
C      1  0.4303090000000  0.5115770000000  0.5535350000000 1.0
C      1  0.4435650000000  0.4734120000000  0.5102690000000 1.0
C      1  0.5039490000000  0.5095820000000  0.4845650000000 1.0
C      1  0.4417670000000  0.5166190000000  0.4734810000000 1.0
C      1  0.5517430000000  0.4261250000000  0.5201010000000 1.0
C      1  0.5004550000000  0.5256580000000  0.5391710000000 1.0
C      1  0.5535890000000  0.5276270000000  0.4523170000000 1.0
C      1  0.4384810000000  0.4995410000000  0.4442580000000 1.0
C      1  0.5617020000000  0.4467860000000  0.5377800000000 1.0
C      1  0.4671920000000  0.4988000000000  0.4720730000000 1.0
C      1  0.5154780000000  0.4895800000000  0.5749780000000 1.0
C      1  0.5445350000000  0.4736860000000  0.4979460000000 1.0
C      1  0.4608440000000  0.5104140000000  0.5586640000000 1.0
C      1  0.4769000000000  0.5590220000000  0.4573300000000 1.0
C      1  0.5733880000000  0.4689700000000  0.5252220000000 1.0
C      1  0.4329010000000  0.5194950000000  0.5059050000000 1.0
C      1  0.5328240000000  0.5183900000000  0.5002290000000 1.0
C      1  0.5426390000000  0.4516730000000  0.5604530000000 1.0
C      1  0.4200670000000  0.4652420000000  0.4770380000000 1.0
C      1  0.4512830000000  0.4490120000000  0.5557860000000 1.0
C      1  0.5352360000000  0.5326230000000  0.5752440000000 1.0
C      1  0.4367230000000  0.5282320000000  0.4259430000000 1.0
C      1  0.5005200000000  0.5415210000000  0.4734180000000 1.0
C      1  0.4223680000000  0.5289130000000  0.5327720000000 1.0
C      1  0.4948130000000  0.5035910000000  0.5167660000000 1.0
C      1  0.5145020000000  0.5950870000000  0.4982730000000 1.0
C      1  0.4737020000000  0.5406900000000  0.5506630000000 1.0
C      1  0.4888030000000  0.4836490000000  0.4125500000000 1.0
C      1  0.5364080000000  0.4334080000000  0.4938030000000 1.0
C      1  0.5205250000000  0.5686010000000  0.4997610000000 1.0
C      1  0.5792490000000  0.5140340000000  0.5561770000000 1.0
C      1  0.5286500000000  0.4889630000000  0.4335390000000 1.0
C      1  0.5083650000000  0.4699460000000  0.4524590000000 1.0
C      1  0.4690830000000  0.5016490000000  0.4295820000000 1.0
C      1  0.5542060000000  0.5573250000000  0.4682690000000 1.0
C      1  0.4775430000000  0.4627150000000  0.5723060000000 1.0
END
