TITL C-2847959-7740-177 0.000942257912214277 125000 -936.490188799624 0 0 177 (C1) n - 1
REM
REM in /home/bkarasulu/work/CARBON/AIRSS/Generating-Clusters/AIREBO/with-SteepDescent/Only-C1/SD-CG-opt/Try1-1.4A-POS3A/HFTN-CG
REM
REM
REM
REM
REM
REM ./C.cell (11c1c37f851c82e70ff6c80c92926a4b)
REM
REM compiler GCC version 9.2.1 20190827 (Red Hat 9.2.1-1)
REM options -cpp -mtune=generic -march=x86-64 -g -O0 -fpre-include=/usr/include/finclude/math-vector-fortran.h
REM seed -869195028 -770918672 -316801284 865482031 -35381097 -2031296771 1888460272 2090388323 1859288867 1073901102 -941915895 -74698838 1409576538 1536198357 -1240672555 772811736 -1087522959 -258179542 -25015267 2082792847 -560004847 742962311 1398860328 -1565183566 1358431536 1797210250 -1875736936 -1471309458 -1706701179 -1863579490 1322503430 1114260287 -105055982
REM
CELL 1.54180   50.00000   50.00000   50.00000   90.00000   90.00000   90.00000
LATT -1
SFAC C  
C      1  0.4856050000000  0.5238680000000  0.4973910000000 1.0
C      1  0.4470940000000  0.4562520000000  0.5447900000000 1.0
C      1  0.5968810000000  0.4934020000000  0.5621660000000 1.0
C      1  0.5574030000000  0.4683210000000  0.4918210000000 1.0
C      1  0.4474880000000  0.5510900000000  0.4196110000000 1.0
C      1  0.4940680000000  0.5981290000000  0.5231700000000 1.0
C      1  0.5360720000000  0.4132590000000  0.4318530000000 1.0
C      1  0.4759680000000  0.4478510000000  0.4772380000000 1.0
C      1  0.5287050000000  0.4721650000000  0.4297070000000 1.0
C      1  0.4519780000000  0.4991390000000  0.4062740000000 1.0
C      1  0.5264330000000  0.4148260000000  0.5507350000000 1.0
C      1  0.5615910000000  0.5395480000000  0.3994800000000 1.0
C      1  0.5195050000000  0.3942840000000  0.5063940000000 1.0
C      1  0.5150270000000  0.5963500000000  0.4895470000000 1.0
C      1  0.4761610000000  0.5122670000000  0.5787290000000 1.0
C      1  0.5751000000000  0.5381460000000  0.5705260000000 1.0
C      1  0.4744830000000  0.4151410000000  0.5722020000000 1.0
C      1  0.5297170000000  0.4969390000000  0.4949890000000 1.0
C      1  0.5244640000000  0.5613290000000  0.4175540000000 1.0
C      1  0.5681650000000  0.5232910000000  0.4785350000000 1.0
C      1  0.6051390000000  0.5102410000000  0.4813910000000 1.0
C      1  0.5074200000000  0.5515680000000  0.5601580000000 1.0
C      1  0.4369340000000  0.4879770000000  0.4999140000000 1.0
C      1  0.4087620000000  0.4616790000000  0.5154340000000 1.0
C      1  0.3920380000000  0.4769920000000  0.4995990000000 1.0
C      1  0.5278920000000  0.4990790000000  0.5627220000000 1.0
C      1  0.4181320000000  0.4684250000000  0.5415250000000 1.0
C      1  0.5564050000000  0.5861030000000  0.5139890000000 1.0
C      1  0.4863370000000  0.4956680000000  0.4059900000000 1.0
C      1  0.5809820000000  0.4961330000000  0.4625660000000 1.0
C      1  0.5071550000000  0.4249140000000  0.5148550000000 1.0
C      1  0.5588000000000  0.4231390000000  0.5570010000000 1.0
C      1  0.4196120000000  0.5704710000000  0.5476160000000 1.0
C      1  0.5973100000000  0.5116880000000  0.5143980000000 1.0
C      1  0.5024470000000  0.4318600000000  0.4631230000000 1.0
C      1  0.5581300000000  0.4864140000000  0.5531740000000 1.0
C      1  0.4736540000000  0.5367890000000  0.5989710000000 1.0
C      1  0.5439820000000  0.4123300000000  0.5216370000000 1.0
C      1  0.4078210000000  0.5400110000000  0.4447910000000 1.0
C      1  0.4283820000000  0.4865290000000  0.4497740000000 1.0
C      1  0.4643710000000  0.5296510000000  0.4068150000000 1.0
C      1  0.4388050000000  0.4295360000000  0.5270210000000 1.0
C      1  0.5144060000000  0.3889830000000  0.4768810000000 1.0
C      1  0.4852090000000  0.5463880000000  0.4529500000000 1.0
C      1  0.5359130000000  0.5501640000000  0.3941340000000 1.0
C      1  0.3949260000000  0.5086990000000  0.5253720000000 1.0
C      1  0.4042410000000  0.5195260000000  0.4204140000000 1.0
C      1  0.4510130000000  0.5547220000000  0.5905920000000 1.0
C      1  0.4850200000000  0.4362300000000  0.5942720000000 1.0
C      1  0.5791180000000  0.4616510000000  0.4219720000000 1.0
C      1  0.4503670000000  0.5066960000000  0.5572690000000 1.0
C      1  0.4191590000000  0.4979460000000  0.5466760000000 1.0
C      1  0.4915870000000  0.5351280000000  0.4039600000000 1.0
C      1  0.5518900000000  0.5058530000000  0.4478890000000 1.0
C      1  0.4600960000000  0.5727790000000  0.5537570000000 1.0
C      1  0.5720510000000  0.4183680000000  0.4740830000000 1.0
C      1  0.5084240000000  0.4028610000000  0.4463850000000 1.0
C      1  0.4754540000000  0.3879220000000  0.5249750000000 1.0
C      1  0.4952790000000  0.4049240000000  0.5473180000000 1.0
C      1  0.4916210000000  0.4566590000000  0.4338040000000 1.0
C      1  0.5797200000000  0.4407680000000  0.5415130000000 1.0
C      1  0.5246880000000  0.4266840000000  0.4851900000000 1.0
C      1  0.5006270000000  0.4451110000000  0.5708090000000 1.0
C      1  0.3998550000000  0.5589740000000  0.5222290000000 1.0
C      1  0.4972070000000  0.4675900000000  0.5494200000000 1.0
C      1  0.5325150000000  0.4339900000000  0.4127770000000 1.0
C      1  0.5869720000000  0.4343870000000  0.5158700000000 1.0
C      1  0.5378270000000  0.5348430000000  0.4523820000000 1.0
C      1  0.4108640000000  0.5618650000000  0.4644610000000 1.0
C      1  0.5706580000000  0.5393620000000  0.4301900000000 1.0
C      1  0.5938320000000  0.5423890000000  0.5020000000000 1.0
C      1  0.4364790000000  0.5772690000000  0.4645110000000 1.0
C      1  0.5764560000000  0.5477140000000  0.4576910000000 1.0
C      1  0.5348050000000  0.5125340000000  0.5247530000000 1.0
C      1  0.5898150000000  0.5582020000000  0.5563050000000 1.0
C      1  0.4570720000000  0.5391500000000  0.5496230000000 1.0
C      1  0.4905140000000  0.5791420000000  0.5496570000000 1.0
C      1  0.4812330000000  0.5963750000000  0.4933620000000 1.0
C      1  0.5666480000000  0.5556100000000  0.5020390000000 1.0
C      1  0.4231090000000  0.4986280000000  0.4184340000000 1.0
C      1  0.5027300000000  0.5190520000000  0.4618010000000 1.0
C      1  0.4470800000000  0.4102000000000  0.4733830000000 1.0
C      1  0.4804610000000  0.5015660000000  0.5162440000000 1.0
C      1  0.5142070000000  0.5650550000000  0.5003290000000 1.0
C      1  0.4943870000000  0.5977540000000  0.4574420000000 1.0
C      1  0.4610690000000  0.4741480000000  0.5194700000000 1.0
C      1  0.5104160000000  0.5340690000000  0.4322670000000 1.0
C      1  0.5592690000000  0.5706430000000  0.4729090000000 1.0
C      1  0.5125670000000  0.5030240000000  0.3896680000000 1.0
C      1  0.5645260000000  0.4866540000000  0.5197100000000 1.0
C      1  0.3977450000000  0.5164940000000  0.4983960000000 1.0
C      1  0.4675550000000  0.4698470000000  0.4137310000000 1.0
C      1  0.4772950000000  0.4210510000000  0.5233870000000 1.0
C      1  0.4611900000000  0.5946740000000  0.5273410000000 1.0
C      1  0.4883420000000  0.4856400000000  0.4804140000000 1.0
C      1  0.4524020000000  0.5739340000000  0.4394090000000 1.0
C      1  0.4835770000000  0.4569410000000  0.6130930000000 1.0
C      1  0.4579980000000  0.4638910000000  0.5831540000000 1.0
C      1  0.5610280000000  0.5100550000000  0.4158210000000 1.0
C      1  0.5221780000000  0.5040830000000  0.4213550000000 1.0
C      1  0.4761410000000  0.5544140000000  0.5025680000000 1.0
C      1  0.5456990000000  0.5087440000000  0.5970800000000 1.0
C      1  0.4684250000000  0.4791430000000  0.5582280000000 1.0
C      1  0.6039320000000  0.5403630000000  0.4729310000000 1.0
C      1  0.5366880000000  0.5444730000000  0.5132390000000 1.0
C      1  0.5276290000000  0.4378870000000  0.5757140000000 1.0
C      1  0.5059890000000  0.4406660000000  0.4080510000000 1.0
C      1  0.4367590000000  0.5739560000000  0.5213190000000 1.0
C      1  0.4112960000000  0.4937450000000  0.4783290000000 1.0
C      1  0.5142660000000  0.5343550000000  0.3824160000000 1.0
C      1  0.5063390000000  0.4989890000000  0.5381480000000 1.0
C      1  0.4274490000000  0.4523640000000  0.4451130000000 1.0
C      1  0.5174720000000  0.5262940000000  0.4915810000000 1.0
C      1  0.5034290000000  0.5441750000000  0.6002950000000 1.0
C      1  0.4825570000000  0.4239790000000  0.4366870000000 1.0
C      1  0.4556360000000  0.4843060000000  0.6073350000000 1.0
C      1  0.5641290000000  0.4679350000000  0.5810900000000 1.0
C      1  0.4322980000000  0.4340020000000  0.4721930000000 1.0
C      1  0.4307320000000  0.5402590000000  0.5711170000000 1.0
C      1  0.5126220000000  0.4781730000000  0.5120040000000 1.0
C      1  0.5716750000000  0.4122480000000  0.5053940000000 1.0
C      1  0.4031430000000  0.5477440000000  0.4934350000000 1.0
C      1  0.5304590000000  0.4474120000000  0.4516510000000 1.0
C      1  0.4881680000000  0.4866630000000  0.5976740000000 1.0
C      1  0.4587010000000  0.5290150000000  0.4772060000000 1.0
C      1  0.4864750000000  0.5005410000000  0.4383510000000 1.0
C      1  0.4327130000000  0.4543850000000  0.4965980000000 1.0
C      1  0.4336050000000  0.5407380000000  0.4891740000000 1.0
C      1  0.4291660000000  0.4840360000000  0.6173950000000 1.0
C      1  0.4786530000000  0.5819500000000  0.4358760000000 1.0
C      1  0.5277350000000  0.6047040000000  0.5199590000000 1.0
C      1  0.4587270000000  0.4592160000000  0.4562400000000 1.0
C      1  0.5372060000000  0.4836970000000  0.4691340000000 1.0
C      1  0.4883260000000  0.5257510000000  0.5489480000000 1.0
C      1  0.4991670000000  0.5483340000000  0.5259220000000 1.0
C      1  0.5067320000000  0.4787460000000  0.4548130000000 1.0
C      1  0.5276480000000  0.5626550000000  0.4690900000000 1.0
C      1  0.5778940000000  0.4677850000000  0.4489840000000 1.0
C      1  0.5237520000000  0.5848740000000  0.5453630000000 1.0
C      1  0.4645590000000  0.3937150000000  0.4971600000000 1.0
C      1  0.5203890000000  0.4860640000000  0.5930150000000 1.0
C      1  0.4594250000000  0.4347110000000  0.5022670000000 1.0
C      1  0.5438140000000  0.4115830000000  0.4623590000000 1.0
C      1  0.4354030000000  0.5794770000000  0.5742940000000 1.0
C      1  0.4598010000000  0.4990130000000  0.4800340000000 1.0
C      1  0.5419480000000  0.4424040000000  0.5058880000000 1.0
C      1  0.4341610000000  0.5142780000000  0.5215020000000 1.0
C      1  0.5485440000000  0.5470750000000  0.5679340000000 1.0
C      1  0.5431190000000  0.4900630000000  0.3972660000000 1.0
C      1  0.5250250000000  0.5288010000000  0.5789960000000 1.0
C      1  0.4859530000000  0.4644060000000  0.5030280000000 1.0
C      1  0.5097760000000  0.5713920000000  0.5876920000000 1.0
C      1  0.5976820000000  0.4403900000000  0.4703000000000 1.0
C      1  0.4479090000000  0.5893500000000  0.4943130000000 1.0
C      1  0.6049870000000  0.4966560000000  0.5389160000000 1.0
C      1  0.5420040000000  0.5616230000000  0.5419960000000 1.0
C      1  0.5734020000000  0.5732830000000  0.5402810000000 1.0
C      1  0.5642120000000  0.5161470000000  0.5080170000000 1.0
C      1  0.5206670000000  0.4520070000000  0.5303580000000 1.0
C      1  0.5494290000000  0.4541920000000  0.5466710000000 1.0
C      1  0.5513730000000  0.4600760000000  0.4080450000000 1.0
C      1  0.4618450000000  0.4889320000000  0.4507700000000 1.0
C      1  0.5590440000000  0.4482890000000  0.4644900000000 1.0
C      1  0.4180900000000  0.5371760000000  0.5408950000000 1.0
C      1  0.4841870000000  0.5694560000000  0.4733310000000 1.0
C      1  0.4297290000000  0.5204900000000  0.4510640000000 1.0
C      1  0.4574110000000  0.5348740000000  0.4459280000000 1.0
C      1  0.5117690000000  0.5741450000000  0.4425540000000 1.0
C      1  0.5467050000000  0.5994290000000  0.4851700000000 1.0
C      1  0.5719970000000  0.5080070000000  0.5755040000000 1.0
C      1  0.4551930000000  0.4419710000000  0.4275260000000 1.0
C      1  0.5878440000000  0.4534100000000  0.4946350000000 1.0
C      1  0.4798540000000  0.4085290000000  0.4732590000000 1.0
C      1  0.4674120000000  0.5127830000000  0.6191300000000 1.0
C      1  0.4491240000000  0.5444830000000  0.5169970000000 1.0
C      1  0.4523760000000  0.4359930000000  0.5715810000000 1.0
C      1  0.5393000000000  0.4589600000000  0.5897720000000 1.0
END
