TITL C-2847959-7740-706 -0.00211485496143279 125000 -533.272649769841 0 0 99 (C1) n - 1
REM
REM in /home/bkarasulu/work/CARBON/AIRSS/Generating-Clusters/AIREBO/with-SteepDescent/Only-C1/SD-CG-opt/Try1-1.4A-POS3A/HFTN-CG
REM
REM
REM
REM
REM
REM ./C.cell (11c1c37f851c82e70ff6c80c92926a4b)
REM
REM compiler GCC version 9.2.1 20190827 (Red Hat 9.2.1-1)
REM options -cpp -mtune=generic -march=x86-64 -g -O0 -fpre-include=/usr/include/finclude/math-vector-fortran.h
REM seed -1581598662 -687733969 1285445391 -263168487 -665580817 1853826922 -402733209 1573578455 657776259 -1039637418 1714094462 -391404900 -338326506 474412861 1673639971 -905409275 -1507481828 947818559 -242350793 1977800056 978894530 56469815 -639356621 915915786 224589644 -1006735477 923650581 1696133764 -1310365078 -1332636381 1443451575 516900215 459897712
REM
CELL 1.54180   50.00000   50.00000   50.00000   90.00000   90.00000   90.00000
LATT -1
SFAC C  
C      1  0.4776110000000  0.4349460000000  0.4598500000000 1.0
C      1  0.5613910000000  0.4359100000000  0.4592180000000 1.0
C      1  0.5829500000000  0.5368070000000  0.4847180000000 1.0
C      1  0.5140990000000  0.5449670000000  0.4290480000000 1.0
C      1  0.5019470000000  0.5041790000000  0.5087950000000 1.0
C      1  0.4525620000000  0.4540110000000  0.5371460000000 1.0
C      1  0.4432540000000  0.5172410000000  0.5236750000000 1.0
C      1  0.5137720000000  0.5868520000000  0.4811080000000 1.0
C      1  0.5092390000000  0.5474480000000  0.4828260000000 1.0
C      1  0.4777760000000  0.4981380000000  0.5291590000000 1.0
C      1  0.5302690000000  0.4531470000000  0.5532860000000 1.0
C      1  0.5168550000000  0.5739510000000  0.5312210000000 1.0
C      1  0.5108060000000  0.5161040000000  0.4826280000000 1.0
C      1  0.4286220000000  0.4694010000000  0.5465250000000 1.0
C      1  0.4468100000000  0.4503200000000  0.5065210000000 1.0
C      1  0.5341990000000  0.4435590000000  0.4703660000000 1.0
C      1  0.5869790000000  0.5176400000000  0.5445570000000 1.0
C      1  0.5322660000000  0.5733950000000  0.5040510000000 1.0
C      1  0.5042660000000  0.4582910000000  0.5745800000000 1.0
C      1  0.4747100000000  0.4355650000000  0.5528880000000 1.0
C      1  0.4720770000000  0.5287340000000  0.5349350000000 1.0
C      1  0.4331970000000  0.5015590000000  0.5495660000000 1.0
C      1  0.5026820000000  0.4386720000000  0.5398510000000 1.0
C      1  0.4667120000000  0.4890800000000  0.5774520000000 1.0
C      1  0.4849360000000  0.4745480000000  0.5518020000000 1.0
C      1  0.4366210000000  0.5056400000000  0.4937520000000 1.0
C      1  0.5436680000000  0.5438840000000  0.4439230000000 1.0
C      1  0.4125780000000  0.4916970000000  0.5261320000000 1.0
C      1  0.4729400000000  0.5418400000000  0.4670780000000 1.0
C      1  0.4009310000000  0.4655780000000  0.4818280000000 1.0
C      1  0.5668850000000  0.5450090000000  0.5426380000000 1.0
C      1  0.5085020000000  0.4288180000000  0.4552380000000 1.0
C      1  0.5663130000000  0.4432710000000  0.4328200000000 1.0
C      1  0.4288060000000  0.4367580000000  0.4550760000000 1.0
C      1  0.5006350000000  0.5432890000000  0.5705280000000 1.0
C      1  0.5518310000000  0.5183340000000  0.5172590000000 1.0
C      1  0.4839500000000  0.5585200000000  0.4937570000000 1.0
C      1  0.5825250000000  0.5228560000000  0.5137950000000 1.0
C      1  0.5824080000000  0.4911910000000  0.5488040000000 1.0
C      1  0.4683470000000  0.4314260000000  0.4924060000000 1.0
C      1  0.4646180000000  0.5303220000000  0.4365720000000 1.0
C      1  0.4972120000000  0.4963460000000  0.4142130000000 1.0
C      1  0.4885920000000  0.5119240000000  0.4622490000000 1.0
C      1  0.4784210000000  0.4629070000000  0.4463720000000 1.0
C      1  0.4626900000000  0.5337090000000  0.5651840000000 1.0
C      1  0.4330790000000  0.5289670000000  0.4482120000000 1.0
C      1  0.5030890000000  0.4636850000000  0.4229840000000 1.0
C      1  0.4824480000000  0.4590430000000  0.5216390000000 1.0
C      1  0.4975020000000  0.5110400000000  0.5648040000000 1.0
C      1  0.5394580000000  0.4772400000000  0.5755250000000 1.0
C      1  0.4794220000000  0.5607550000000  0.5571930000000 1.0
C      1  0.4259180000000  0.4742010000000  0.5015580000000 1.0
C      1  0.5301210000000  0.4177690000000  0.5073340000000 1.0
C      1  0.5707350000000  0.4444180000000  0.4864860000000 1.0
C      1  0.5386690000000  0.5406380000000  0.4974570000000 1.0
C      1  0.5541630000000  0.4336120000000  0.5098320000000 1.0
C      1  0.5321270000000  0.5633620000000  0.5573080000000 1.0
C      1  0.5535320000000  0.4496590000000  0.5330630000000 1.0
C      1  0.4775600000000  0.4838810000000  0.4696260000000 1.0
C      1  0.5830760000000  0.4729110000000  0.4819460000000 1.0
C      1  0.5278240000000  0.4816060000000  0.4129090000000 1.0
C      1  0.5062520000000  0.4420280000000  0.4865190000000 1.0
C      1  0.4342740000000  0.5611670000000  0.4960600000000 1.0
C      1  0.4274290000000  0.5333460000000  0.4775690000000 1.0
C      1  0.4441050000000  0.4850460000000  0.4676920000000 1.0
C      1  0.4216890000000  0.5402290000000  0.5163910000000 1.0
C      1  0.4232730000000  0.4628160000000  0.4634480000000 1.0
C      1  0.5617050000000  0.4779820000000  0.5267770000000 1.0
C      1  0.5180270000000  0.5632140000000  0.4568540000000 1.0
C      1  0.5565630000000  0.4845030000000  0.4966940000000 1.0
C      1  0.4978870000000  0.4738760000000  0.4949910000000 1.0
C      1  0.4521640000000  0.5635380000000  0.4691670000000 1.0
C      1  0.4844720000000  0.5918920000000  0.4921790000000 1.0
C      1  0.5391570000000  0.5238900000000  0.4693550000000 1.0
C      1  0.3995780000000  0.5172790000000  0.5166910000000 1.0
C      1  0.5437550000000  0.4990710000000  0.5424360000000 1.0
C      1  0.4493560000000  0.5100700000000  0.5721770000000 1.0
C      1  0.5739000000000  0.5052770000000  0.4757150000000 1.0
C      1  0.4966980000000  0.4236220000000  0.5099400000000 1.0
C      1  0.5305620000000  0.4733520000000  0.4848890000000 1.0
C      1  0.4678560000000  0.4818480000000  0.4211780000000 1.0
C      1  0.5835730000000  0.5562760000000  0.5150990000000 1.0
C      1  0.5059450000000  0.5255000000000  0.5352010000000 1.0
C      1  0.4502850000000  0.5007510000000  0.4397860000000 1.0
C      1  0.4961690000000  0.4862910000000  0.5881350000000 1.0
C      1  0.4564150000000  0.5822330000000  0.5087910000000 1.0
C      1  0.5092140000000  0.4353900000000  0.4268500000000 1.0
C      1  0.4955660000000  0.5215820000000  0.4310250000000 1.0
C      1  0.5565330000000  0.4971930000000  0.4223820000000 1.0
C      1  0.5307820000000  0.5353810000000  0.5766190000000 1.0
C      1  0.4834310000000  0.5705900000000  0.5259200000000 1.0
C      1  0.5410830000000  0.5085230000000  0.5735000000000 1.0
C      1  0.3987600000000  0.5232280000000  0.4884200000000 1.0
C      1  0.5563310000000  0.4659950000000  0.4213920000000 1.0
C      1  0.5340900000000  0.5375000000000  0.5369770000000 1.0
C      1  0.5627700000000  0.5638340000000  0.4913060000000 1.0
C      1  0.4488310000000  0.4225890000000  0.4660010000000 1.0
C      1  0.5591360000000  0.5134430000000  0.4461920000000 1.0
C      1  0.5152010000000  0.4890830000000  0.5464080000000 1.0
END
