TITL C-2847954-6904-115 31.4422899737101 125000 -975.143807271811 0 0 185 (C1) n - 1
REM
REM in /home/bkarasulu/work/CARBON/AIRSS/Generating-Clusters/AIREBO/with-SteepDescent/Only-C1/SD-CG-opt/Try1-1.4A-POS3A/HFTN-CG
REM
REM
REM
REM
REM
REM ./C.cell (11c1c37f851c82e70ff6c80c92926a4b)
REM
REM compiler GCC version 9.2.1 20190827 (Red Hat 9.2.1-1)
REM options -cpp -mtune=generic -march=x86-64 -g -O0 -fpre-include=/usr/include/finclude/math-vector-fortran.h
REM seed 1488109987 1822409182 -1305554569 104060884 -621447650 882461245 -1449586312 333171763 -217001214 -1856742602 1753824663 -768449379 130893720 1568155054 199323520 -24725982 1934322291 -1299931275 202014510 -1536917490 790803296 1518964317 -519573566 -41931724 -1977216572 1066473998 -2026183411 -286911452 1456397196 -936897821 -1898210528 -1670013860 912099055
REM
CELL 1.54180   50.00000   50.00000   50.00000   90.00000   90.00000   90.00000
LATT -1
SFAC C  
C      1  0.4965570000000  0.4153730000000  0.5728810000000 1.0
C      1  0.4143450000000  0.4459140000000  0.5344750000000 1.0
C      1  0.5732130000000  0.5556550000000  0.5520070000000 1.0
C      1  0.4501600000000  0.4108620000000  0.4748600000000 1.0
C      1  0.5012400000000  0.4711980000000  0.4802920000000 1.0
C      1  0.5263370000000  0.4651170000000  0.6197890000000 1.0
C      1  0.5652230000000  0.4960430000000  0.5046320000000 1.0
C      1  0.5557930000000  0.5060410000000  0.5834990000000 1.0
C      1  0.4251320000000  0.5333370000000  0.4327550000000 1.0
C      1  0.5255090000000  0.6035500000000  0.5225650000000 1.0
C      1  0.4432450000000  0.4439400000000  0.4292740000000 1.0
C      1  0.4640540000000  0.4715250000000  0.6155870000000 1.0
C      1  0.4804680000000  0.4929570000000  0.5955450000000 1.0
C      1  0.4796210000000  0.5597400000000  0.5036970000000 1.0
C      1  0.5090030000000  0.5270280000000  0.5794370000000 1.0
C      1  0.4708730000000  0.5079030000000  0.5665390000000 1.0
C      1  0.5032300000000  0.4992370000000  0.5607070000000 1.0
C      1  0.5329420000000  0.4343110000000  0.4953380000000 1.0
C      1  0.4841490000000  0.6113070000000  0.4947910000000 1.0
C      1  0.5740590000000  0.4925660000000  0.4723320000000 1.0
C      1  0.4760050000000  0.4438200000000  0.4982050000000 1.0
C      1  0.4830260000000  0.4406420000000  0.4302910000000 1.0
C      1  0.5626200000000  0.5297040000000  0.4127310000000 1.0
C      1  0.5432140000000  0.4787410000000  0.4934760000000 1.0
C      1  0.3903190000000  0.4975860000000  0.5294660000000 1.0
C      1  0.5413780000000  0.5488880000000  0.4285610000000 1.0
C      1  0.4465840000000  0.4464830000000  0.5431270000000 1.0
C      1  0.4641230000000  0.6069850000000  0.5151410000000 1.0
C      1  0.4121430000000  0.5644530000000  0.4874590000000 1.0
C      1  0.5510250000000  0.4019580000000  0.4821690000000 1.0
C      1  0.5387580000000  0.5332970000000  0.5946510000000 1.0
C      1  0.5872370000000  0.4550060000000  0.4758450000000 1.0
C      1  0.6001830000000  0.4699770000000  0.5200350000000 1.0
C      1  0.4881240000000  0.5915630000000  0.4724810000000 1.0
C      1  0.5711390000000  0.4925080000000  0.4400840000000 1.0
C      1  0.5726450000000  0.5836410000000  0.5128540000000 1.0
C      1  0.4400240000000  0.5670770000000  0.5347360000000 1.0
C      1  0.4108970000000  0.5707430000000  0.5197740000000 1.0
C      1  0.5090750000000  0.4509830000000  0.5037250000000 1.0
C      1  0.5047170000000  0.5966810000000  0.5445090000000 1.0
C      1  0.4674120000000  0.5662880000000  0.4726430000000 1.0
C      1  0.5154520000000  0.5245380000000  0.5131200000000 1.0
C      1  0.4485660000000  0.5042500000000  0.5990540000000 1.0
C      1  0.5875560000000  0.4716580000000  0.5633990000000 1.0
C      1  0.5115150000000  0.5422780000000  0.4645130000000 1.0
C      1  0.5322950000000  0.5263630000000  0.3977100000000 1.0
C      1  0.4654100000000  0.5261120000000  0.6116650000000 1.0
C      1  0.5822430000000  0.5177570000000  0.4298220000000 1.0
C      1  0.5257510000000  0.4737030000000  0.5222190000000 1.0
C      1  0.5333770000000  0.4862060000000  0.5696160000000 1.0
C      1  0.5715960000000  0.5896120000000  0.4544710000000 1.0
C      1  0.4817080000000  0.5138150000000  0.3917040000000 1.0
C      1  0.5337220000000  0.5064180000000  0.4403650000000 1.0
C      1  0.4744720000000  0.4318330000000  0.5299900000000 1.0
C      1  0.6109640000000  0.5160660000000  0.5160130000000 1.0
C      1  0.5757080000000  0.4249760000000  0.4322760000000 1.0
C      1  0.4332090000000  0.5120490000000  0.4100550000000 1.0
C      1  0.5536610000000  0.5618500000000  0.4519780000000 1.0
C      1  0.5546900000000  0.5223780000000  0.5183990000000 1.0
C      1  0.5739300000000  0.4457140000000  0.5481860000000 1.0
C      1  0.4418580000000  0.4754570000000  0.5827200000000 1.0
C      1  0.4185470000000  0.5406220000000  0.5339680000000 1.0
C      1  0.4965080000000  0.4521410000000  0.5883830000000 1.0
C      1  0.4769280000000  0.5974450000000  0.5390960000000 1.0
C      1  0.5066960000000  0.4953240000000  0.5041660000000 1.0
C      1  0.4229240000000  0.5071650000000  0.4955460000000 1.0
C      1  0.4882370000000  0.4219220000000  0.4752140000000 1.0
C      1  0.5014260000000  0.5680760000000  0.5878060000000 1.0
C      1  0.5537030000000  0.5950770000000  0.5340360000000 1.0
C      1  0.5738980000000  0.5504010000000  0.5199530000000 1.0
C      1  0.5025470000000  0.4938330000000  0.4352120000000 1.0
C      1  0.3928980000000  0.5121360000000  0.5045220000000 1.0
C      1  0.5123410000000  0.5322180000000  0.4344950000000 1.0
C      1  0.5744010000000  0.4830680000000  0.5344520000000 1.0
C      1  0.5286120000000  0.4814240000000  0.4628860000000 1.0
C      1  0.5398490000000  0.5327060000000  0.4908870000000 1.0
C      1  0.5507250000000  0.4833520000000  0.4220630000000 1.0
C      1  0.4938730000000  0.4035580000000  0.4402590000000 1.0
C      1  0.4261660000000  0.4204660000000  0.5210830000000 1.0
C      1  0.4215550000000  0.5779880000000  0.4512510000000 1.0
C      1  0.6132720000000  0.4899410000000  0.5048240000000 1.0
C      1  0.4054780000000  0.5130440000000  0.5489850000000 1.0
C      1  0.6077980000000  0.5156470000000  0.5446660000000 1.0
C      1  0.4377420000000  0.5138780000000  0.5254240000000 1.0
C      1  0.4860240000000  0.5516030000000  0.5353750000000 1.0
C      1  0.5412720000000  0.5599700000000  0.5201200000000 1.0
C      1  0.4402430000000  0.5798870000000  0.4761380000000 1.0
C      1  0.3957560000000  0.4687400000000  0.5260130000000 1.0
C      1  0.4221380000000  0.4569420000000  0.4521730000000 1.0
C      1  0.5252210000000  0.4277440000000  0.5722000000000 1.0
C      1  0.5232750000000  0.4167880000000  0.4301910000000 1.0
C      1  0.4363700000000  0.4621460000000  0.4996660000000 1.0
C      1  0.4558830000000  0.4504270000000  0.4011900000000 1.0
C      1  0.5124240000000  0.5093030000000  0.4737050000000 1.0
C      1  0.5005660000000  0.4647900000000  0.5615650000000 1.0
C      1  0.4678650000000  0.4777940000000  0.4014570000000 1.0
C      1  0.4735890000000  0.4642740000000  0.4711450000000 1.0
C      1  0.4968100000000  0.4759390000000  0.3966500000000 1.0
C      1  0.4543360000000  0.4732490000000  0.5553470000000 1.0
C      1  0.5453480000000  0.4153360000000  0.5858280000000 1.0
C      1  0.5225430000000  0.4496740000000  0.5461040000000 1.0
C      1  0.4377390000000  0.5876950000000  0.5075220000000 1.0
C      1  0.5320740000000  0.4532990000000  0.4439090000000 1.0
C      1  0.4961490000000  0.4190770000000  0.4098200000000 1.0
C      1  0.5417830000000  0.4238350000000  0.4578300000000 1.0
C      1  0.4350910000000  0.5633240000000  0.4273250000000 1.0
C      1  0.4784990000000  0.5222100000000  0.5393880000000 1.0
C      1  0.4484800000000  0.5039120000000  0.4584220000000 1.0
C      1  0.5642750000000  0.5311100000000  0.5640920000000 1.0
C      1  0.5174030000000  0.4067820000000  0.4843260000000 1.0
C      1  0.3973280000000  0.5295880000000  0.4751340000000 1.0
C      1  0.4435930000000  0.5472390000000  0.5711360000000 1.0
C      1  0.4598650000000  0.4990850000000  0.4267350000000 1.0
C      1  0.5198130000000  0.5553380000000  0.4030470000000 1.0
C      1  0.5515610000000  0.5263920000000  0.4614420000000 1.0
C      1  0.4310910000000  0.5273280000000  0.4716950000000 1.0
C      1  0.5989950000000  0.5584360000000  0.4535020000000 1.0
C      1  0.5075040000000  0.5788210000000  0.5076720000000 1.0
C      1  0.4127100000000  0.5022490000000  0.4363380000000 1.0
C      1  0.4437320000000  0.4753250000000  0.4705880000000 1.0
C      1  0.4226300000000  0.5028000000000  0.5765010000000 1.0
C      1  0.4050890000000  0.4976230000000  0.4679480000000 1.0
C      1  0.5542190000000  0.5771110000000  0.5577140000000 1.0
C      1  0.5752420000000  0.4224030000000  0.4950590000000 1.0
C      1  0.5986760000000  0.4440940000000  0.5067410000000 1.0
C      1  0.5205450000000  0.4035090000000  0.5271990000000 1.0
C      1  0.5437430000000  0.4171530000000  0.5188940000000 1.0
C      1  0.5979250000000  0.5134640000000  0.4600640000000 1.0
C      1  0.5192350000000  0.5467350000000  0.5373300000000 1.0
C      1  0.4711550000000  0.4701260000000  0.4405540000000 1.0
C      1  0.5155400000000  0.5743880000000  0.4613070000000 1.0
C      1  0.5326800000000  0.5658890000000  0.4888240000000 1.0
C      1  0.4634180000000  0.4282240000000  0.4513720000000 1.0
C      1  0.5021440000000  0.4231020000000  0.5402450000000 1.0
C      1  0.5125490000000  0.4811330000000  0.5960520000000 1.0
C      1  0.5437740000000  0.4971020000000  0.5390920000000 1.0
C      1  0.4720430000000  0.5953470000000  0.4431680000000 1.0
C      1  0.4969350000000  0.5674850000000  0.4119340000000 1.0
C      1  0.4598610000000  0.4207690000000  0.5586370000000 1.0
C      1  0.5660200000000  0.5689620000000  0.4828550000000 1.0
C      1  0.5262910000000  0.5087640000000  0.6103410000000 1.0
C      1  0.5011570000000  0.5417290000000  0.4928050000000 1.0
C      1  0.6053080000000  0.4838880000000  0.4758520000000 1.0
C      1  0.4689530000000  0.5637110000000  0.5781610000000 1.0
C      1  0.4385730000000  0.4040970000000  0.5397580000000 1.0
C      1  0.5042650000000  0.4633040000000  0.4368920000000 1.0
C      1  0.5353220000000  0.5648740000000  0.5832680000000 1.0
C      1  0.4450040000000  0.4298260000000  0.4981350000000 1.0
C      1  0.4763840000000  0.5047580000000  0.4919720000000 1.0
C      1  0.4058180000000  0.4620330000000  0.4989390000000 1.0
C      1  0.5959980000000  0.5357180000000  0.5020560000000 1.0
C      1  0.5335680000000  0.5247740000000  0.5560370000000 1.0
C      1  0.4816770000000  0.5248480000000  0.4216730000000 1.0
C      1  0.4719640000000  0.4333430000000  0.5858560000000 1.0
C      1  0.5539470000000  0.4529630000000  0.4822920000000 1.0
C      1  0.4820620000000  0.5092710000000  0.4584010000000 1.0
C      1  0.5503850000000  0.4577900000000  0.5618860000000 1.0
C      1  0.5751400000000  0.4263880000000  0.4620220000000 1.0
C      1  0.5096790000000  0.3859160000000  0.5071690000000 1.0
C      1  0.4506570000000  0.4493840000000  0.6003890000000 1.0
C      1  0.5145410000000  0.5722240000000  0.5584910000000 1.0
C      1  0.4457080000000  0.4822250000000  0.5254660000000 1.0
C      1  0.4000370000000  0.4679880000000  0.4718440000000 1.0
C      1  0.4339060000000  0.4771840000000  0.4287960000000 1.0
C      1  0.5077940000000  0.6225440000000  0.5034540000000 1.0
C      1  0.4634060000000  0.5299380000000  0.5099170000000 1.0
C      1  0.5003850000000  0.5854370000000  0.4352410000000 1.0
C      1  0.4831190000000  0.4819250000000  0.5394180000000 1.0
C      1  0.4667700000000  0.5654810000000  0.4275900000000 1.0
C      1  0.4761950000000  0.3926950000000  0.4626770000000 1.0
C      1  0.4874710000000  0.4448170000000  0.3911340000000 1.0
C      1  0.5702050000000  0.4266640000000  0.5284340000000 1.0
C      1  0.5118720000000  0.5043760000000  0.4042400000000 1.0
C      1  0.4743320000000  0.5414460000000  0.4504290000000 1.0
C      1  0.4373270000000  0.5469570000000  0.4982410000000 1.0
C      1  0.5807640000000  0.5403030000000  0.4719620000000 1.0
C      1  0.4061090000000  0.5510400000000  0.4517800000000 1.0
C      1  0.4840680000000  0.5401930000000  0.5954400000000 1.0
C      1  0.4658490000000  0.5709280000000  0.5480970000000 1.0
C      1  0.5488520000000  0.4349870000000  0.4204450000000 1.0
C      1  0.5854990000000  0.5047700000000  0.5661320000000 1.0
C      1  0.4433850000000  0.5208620000000  0.5582460000000 1.0
C      1  0.4988280000000  0.3612420000000  0.5071050000000 1.0
C      1  0.5484340000000  0.4624660000000  0.4064640000000 1.0
C      1  0.4726120000000  0.4757750000000  0.5093530000000 1.0
END
