TITL C-2847949-8115-369 0.00247683736030155 125000 -924.221993193795 0 0 172 (C1) n - 1
REM
REM in /home/bkarasulu/work/CARBON/AIRSS/Generating-Clusters/AIREBO/with-SteepDescent/Only-C1/SD-CG-opt/Try1-1.4A-POS3A/HFTN-CG
REM
REM
REM
REM
REM
REM ./C.cell (11c1c37f851c82e70ff6c80c92926a4b)
REM
REM compiler GCC version 9.2.1 20190827 (Red Hat 9.2.1-1)
REM options -cpp -mtune=generic -march=x86-64 -g -O0 -fpre-include=/usr/include/finclude/math-vector-fortran.h
REM seed 1197509657 -1784920978 99130484 506242695 1683011576 2135308926 -1465420831 -2021174653 -821478773 -388367871 1388700673 1846416667 -700702729 -1442454351 1551323508 -1694489491 1110569252 1277062514 -349705488 -1533077216 1102930263 -1564732336 -143065215 176336522 810530907 728069220 -1910368586 502019164 1688773961 1750065422 131554883 -1286408612 1694275118
REM
CELL 1.54180   50.00000   50.00000   50.00000   90.00000   90.00000   90.00000
LATT -1
SFAC C  
C      1  0.5263880000000  0.5958500000000  0.5230490000000 1.0
C      1  0.5329450000000  0.5768600000000  0.5620130000000 1.0
C      1  0.5382660000000  0.4947880000000  0.6000820000000 1.0
C      1  0.4570460000000  0.4824870000000  0.4504140000000 1.0
C      1  0.5281240000000  0.4553530000000  0.4163710000000 1.0
C      1  0.5272510000000  0.4461880000000  0.4897900000000 1.0
C      1  0.4999510000000  0.5222100000000  0.5304400000000 1.0
C      1  0.4878900000000  0.5228180000000  0.4678230000000 1.0
C      1  0.5515280000000  0.4974440000000  0.5192490000000 1.0
C      1  0.5046890000000  0.6149130000000  0.5338770000000 1.0
C      1  0.5064260000000  0.5555200000000  0.5559870000000 1.0
C      1  0.5474710000000  0.4483600000000  0.4502430000000 1.0
C      1  0.5683710000000  0.5009140000000  0.5450280000000 1.0
C      1  0.4479960000000  0.5251910000000  0.5854230000000 1.0
C      1  0.5424290000000  0.4737640000000  0.4652160000000 1.0
C      1  0.3972760000000  0.4561650000000  0.5818760000000 1.0
C      1  0.4738830000000  0.4411790000000  0.5028550000000 1.0
C      1  0.6003410000000  0.5407670000000  0.4894140000000 1.0
C      1  0.4768350000000  0.5450520000000  0.5581000000000 1.0
C      1  0.5154360000000  0.5669630000000  0.5276940000000 1.0
C      1  0.5424990000000  0.5577190000000  0.4024550000000 1.0
C      1  0.5008120000000  0.5230850000000  0.5852160000000 1.0
C      1  0.4879390000000  0.4620970000000  0.4094110000000 1.0
C      1  0.4957360000000  0.6196390000000  0.4657450000000 1.0
C      1  0.5253830000000  0.4286270000000  0.4386190000000 1.0
C      1  0.4816960000000  0.4382010000000  0.4564860000000 1.0
C      1  0.4242940000000  0.5186490000000  0.4885930000000 1.0
C      1  0.5216570000000  0.5153920000000  0.6096890000000 1.0
C      1  0.4901530000000  0.5512560000000  0.4113830000000 1.0
C      1  0.4871110000000  0.4179800000000  0.4358380000000 1.0
C      1  0.5428310000000  0.5109840000000  0.4793760000000 1.0
C      1  0.4853900000000  0.3988060000000  0.4616270000000 1.0
C      1  0.4365040000000  0.5328280000000  0.4490630000000 1.0
C      1  0.4580810000000  0.5741410000000  0.5779500000000 1.0
C      1  0.4797530000000  0.6034710000000  0.5317220000000 1.0
C      1  0.5241140000000  0.5165490000000  0.4303780000000 1.0
C      1  0.5398920000000  0.5468180000000  0.5324870000000 1.0
C      1  0.3997510000000  0.5281450000000  0.5101280000000 1.0
C      1  0.4563190000000  0.4583170000000  0.4055380000000 1.0
C      1  0.5510270000000  0.4149750000000  0.5193180000000 1.0
C      1  0.4371500000000  0.5503850000000  0.5784160000000 1.0
C      1  0.4565210000000  0.4497410000000  0.4533280000000 1.0
C      1  0.4529390000000  0.5819650000000  0.4910890000000 1.0
C      1  0.6166690000000  0.4637760000000  0.5350080000000 1.0
C      1  0.4645770000000  0.4776940000000  0.4832280000000 1.0
C      1  0.5244790000000  0.4819430000000  0.5253380000000 1.0
C      1  0.5205450000000  0.4681920000000  0.5955630000000 1.0
C      1  0.5379370000000  0.4139390000000  0.4878390000000 1.0
C      1  0.5772700000000  0.4368110000000  0.4740580000000 1.0
C      1  0.5541160000000  0.5251960000000  0.4439130000000 1.0
C      1  0.4480160000000  0.4385860000000  0.5444960000000 1.0
C      1  0.5505130000000  0.5714800000000  0.5028780000000 1.0
C      1  0.4577110000000  0.4365630000000  0.5770550000000 1.0
C      1  0.5892500000000  0.4401310000000  0.5760590000000 1.0
C      1  0.4890920000000  0.4799850000000  0.4384540000000 1.0
C      1  0.5174520000000  0.5705100000000  0.4095970000000 1.0
C      1  0.4652650000000  0.4027880000000  0.4808960000000 1.0
C      1  0.3854910000000  0.5076490000000  0.5221900000000 1.0
C      1  0.5608000000000  0.4509800000000  0.4174270000000 1.0
C      1  0.5811370000000  0.5133850000000  0.4269710000000 1.0
C      1  0.5687330000000  0.5368510000000  0.4949910000000 1.0
C      1  0.5110840000000  0.4389270000000  0.5843680000000 1.0
C      1  0.5522680000000  0.4907740000000  0.4422710000000 1.0
C      1  0.5184500000000  0.5601180000000  0.5874590000000 1.0
C      1  0.5609370000000  0.4378620000000  0.5780740000000 1.0
C      1  0.4847070000000  0.5042230000000  0.3853640000000 1.0
C      1  0.5498950000000  0.5038940000000  0.5694550000000 1.0
C      1  0.4075470000000  0.5171240000000  0.4500220000000 1.0
C      1  0.5654960000000  0.5633370000000  0.4431470000000 1.0
C      1  0.4400220000000  0.5813730000000  0.4590370000000 1.0
C      1  0.4856770000000  0.5628800000000  0.5877170000000 1.0
C      1  0.4802290000000  0.5833300000000  0.5079900000000 1.0
C      1  0.5290730000000  0.5509850000000  0.4860670000000 1.0
C      1  0.4306320000000  0.5666740000000  0.5101290000000 1.0
C      1  0.4147770000000  0.5552030000000  0.5631900000000 1.0
C      1  0.4375440000000  0.4285150000000  0.5133220000000 1.0
C      1  0.5770380000000  0.5402130000000  0.4640580000000 1.0
C      1  0.4908680000000  0.4890350000000  0.4703410000000 1.0
C      1  0.5470700000000  0.4599610000000  0.5603290000000 1.0
C      1  0.5116860000000  0.5717510000000  0.4430830000000 1.0
C      1  0.4175410000000  0.5686210000000  0.4797740000000 1.0
C      1  0.4003660000000  0.4847770000000  0.4576670000000 1.0
C      1  0.5764990000000  0.4277370000000  0.5206870000000 1.0
C      1  0.6011950000000  0.5123590000000  0.5081560000000 1.0
C      1  0.4102110000000  0.4638820000000  0.5107010000000 1.0
C      1  0.4436670000000  0.4696710000000  0.5575920000000 1.0
C      1  0.4391540000000  0.5075470000000  0.4074980000000 1.0
C      1  0.5167150000000  0.4121190000000  0.4618160000000 1.0
C      1  0.4424600000000  0.5455250000000  0.4784010000000 1.0
C      1  0.5031560000000  0.4330220000000  0.4132640000000 1.0
C      1  0.5337980000000  0.5973880000000  0.4910470000000 1.0
C      1  0.5356270000000  0.4228620000000  0.5755570000000 1.0
C      1  0.3993550000000  0.4812100000000  0.5350810000000 1.0
C      1  0.4756940000000  0.4768530000000  0.5665240000000 1.0
C      1  0.5805450000000  0.5599320000000  0.5139240000000 1.0
C      1  0.4187620000000  0.4601960000000  0.4456790000000 1.0
C      1  0.4997340000000  0.4814610000000  0.3875570000000 1.0
C      1  0.4155890000000  0.4630290000000  0.4794210000000 1.0
C      1  0.4333190000000  0.5071680000000  0.5152690000000 1.0
C      1  0.4650480000000  0.5055770000000  0.5205470000000 1.0
C      1  0.4714970000000  0.5143810000000  0.5983690000000 1.0
C      1  0.4659730000000  0.5158440000000  0.5502210000000 1.0
C      1  0.5526050000000  0.5781480000000  0.5361580000000 1.0
C      1  0.4774210000000  0.5703250000000  0.4437240000000 1.0
C      1  0.5358730000000  0.5517760000000  0.4551840000000 1.0
C      1  0.4139200000000  0.5055890000000  0.5501870000000 1.0
C      1  0.4897100000000  0.4644710000000  0.6059070000000 1.0
C      1  0.5966940000000  0.4958280000000  0.4502720000000 1.0
C      1  0.5406630000000  0.5275940000000  0.5078740000000 1.0
C      1  0.4389970000000  0.5384470000000  0.4098140000000 1.0
C      1  0.5182970000000  0.5959560000000  0.4607830000000 1.0
C      1  0.4718580000000  0.5616330000000  0.4726430000000 1.0
C      1  0.4080450000000  0.5545430000000  0.5298640000000 1.0
C      1  0.4787020000000  0.4383490000000  0.5948400000000 1.0
C      1  0.5029390000000  0.4176020000000  0.5522720000000 1.0
C      1  0.4391580000000  0.4163660000000  0.4815710000000 1.0
C      1  0.4617960000000  0.5953110000000  0.5514330000000 1.0
C      1  0.4873170000000  0.5850380000000  0.4147130000000 1.0
C      1  0.4742620000000  0.4108980000000  0.5106590000000 1.0
C      1  0.5146240000000  0.5055840000000  0.5068750000000 1.0
C      1  0.4959820000000  0.4685200000000  0.5335470000000 1.0
C      1  0.4719290000000  0.5158610000000  0.4111030000000 1.0
C      1  0.5606330000000  0.4519940000000  0.4932300000000 1.0
C      1  0.5174970000000  0.4853750000000  0.4228630000000 1.0
C      1  0.5205380000000  0.5146880000000  0.4629170000000 1.0
C      1  0.5350500000000  0.4064150000000  0.5479560000000 1.0
C      1  0.4881050000000  0.5518090000000  0.5181090000000 1.0
C      1  0.4375340000000  0.4775490000000  0.4229960000000 1.0
C      1  0.5142710000000  0.3903090000000  0.4879110000000 1.0
C      1  0.5031050000000  0.4037310000000  0.5149310000000 1.0
C      1  0.4927770000000  0.5290910000000  0.4344960000000 1.0
C      1  0.4911470000000  0.4476990000000  0.5582470000000 1.0
C      1  0.5321030000000  0.5316420000000  0.5748580000000 1.0
C      1  0.4101390000000  0.4679320000000  0.5627780000000 1.0
C      1  0.4582910000000  0.5142250000000  0.4413560000000 1.0
C      1  0.4337040000000  0.4332450000000  0.4600560000000 1.0
C      1  0.4958830000000  0.5029700000000  0.5582310000000 1.0
C      1  0.4551600000000  0.5642690000000  0.5455460000000 1.0
C      1  0.5177170000000  0.4786590000000  0.4861840000000 1.0
C      1  0.4439870000000  0.4544390000000  0.4922820000000 1.0
C      1  0.5587820000000  0.5465520000000  0.5598890000000 1.0
C      1  0.5230110000000  0.4835070000000  0.5652460000000 1.0
C      1  0.5254140000000  0.4534260000000  0.5389980000000 1.0
C      1  0.5801960000000  0.4580920000000  0.5190410000000 1.0
C      1  0.5815280000000  0.5457300000000  0.5402780000000 1.0
C      1  0.4377490000000  0.4767100000000  0.5248570000000 1.0
C      1  0.4298430000000  0.5300730000000  0.5362320000000 1.0
C      1  0.4706170000000  0.4723350000000  0.5160760000000 1.0
C      1  0.5545400000000  0.5008560000000  0.4098790000000 1.0
C      1  0.5301150000000  0.4862160000000  0.3912980000000 1.0
C      1  0.5087750000000  0.3857740000000  0.5418560000000 1.0
C      1  0.4984840000000  0.5490710000000  0.4864650000000 1.0
C      1  0.4414990000000  0.5028990000000  0.5645020000000 1.0
C      1  0.4525140000000  0.4066620000000  0.5344160000000 1.0
C      1  0.4645030000000  0.5238390000000  0.4925510000000 1.0
C      1  0.4998680000000  0.5961000000000  0.4892630000000 1.0
C      1  0.5984040000000  0.4574250000000  0.5546260000000 1.0
C      1  0.4946830000000  0.4420650000000  0.4808550000000 1.0
C      1  0.4306470000000  0.4972410000000  0.4659790000000 1.0
C      1  0.5936070000000  0.4945140000000  0.4802240000000 1.0
C      1  0.5800450000000  0.4421110000000  0.4445610000000 1.0
C      1  0.5794100000000  0.4741130000000  0.4339980000000 1.0
C      1  0.5392870000000  0.5299180000000  0.4030400000000 1.0
C      1  0.6039030000000  0.4782980000000  0.5082830000000 1.0
C      1  0.4549700000000  0.5441390000000  0.5181400000000 1.0
C      1  0.5714380000000  0.4710830000000  0.5461510000000 1.0
C      1  0.5215130000000  0.4309610000000  0.5196470000000 1.0
C      1  0.4461070000000  0.5603130000000  0.4349320000000 1.0
C      1  0.5901760000000  0.5194780000000  0.5364770000000 1.0
C      1  0.5648820000000  0.5682120000000  0.4164940000000 1.0
C      1  0.5632300000000  0.4856740000000  0.4893400000000 1.0
C      1  0.4737800000000  0.4863780000000  0.5971060000000 1.0
END
