TITL C-2848503-6230-292 0.000379700456129591 125000 -186.537457104079 0 0 34 (C1) n - 1
REM
REM in /home/bkarasulu/work/CARBON/AIRSS/Generating-Clusters/AIREBO/with-SteepDescent/Only-C1/SD-CG-opt/Try1-1.4A-POS3A/HFTN-CG
REM
REM
REM
REM
REM
REM ./C.cell (11c1c37f851c82e70ff6c80c92926a4b)
REM
REM compiler GCC version 9.2.1 20190827 (Red Hat 9.2.1-1)
REM options -cpp -mtune=generic -march=x86-64 -g -O0 -fpre-include=/usr/include/finclude/math-vector-fortran.h
REM seed -2051562897 635830532 -174616549 396808310 -1921880913 -1928722322 -1066306606 -2100531901 448302232 -2061950589 -211466957 628472090 -839095594 96510094 1347223439 202804269 228123989 -1469747824 -1230558830 -2136155200 1679839287 -844120433 -823258209 1592819797 -1414713696 1077095805 149824404 -966454340 806344442 -774479469 -1979541555 -978992554 -1947724868
REM
CELL 1.54180   50.00000   50.00000   50.00000   90.00000   90.00000   90.00000
LATT -1
SFAC C  
C      1  0.5183050000000  0.4699470000000  0.5314450000000 1.0
C      1  0.4693630000000  0.4853820000000  0.5608420000000 1.0
C      1  0.4522310000000  0.4706000000000  0.4611010000000 1.0
C      1  0.5475660000000  0.5123270000000  0.5219770000000 1.0
C      1  0.4821780000000  0.4635880000000  0.4466020000000 1.0
C      1  0.4973500000000  0.5118460000000  0.4513500000000 1.0
C      1  0.4999170000000  0.5960800000000  0.4873320000000 1.0
C      1  0.5352320000000  0.4878150000000  0.5106610000000 1.0
C      1  0.5063500000000  0.4869820000000  0.4433210000000 1.0
C      1  0.5681970000000  0.5097030000000  0.5399510000000 1.0
C      1  0.4599900000000  0.5130400000000  0.5228590000000 1.0
C      1  0.5486360000000  0.4716050000000  0.4896540000000 1.0
C      1  0.4591990000000  0.4895100000000  0.4374820000000 1.0
C      1  0.5008160000000  0.5187990000000  0.4791810000000 1.0
C      1  0.4977210000000  0.4635850000000  0.5432980000000 1.0
C      1  0.4378930000000  0.4948230000000  0.5045280000000 1.0
C      1  0.4402470000000  0.4843430000000  0.5336000000000 1.0
C      1  0.4849780000000  0.5176390000000  0.5092130000000 1.0
C      1  0.4689400000000  0.4612800000000  0.5041360000000 1.0
C      1  0.4659780000000  0.4623210000000  0.5361830000000 1.0
C      1  0.5380970000000  0.5365910000000  0.5133520000000 1.0
C      1  0.4486930000000  0.4737410000000  0.4883990000000 1.0
C      1  0.5551140000000  0.5581080000000  0.5111020000000 1.0
C      1  0.5100970000000  0.5400270000000  0.5034850000000 1.0
C      1  0.5860750000000  0.5072040000000  0.5589520000000 1.0
C      1  0.4881980000000  0.5932010000000  0.5171210000000 1.0
C      1  0.5628920000000  0.4565360000000  0.4649020000000 1.0
C      1  0.4637780000000  0.5093400000000  0.5538560000000 1.0
C      1  0.4715900000000  0.5150130000000  0.4395560000000 1.0
C      1  0.5061290000000  0.4928500000000  0.5010200000000 1.0
C      1  0.5006680000000  0.5672780000000  0.5021850000000 1.0
C      1  0.4938660000000  0.4666620000000  0.4937710000000 1.0
C      1  0.5031450000000  0.4569950000000  0.4694610000000 1.0
C      1  0.5305730000000  0.4552380000000  0.4681210000000 1.0
END
