TITL C-2847956-8218-388 0.00199274760398272 125000 -355.800379248611 0 0 67 (C1) n - 1
REM
REM in /home/bkarasulu/work/CARBON/AIRSS/Generating-Clusters/AIREBO/with-SteepDescent/Only-C1/SD-CG-opt/Try1-1.4A-POS3A/HFTN-CG
REM
REM
REM
REM
REM
REM ./C.cell (11c1c37f851c82e70ff6c80c92926a4b)
REM
REM compiler GCC version 9.2.1 20190827 (Red Hat 9.2.1-1)
REM options -cpp -mtune=generic -march=x86-64 -g -O0 -fpre-include=/usr/include/finclude/math-vector-fortran.h
REM seed 546781340 1103249225 986212080 -445500788 -1232786521 979459994 1505325257 -1713647216 -913548093 -1551138677 -1948255181 704345708 -921558088 1464136217 1338159482 1973494040 -1985175914 -1709915218 1149691938 -99674511 725700513 998091576 -52983221 -1539501756 -1882745311 -1886874418 -1324995436 1221751884 1116914483 -1358682831 -74084038 -1457815082 -789298675
REM
CELL 1.54180   50.00000   50.00000   50.00000   90.00000   90.00000   90.00000
LATT -1
SFAC C  
C      1  0.5172410000000  0.5688530000000  0.5465730000000 1.0
C      1  0.4381060000000  0.5339230000000  0.5211720000000 1.0
C      1  0.5269700000000  0.4752720000000  0.4472580000000 1.0
C      1  0.4745860000000  0.4903060000000  0.5788380000000 1.0
C      1  0.4709460000000  0.4773380000000  0.4197190000000 1.0
C      1  0.4618890000000  0.5573350000000  0.4615240000000 1.0
C      1  0.4560000000000  0.5051900000000  0.5179600000000 1.0
C      1  0.5048910000000  0.4605790000000  0.5282930000000 1.0
C      1  0.5173480000000  0.4405140000000  0.5002700000000 1.0
C      1  0.5663770000000  0.5071690000000  0.5238250000000 1.0
C      1  0.5337180000000  0.5124280000000  0.5268640000000 1.0
C      1  0.4568360000000  0.4495870000000  0.5244270000000 1.0
C      1  0.4927050000000  0.5405500000000  0.4822510000000 1.0
C      1  0.4425980000000  0.5776530000000  0.5440220000000 1.0
C      1  0.4847000000000  0.4456900000000  0.5053280000000 1.0
C      1  0.4695790000000  0.4480940000000  0.4261800000000 1.0
C      1  0.4283880000000  0.5037210000000  0.4771920000000 1.0
C      1  0.5309300000000  0.5548000000000  0.4529280000000 1.0
C      1  0.5564350000000  0.5584290000000  0.5149230000000 1.0
C      1  0.4761730000000  0.5417650000000  0.5467700000000 1.0
C      1  0.5410400000000  0.4436860000000  0.5546170000000 1.0
C      1  0.5433120000000  0.5058570000000  0.4274430000000 1.0
C      1  0.4519940000000  0.5533480000000  0.5377390000000 1.0
C      1  0.5089500000000  0.4986930000000  0.4604000000000 1.0
C      1  0.4860380000000  0.5064950000000  0.4287060000000 1.0
C      1  0.4749560000000  0.4241760000000  0.4823190000000 1.0
C      1  0.5368750000000  0.4382590000000  0.4751810000000 1.0
C      1  0.4956060000000  0.4815320000000  0.4858920000000 1.0
C      1  0.5342950000000  0.5765770000000  0.5257400000000 1.0
C      1  0.5060340000000  0.5315940000000  0.4522750000000 1.0
C      1  0.5124380000000  0.4446250000000  0.5524530000000 1.0
C      1  0.5176380000000  0.5148550000000  0.4248990000000 1.0
C      1  0.4320110000000  0.4712670000000  0.5179580000000 1.0
C      1  0.5006240000000  0.5491720000000  0.5592060000000 1.0
C      1  0.4224970000000  0.4838070000000  0.4950930000000 1.0
C      1  0.4704200000000  0.4808940000000  0.4669750000000 1.0
C      1  0.4680530000000  0.4318180000000  0.4565540000000 1.0
C      1  0.4579610000000  0.4609970000000  0.4537930000000 1.0
C      1  0.5657440000000  0.5441720000000  0.4891580000000 1.0
C      1  0.5386770000000  0.4621330000000  0.5070160000000 1.0
C      1  0.5755980000000  0.5120160000000  0.4972180000000 1.0
C      1  0.5393960000000  0.5221390000000  0.5589090000000 1.0
C      1  0.4557450000000  0.4758620000000  0.5629080000000 1.0
C      1  0.5527780000000  0.5624230000000  0.4635450000000 1.0
C      1  0.5554240000000  0.4530760000000  0.5325080000000 1.0
C      1  0.5571240000000  0.5032000000000  0.4521500000000 1.0
C      1  0.5483530000000  0.5238760000000  0.4713580000000 1.0
C      1  0.5238770000000  0.5163210000000  0.4845950000000 1.0
C      1  0.5719220000000  0.4644350000000  0.5050160000000 1.0
C      1  0.4582090000000  0.5099990000000  0.4641640000000 1.0
C      1  0.4991120000000  0.5003040000000  0.5683940000000 1.0
C      1  0.4638210000000  0.4498010000000  0.5544520000000 1.0
C      1  0.4699320000000  0.4762980000000  0.5066370000000 1.0
C      1  0.5010960000000  0.4918210000000  0.5355130000000 1.0
C      1  0.4771710000000  0.5153030000000  0.5390550000000 1.0
C      1  0.4396810000000  0.4880470000000  0.5423770000000 1.0
C      1  0.4729680000000  0.5335710000000  0.4445860000000 1.0
C      1  0.5041910000000  0.5142210000000  0.5100460000000 1.0
C      1  0.5138570000000  0.5253750000000  0.5707420000000 1.0
C      1  0.5453430000000  0.4615180000000  0.4632420000000 1.0
C      1  0.4874490000000  0.4368960000000  0.5640260000000 1.0
C      1  0.4522260000000  0.5010010000000  0.4319160000000 1.0
C      1  0.4521650000000  0.5778550000000  0.4731780000000 1.0
C      1  0.4750130000000  0.5177740000000  0.4927350000000 1.0
C      1  0.5276770000000  0.4865310000000  0.4933950000000 1.0
C      1  0.5487190000000  0.5408310000000  0.5359980000000 1.0
C      1  0.5595750000000  0.4863530000000  0.4816020000000 1.0
END
