TITL C-2848504-8560-28 -0.00152387218761529 125000 -689.017324445101 0 0 127 (C1) n - 1
REM
REM in /home/bkarasulu/work/CARBON/AIRSS/Generating-Clusters/AIREBO/with-SteepDescent/Only-C1/SD-CG-opt/Try1-1.4A-POS3A/HFTN-CG
REM
REM
REM
REM
REM
REM ./C.cell (11c1c37f851c82e70ff6c80c92926a4b)
REM
REM compiler GCC version 9.2.1 20190827 (Red Hat 9.2.1-1)
REM options -cpp -mtune=generic -march=x86-64 -g -O0 -fpre-include=/usr/include/finclude/math-vector-fortran.h
REM seed 849366735 -288682354 99545364 -694600728 -969762732 697905961 1172016781 -2085538196 229180284 -1158074257 -777615672 1606289152 1163819460 114207961 1174337604 1763571007 -1869807609 224353322 1901869735 -1394671258 -1051861330 -1933501574 962458851 -2075651710 1933155643 1562407761 -322272957 1272494054 75450925 293975947 -418570511 -1094920099 -836122621
REM
CELL 1.54180   50.00000   50.00000   50.00000   90.00000   90.00000   90.00000
LATT -1
SFAC C  
C      1  0.5469600000000  0.5218880000000  0.4352960000000 1.0
C      1  0.4582100000000  0.4580550000000  0.5859400000000 1.0
C      1  0.5633040000000  0.4974880000000  0.5680850000000 1.0
C      1  0.4380180000000  0.4515590000000  0.5241600000000 1.0
C      1  0.4934190000000  0.4392220000000  0.4673710000000 1.0
C      1  0.4646810000000  0.5204740000000  0.4225460000000 1.0
C      1  0.5984810000000  0.4705570000000  0.4756360000000 1.0
C      1  0.4702650000000  0.4820200000000  0.4134530000000 1.0
C      1  0.4932510000000  0.5030600000000  0.4163550000000 1.0
C      1  0.5959830000000  0.5162130000000  0.5303830000000 1.0
C      1  0.4805550000000  0.3904890000000  0.5325460000000 1.0
C      1  0.4869340000000  0.4597070000000  0.5707500000000 1.0
C      1  0.4065420000000  0.4983650000000  0.5246740000000 1.0
C      1  0.5563940000000  0.4298250000000  0.4991590000000 1.0
C      1  0.4507240000000  0.5837430000000  0.4567640000000 1.0
C      1  0.5589470000000  0.4688830000000  0.4754840000000 1.0
C      1  0.5801790000000  0.4439190000000  0.5189820000000 1.0
C      1  0.5090300000000  0.4148840000000  0.4815870000000 1.0
C      1  0.4358810000000  0.5145630000000  0.4398060000000 1.0
C      1  0.5181260000000  0.6024440000000  0.4758360000000 1.0
C      1  0.4392060000000  0.4731420000000  0.5794040000000 1.0
C      1  0.4154820000000  0.4478400000000  0.4992140000000 1.0
C      1  0.4312010000000  0.5041120000000  0.4811680000000 1.0
C      1  0.4507910000000  0.5223250000000  0.5829970000000 1.0
C      1  0.5324840000000  0.5644680000000  0.4565380000000 1.0
C      1  0.5813560000000  0.5665220000000  0.5113150000000 1.0
C      1  0.3860550000000  0.5011430000000  0.5424930000000 1.0
C      1  0.4982180000000  0.4651770000000  0.4363070000000 1.0
C      1  0.5911890000000  0.4974660000000  0.5039480000000 1.0
C      1  0.4830870000000  0.5237670000000  0.5228590000000 1.0
C      1  0.4857920000000  0.4862990000000  0.5919620000000 1.0
C      1  0.5351470000000  0.4784900000000  0.5699580000000 1.0
C      1  0.4867020000000  0.4689900000000  0.5156320000000 1.0
C      1  0.4777450000000  0.5704760000000  0.4652070000000 1.0
C      1  0.5607730000000  0.5038650000000  0.5066190000000 1.0
C      1  0.5060830000000  0.4287190000000  0.5189420000000 1.0
C      1  0.4192030000000  0.5399040000000  0.4485520000000 1.0
C      1  0.5045320000000  0.5271410000000  0.4591550000000 1.0
C      1  0.5055720000000  0.5262470000000  0.4897080000000 1.0
C      1  0.4910510000000  0.6010070000000  0.4721050000000 1.0
C      1  0.5530060000000  0.5267120000000  0.4867110000000 1.0
C      1  0.5326820000000  0.4331570000000  0.4512540000000 1.0
C      1  0.5629460000000  0.5590800000000  0.4899900000000 1.0
C      1  0.5308900000000  0.4499010000000  0.5092870000000 1.0
C      1  0.4447450000000  0.5328380000000  0.4888310000000 1.0
C      1  0.5091490000000  0.5536680000000  0.4471420000000 1.0
C      1  0.4911920000000  0.4015890000000  0.5048070000000 1.0
C      1  0.5697450000000  0.5651570000000  0.5408740000000 1.0
C      1  0.4835310000000  0.4419380000000  0.4971810000000 1.0
C      1  0.4847110000000  0.4800110000000  0.4851220000000 1.0
C      1  0.4519280000000  0.5587800000000  0.5222270000000 1.0
C      1  0.4725950000000  0.5925760000000  0.4977530000000 1.0
C      1  0.5355690000000  0.4118000000000  0.5200150000000 1.0
C      1  0.5130630000000  0.4670060000000  0.5275900000000 1.0
C      1  0.4435450000000  0.4835750000000  0.4284140000000 1.0
C      1  0.5544940000000  0.5510120000000  0.4457720000000 1.0
C      1  0.4541520000000  0.4569110000000  0.4962760000000 1.0
C      1  0.4265910000000  0.5598160000000  0.4987790000000 1.0
C      1  0.4705720000000  0.5507040000000  0.4158220000000 1.0
C      1  0.4648630000000  0.4080380000000  0.4869350000000 1.0
C      1  0.4407950000000  0.4998740000000  0.5644950000000 1.0
C      1  0.4775100000000  0.5153340000000  0.4509000000000 1.0
C      1  0.5769160000000  0.4448760000000  0.4765950000000 1.0
C      1  0.5073190000000  0.5039770000000  0.5135720000000 1.0
C      1  0.4720050000000  0.5586580000000  0.5388950000000 1.0
C      1  0.5303810000000  0.5736840000000  0.4892170000000 1.0
C      1  0.5377500000000  0.4160430000000  0.4742730000000 1.0
C      1  0.4555500000000  0.4873880000000  0.4926110000000 1.0
C      1  0.4688560000000  0.5114820000000  0.5491740000000 1.0
C      1  0.4852110000000  0.4844760000000  0.5522590000000 1.0
C      1  0.5531170000000  0.4520170000000  0.5666780000000 1.0
C      1  0.4684670000000  0.4138340000000  0.5446160000000 1.0
C      1  0.5141640000000  0.4785120000000  0.5930220000000 1.0
C      1  0.4679830000000  0.4093550000000  0.4595670000000 1.0
C      1  0.5976760000000  0.5354990000000  0.4642740000000 1.0
C      1  0.5428230000000  0.5729690000000  0.5426970000000 1.0
C      1  0.4336920000000  0.5446830000000  0.5803400000000 1.0
C      1  0.4043920000000  0.4957390000000  0.4975140000000 1.0
C      1  0.4348310000000  0.4983210000000  0.5332520000000 1.0
C      1  0.5608780000000  0.4813100000000  0.5396210000000 1.0
C      1  0.4680260000000  0.5388780000000  0.4704500000000 1.0
C      1  0.4984330000000  0.5526760000000  0.5235030000000 1.0
C      1  0.4971720000000  0.5691830000000  0.4950900000000 1.0
C      1  0.5277570000000  0.5376300000000  0.5322970000000 1.0
C      1  0.5928250000000  0.5436170000000  0.5296480000000 1.0
C      1  0.5218680000000  0.5046570000000  0.4190090000000 1.0
C      1  0.5288970000000  0.5416580000000  0.5005430000000 1.0
C      1  0.4369090000000  0.4210700000000  0.4986180000000 1.0
C      1  0.4414990000000  0.4539930000000  0.4429830000000 1.0
C      1  0.5341960000000  0.4791860000000  0.4265190000000 1.0
C      1  0.4709540000000  0.4370100000000  0.4437300000000 1.0
C      1  0.5004360000000  0.5371500000000  0.5816090000000 1.0
C      1  0.5704670000000  0.4538300000000  0.5430110000000 1.0
C      1  0.5445180000000  0.4781150000000  0.5002150000000 1.0
C      1  0.4862900000000  0.5644460000000  0.4331910000000 1.0
C      1  0.5264720000000  0.6140480000000  0.5227420000000 1.0
C      1  0.4424070000000  0.4405190000000  0.4712610000000 1.0
C      1  0.4546220000000  0.5132700000000  0.5121540000000 1.0
C      1  0.4182160000000  0.5549010000000  0.5595960000000 1.0
C      1  0.5504500000000  0.4832280000000  0.4523440000000 1.0
C      1  0.4218050000000  0.4868690000000  0.4543510000000 1.0
C      1  0.5056900000000  0.5089600000000  0.5639810000000 1.0
C      1  0.4600530000000  0.4756180000000  0.5311240000000 1.0
C      1  0.5332820000000  0.5874700000000  0.5201920000000 1.0
C      1  0.5485660000000  0.5125460000000  0.5342110000000 1.0
C      1  0.5758780000000  0.5514490000000  0.4632870000000 1.0
C      1  0.4770260000000  0.5149790000000  0.5909690000000 1.0
C      1  0.5894430000000  0.5044440000000  0.5552170000000 1.0
C      1  0.5321930000000  0.5262460000000  0.5770180000000 1.0
C      1  0.4776840000000  0.4524550000000  0.4152060000000 1.0
C      1  0.5266800000000  0.4505340000000  0.4272220000000 1.0
C      1  0.4449700000000  0.4215820000000  0.5316890000000 1.0
C      1  0.5228190000000  0.4930800000000  0.5418150000000 1.0
C      1  0.5950110000000  0.5036300000000  0.4705400000000 1.0
C      1  0.4150160000000  0.5563710000000  0.4669870000000 1.0
C      1  0.5173030000000  0.4616200000000  0.4642200000000 1.0
C      1  0.4107960000000  0.4699080000000  0.4819160000000 1.0
C      1  0.5781420000000  0.5093570000000  0.4415470000000 1.0
C      1  0.5736080000000  0.4828280000000  0.4274440000000 1.0
C      1  0.4875660000000  0.4870080000000  0.4560850000000 1.0
C      1  0.4454650000000  0.5879830000000  0.4960070000000 1.0
C      1  0.4897690000000  0.4340740000000  0.5485530000000 1.0
C      1  0.5333710000000  0.5101520000000  0.4641750000000 1.0
C      1  0.4222860000000  0.5585220000000  0.5324950000000 1.0
C      1  0.5219560000000  0.5542060000000  0.5606020000000 1.0
C      1  0.5957200000000  0.4638350000000  0.5062660000000 1.0
C      1  0.5176460000000  0.4884550000000  0.4851160000000 1.0
END
