TITL C-2847945-6269-17 -0.003413305866416 125000 -457.801853646461 0 0 82 (C1) n - 1
REM
REM in /home/bkarasulu/work/CARBON/AIRSS/Generating-Clusters/AIREBO/with-SteepDescent/Only-C1/SD-CG-opt/Try1-1.4A-POS3A/HFTN-CG
REM
REM
REM
REM
REM
REM ./C.cell (11c1c37f851c82e70ff6c80c92926a4b)
REM
REM compiler GCC version 9.2.1 20190827 (Red Hat 9.2.1-1)
REM options -cpp -mtune=generic -march=x86-64 -g -O0 -fpre-include=/usr/include/finclude/math-vector-fortran.h
REM seed 1298772591 -773256512 331675366 595037063 1377229532 958751287 -932217514 -771294619 -853246036 878629555 1867368544 310741816 -1702008084 -241617332 -1332720307 203308480 -1089744479 424043800 -1290924210 -1468360429 653658826 -1836584181 130981179 -358686409 -1889662392 -1771928868 -679598581 -2040045806 -1184205064 -776074666 -1106187633 106352985 -650589787
REM
CELL 1.54180   50.00000   50.00000   50.00000   90.00000   90.00000   90.00000
LATT -1
SFAC C  
C      1  0.5330290000000  0.4289500000000  0.4912130000000 1.0
C      1  0.4872960000000  0.4431970000000  0.5489660000000 1.0
C      1  0.5467570000000  0.4748500000000  0.4453910000000 1.0
C      1  0.5573090000000  0.4355720000000  0.4786140000000 1.0
C      1  0.5385590000000  0.4492840000000  0.5611230000000 1.0
C      1  0.4949530000000  0.5658370000000  0.5520540000000 1.0
C      1  0.4477010000000  0.4574410000000  0.4515940000000 1.0
C      1  0.5147720000000  0.4742410000000  0.4568790000000 1.0
C      1  0.4443600000000  0.4658210000000  0.5106480000000 1.0
C      1  0.5210580000000  0.5799500000000  0.5253160000000 1.0
C      1  0.4291410000000  0.4809040000000  0.4507420000000 1.0
C      1  0.4573830000000  0.4475140000000  0.5536380000000 1.0
C      1  0.4468880000000  0.4159560000000  0.5185230000000 1.0
C      1  0.4451000000000  0.5534950000000  0.4907860000000 1.0
C      1  0.4716930000000  0.5723710000000  0.5338760000000 1.0
C      1  0.4331180000000  0.5297920000000  0.4362940000000 1.0
C      1  0.4307480000000  0.4735550000000  0.4839270000000 1.0
C      1  0.4305370000000  0.4914560000000  0.5266480000000 1.0
C      1  0.5689970000000  0.4856010000000  0.5412790000000 1.0
C      1  0.4800670000000  0.5165110000000  0.5341720000000 1.0
C      1  0.5766780000000  0.5146050000000  0.4683440000000 1.0
C      1  0.5788870000000  0.5064630000000  0.5577700000000 1.0
C      1  0.4932100000000  0.5713700000000  0.4821330000000 1.0
C      1  0.5750570000000  0.5160650000000  0.4970800000000 1.0
C      1  0.5403230000000  0.5512650000000  0.4631200000000 1.0
C      1  0.4652470000000  0.5348140000000  0.5228420000000 1.0
C      1  0.4899110000000  0.4862660000000  0.4969820000000 1.0
C      1  0.4442220000000  0.5551030000000  0.5375620000000 1.0
C      1  0.4573080000000  0.5242700000000  0.5748960000000 1.0
C      1  0.5332450000000  0.5487150000000  0.4330050000000 1.0
C      1  0.5039460000000  0.5499180000000  0.4331070000000 1.0
C      1  0.5020580000000  0.4672340000000  0.5298730000000 1.0
C      1  0.5134890000000  0.4255120000000  0.4490530000000 1.0
C      1  0.5107830000000  0.4216720000000  0.4768000000000 1.0
C      1  0.5418510000000  0.5807920000000  0.5063040000000 1.0
C      1  0.4754230000000  0.4491800000000  0.4400960000000 1.0
C      1  0.4061820000000  0.4798940000000  0.4353000000000 1.0
C      1  0.5030320000000  0.4502750000000  0.4408770000000 1.0
C      1  0.5203540000000  0.4358640000000  0.5458650000000 1.0
C      1  0.5089390000000  0.4893350000000  0.5944350000000 1.0
C      1  0.5190300000000  0.4933280000000  0.5436050000000 1.0
C      1  0.5664340000000  0.4568170000000  0.4631520000000 1.0
C      1  0.4281400000000  0.5425330000000  0.5112570000000 1.0
C      1  0.5737860000000  0.4884600000000  0.4573630000000 1.0
C      1  0.5186770000000  0.5334050000000  0.4754030000000 1.0
C      1  0.5874920000000  0.5360740000000  0.3760130000000 1.0
C      1  0.4630050000000  0.4339010000000  0.4659100000000 1.0
C      1  0.4892880000000  0.5434040000000  0.4631640000000 1.0
C      1  0.5013370000000  0.5049980000000  0.5170140000000 1.0
C      1  0.5193860000000  0.5516490000000  0.5433190000000 1.0
C      1  0.4775600000000  0.4596510000000  0.5071650000000 1.0
C      1  0.4617610000000  0.5628860000000  0.4723830000000 1.0
C      1  0.5449840000000  0.4748560000000  0.5515980000000 1.0
C      1  0.4825920000000  0.4309660000000  0.4893950000000 1.0
C      1  0.5538900000000  0.5272920000000  0.5151470000000 1.0
C      1  0.4925470000000  0.5745400000000  0.5125740000000 1.0
C      1  0.5685220000000  0.4901730000000  0.5137570000000 1.0
C      1  0.4737000000000  0.5143010000000  0.4600060000000 1.0
C      1  0.4261820000000  0.5139850000000  0.5091460000000 1.0
C      1  0.5236110000000  0.5221210000000  0.5045340000000 1.0
C      1  0.5407580000000  0.4931060000000  0.4994910000000 1.0
C      1  0.4740540000000  0.4118410000000  0.5119210000000 1.0
C      1  0.5746900000000  0.5388890000000  0.3987100000000 1.0
C      1  0.4904080000000  0.4137440000000  0.5341100000000 1.0
C      1  0.4401220000000  0.5441560000000  0.5663540000000 1.0
C      1  0.5606610000000  0.5392680000000  0.4218360000000 1.0
C      1  0.5268640000000  0.5029630000000  0.4701570000000 1.0
C      1  0.4791340000000  0.5122430000000  0.5616340000000 1.0
C      1  0.4284670000000  0.5041310000000  0.4828320000000 1.0
C      1  0.5244610000000  0.4677970000000  0.4889360000000 1.0
C      1  0.5211000000000  0.6027450000000  0.5422030000000 1.0
C      1  0.5159770000000  0.5847560000000  0.4726120000000 1.0
C      1  0.4885080000000  0.4920020000000  0.4691620000000 1.0
C      1  0.5344790000000  0.5243020000000  0.5429090000000 1.0
C      1  0.5595920000000  0.5255190000000  0.5630860000000 1.0
C      1  0.5654980000000  0.5360000000000  0.4527660000000 1.0
C      1  0.4433730000000  0.5114930000000  0.4549990000000 1.0
C      1  0.5011660000000  0.4979510000000  0.5698260000000 1.0
C      1  0.4428330000000  0.4413870000000  0.5298820000000 1.0
C      1  0.4286080000000  0.4861600000000  0.5543550000000 1.0
C      1  0.4441180000000  0.4676060000000  0.5684170000000 1.0
C      1  0.5235970000000  0.4456910000000  0.5147690000000 1.0
END
