TITL C-2848499-1157-468 0.00246086230219796 125000 -622.808289164102 0 0 117 (C1) n - 1
REM
REM in /home/bkarasulu/work/CARBON/AIRSS/Generating-Clusters/AIREBO/with-SteepDescent/Only-C1/SD-CG-opt/Try1-1.4A-POS3A/HFTN-CG
REM
REM
REM
REM
REM
REM ./C.cell (11c1c37f851c82e70ff6c80c92926a4b)
REM
REM compiler GCC version 9.2.1 20190827 (Red Hat 9.2.1-1)
REM options -cpp -mtune=generic -march=x86-64 -g -O0 -fpre-include=/usr/include/finclude/math-vector-fortran.h
REM seed 1312637509 1713725643 497860038 -2138782704 1019863271 552260554 910245884 1967382908 -1990425180 1786674443 1236215011 -1138990364 1438800833 1568582765 -1281125330 -468655088 1604855022 502639869 -1547649828 442551912 -1919044990 1416685646 -928511133 -809214111 -252606262 640508461 -1691083906 -215642917 1226056583 -1485635454 -1453596869 256048349 -865735268
REM
CELL 1.54180   50.00000   50.00000   50.00000   90.00000   90.00000   90.00000
LATT -1
SFAC C  
C      1  0.5662300000000  0.5499060000000  0.4465240000000 1.0
C      1  0.5842200000000  0.4750530000000  0.5351710000000 1.0
C      1  0.5377870000000  0.4272260000000  0.5191060000000 1.0
C      1  0.4146530000000  0.5011630000000  0.5102760000000 1.0
C      1  0.5824690000000  0.5063340000000  0.5445780000000 1.0
C      1  0.5529210000000  0.5409070000000  0.4982970000000 1.0
C      1  0.5178440000000  0.6011480000000  0.5254340000000 1.0
C      1  0.4539010000000  0.5102490000000  0.5496100000000 1.0
C      1  0.4455100000000  0.4183290000000  0.4876330000000 1.0
C      1  0.5697560000000  0.5566450000000  0.5426900000000 1.0
C      1  0.5642740000000  0.4636320000000  0.4393770000000 1.0
C      1  0.5427370000000  0.5179360000000  0.4184350000000 1.0
C      1  0.4652490000000  0.4624440000000  0.4823160000000 1.0
C      1  0.4940820000000  0.5341670000000  0.4211800000000 1.0
C      1  0.4883260000000  0.5047880000000  0.5691560000000 1.0
C      1  0.3981850000000  0.5299380000000  0.5077720000000 1.0
C      1  0.5711920000000  0.4822540000000  0.4586580000000 1.0
C      1  0.5012990000000  0.4274010000000  0.4394000000000 1.0
C      1  0.4424140000000  0.5783870000000  0.5108860000000 1.0
C      1  0.4920640000000  0.3948580000000  0.4901580000000 1.0
C      1  0.4432470000000  0.5364190000000  0.5373070000000 1.0
C      1  0.4062390000000  0.5505610000000  0.4923180000000 1.0
C      1  0.5505060000000  0.5724160000000  0.4582320000000 1.0
C      1  0.5437340000000  0.5605570000000  0.5489580000000 1.0
C      1  0.4148600000000  0.5242130000000  0.5353330000000 1.0
C      1  0.4927550000000  0.5989740000000  0.4540810000000 1.0
C      1  0.4728100000000  0.5799660000000  0.5270430000000 1.0
C      1  0.4283930000000  0.4681850000000  0.4681000000000 1.0
C      1  0.4394110000000  0.5074990000000  0.5802450000000 1.0
C      1  0.4835890000000  0.4313790000000  0.5564690000000 1.0
C      1  0.5406380000000  0.5706630000000  0.4903210000000 1.0
C      1  0.5873210000000  0.5410930000000  0.4937260000000 1.0
C      1  0.5613940000000  0.5394900000000  0.4201010000000 1.0
C      1  0.5269790000000  0.5201820000000  0.4909370000000 1.0
C      1  0.5080360000000  0.5477360000000  0.4846550000000 1.0
C      1  0.5491050000000  0.5057310000000  0.4695160000000 1.0
C      1  0.4866790000000  0.5470300000000  0.5811350000000 1.0
C      1  0.5257170000000  0.4269320000000  0.4588580000000 1.0
C      1  0.5718150000000  0.5128140000000  0.5015430000000 1.0
C      1  0.5222290000000  0.5950100000000  0.4645560000000 1.0
C      1  0.4782550000000  0.4269540000000  0.4548980000000 1.0
C      1  0.5140140000000  0.5417380000000  0.5896040000000 1.0
C      1  0.4795590000000  0.5479770000000  0.5032430000000 1.0
C      1  0.4543530000000  0.4465550000000  0.4293770000000 1.0
C      1  0.4940030000000  0.5117070000000  0.4947710000000 1.0
C      1  0.5193100000000  0.5634670000000  0.4573920000000 1.0
C      1  0.5160350000000  0.5932990000000  0.4973610000000 1.0
C      1  0.5179140000000  0.4621120000000  0.5571060000000 1.0
C      1  0.4299420000000  0.4985040000000  0.4850260000000 1.0
C      1  0.5545040000000  0.5093880000000  0.5681300000000 1.0
C      1  0.4290180000000  0.4825210000000  0.5595240000000 1.0
C      1  0.4666300000000  0.5408060000000  0.4356780000000 1.0
C      1  0.4869640000000  0.5797160000000  0.4967950000000 1.0
C      1  0.4859470000000  0.5618070000000  0.5527720000000 1.0
C      1  0.5169760000000  0.5436030000000  0.4348730000000 1.0
C      1  0.5351850000000  0.4750630000000  0.4743220000000 1.0
C      1  0.4857030000000  0.4368350000000  0.4832240000000 1.0
C      1  0.5071810000000  0.4864560000000  0.4802230000000 1.0
C      1  0.5206790000000  0.5576930000000  0.5146120000000 1.0
C      1  0.4480100000000  0.4410030000000  0.4623250000000 1.0
C      1  0.4302500000000  0.4506890000000  0.5476420000000 1.0
C      1  0.5392820000000  0.4659160000000  0.5068280000000 1.0
C      1  0.4571440000000  0.4794120000000  0.5406690000000 1.0
C      1  0.5268470000000  0.4766450000000  0.4413660000000 1.0
C      1  0.4490770000000  0.5155120000000  0.4303030000000 1.0
C      1  0.4936700000000  0.5169380000000  0.5424270000000 1.0
C      1  0.5139850000000  0.5747860000000  0.5432330000000 1.0
C      1  0.4613330000000  0.5053700000000  0.4905050000000 1.0
C      1  0.4945670000000  0.4780830000000  0.5702670000000 1.0
C      1  0.5219570000000  0.5357370000000  0.5408280000000 1.0
C      1  0.4104420000000  0.5172300000000  0.5655520000000 1.0
C      1  0.5619570000000  0.4402740000000  0.5016040000000 1.0
C      1  0.5284900000000  0.5170790000000  0.4486000000000 1.0
C      1  0.5519950000000  0.4984720000000  0.5367970000000 1.0
C      1  0.4884270000000  0.5335780000000  0.4607530000000 1.0
C      1  0.4957350000000  0.5065050000000  0.4149340000000 1.0
C      1  0.5257340000000  0.4356560000000  0.5768300000000 1.0
C      1  0.5313120000000  0.5285930000000  0.5727260000000 1.0
C      1  0.4328530000000  0.5595040000000  0.4929510000000 1.0
C      1  0.4986570000000  0.5054130000000  0.4555750000000 1.0
C      1  0.4749880000000  0.5400970000000  0.5317110000000 1.0
C      1  0.5549710000000  0.4588720000000  0.5362220000000 1.0
C      1  0.5019110000000  0.4919540000000  0.5207360000000 1.0
C      1  0.4709570000000  0.4799280000000  0.5109240000000 1.0
C      1  0.5106330000000  0.4592290000000  0.5238890000000 1.0
C      1  0.5448050000000  0.4777400000000  0.5617960000000 1.0
C      1  0.4197290000000  0.4757330000000  0.5271910000000 1.0
C      1  0.5437550000000  0.4322110000000  0.5509530000000 1.0
C      1  0.5307330000000  0.5099360000000  0.5221580000000 1.0
C      1  0.5035250000000  0.4507170000000  0.4214430000000 1.0
C      1  0.4751780000000  0.5832220000000  0.4685210000000 1.0
C      1  0.4848260000000  0.4056300000000  0.5350240000000 1.0
C      1  0.4544480000000  0.4327980000000  0.5390090000000 1.0
C      1  0.4732630000000  0.4174360000000  0.5072740000000 1.0
C      1  0.4449410000000  0.5668520000000  0.5398400000000 1.0
C      1  0.4605370000000  0.5595700000000  0.4607190000000 1.0
C      1  0.5354650000000  0.4466720000000  0.4329380000000 1.0
C      1  0.5217170000000  0.4941590000000  0.4171340000000 1.0
C      1  0.4785880000000  0.4482550000000  0.5207100000000 1.0
C      1  0.4723720000000  0.4910630000000  0.4261760000000 1.0
C      1  0.4747330000000  0.4613750000000  0.5582740000000 1.0
C      1  0.4373400000000  0.4342160000000  0.5119960000000 1.0
C      1  0.4552950000000  0.5384400000000  0.4852650000000 1.0
C      1  0.5128960000000  0.4217480000000  0.5418120000000 1.0
C      1  0.4762460000000  0.4611150000000  0.4205270000000 1.0
C      1  0.4698890000000  0.5222440000000  0.5834710000000 1.0
C      1  0.5805250000000  0.4661190000000  0.5064390000000 1.0
C      1  0.4435450000000  0.4951140000000  0.4540490000000 1.0
C      1  0.5487380000000  0.4441130000000  0.4705140000000 1.0
C      1  0.5788040000000  0.4868390000000  0.4882530000000 1.0
C      1  0.5820510000000  0.5333850000000  0.5266100000000 1.0
C      1  0.5119590000000  0.4335590000000  0.5016080000000 1.0
C      1  0.4363440000000  0.4624200000000  0.5006540000000 1.0
C      1  0.5773030000000  0.4280490000000  0.4689370000000 1.0
C      1  0.5163380000000  0.4071640000000  0.4806160000000 1.0
C      1  0.4736440000000  0.4836190000000  0.4593280000000 1.0
C      1  0.5725350000000  0.5301930000000  0.4655400000000 1.0
END
