TITL C-2848494-1720-263 0.00789621355945478 125000 -868.648310334287 0 0 161 (C1) n - 1
REM
REM in /home/bkarasulu/work/CARBON/AIRSS/Generating-Clusters/AIREBO/with-SteepDescent/Only-C1/SD-CG-opt/Try1-1.4A-POS3A/HFTN-CG
REM
REM
REM
REM
REM
REM ./C.cell (11c1c37f851c82e70ff6c80c92926a4b)
REM
REM compiler GCC version 9.2.1 20190827 (Red Hat 9.2.1-1)
REM options -cpp -mtune=generic -march=x86-64 -g -O0 -fpre-include=/usr/include/finclude/math-vector-fortran.h
REM seed -1799848371 2121731784 2119621538 -1928887010 -504927359 659716129 -1832565299 -1402097109 -132302919 678837345 708679718 -958176359 420586363 -1794328205 1792908526 907092519 -1501471437 -1713030246 149702181 2030033023 946008739 -1639017578 -1891472774 25617568 557084884 1821641393 1561135349 -407790739 1359993784 -285036336 -1421202623 495838887 1230502039
REM
CELL 1.54180   50.00000   50.00000   50.00000   90.00000   90.00000   90.00000
LATT -1
SFAC C  
C      1  0.4815780000000  0.4977840000000  0.4386140000000 1.0
C      1  0.5877930000000  0.4524130000000  0.5653090000000 1.0
C      1  0.5536100000000  0.4675900000000  0.4623720000000 1.0
C      1  0.4729450000000  0.4781880000000  0.5078330000000 1.0
C      1  0.4394310000000  0.4668620000000  0.5702550000000 1.0
C      1  0.5302160000000  0.4887780000000  0.4867310000000 1.0
C      1  0.5408790000000  0.5974190000000  0.5153850000000 1.0
C      1  0.5056160000000  0.4662580000000  0.4425760000000 1.0
C      1  0.5586470000000  0.5239420000000  0.4134570000000 1.0
C      1  0.4840870000000  0.5207440000000  0.3562500000000 1.0
C      1  0.4476310000000  0.5328630000000  0.5500850000000 1.0
C      1  0.5212090000000  0.5163460000000  0.5636000000000 1.0
C      1  0.4432980000000  0.5305670000000  0.4699030000000 1.0
C      1  0.4679900000000  0.3843840000000  0.5298930000000 1.0
C      1  0.5608780000000  0.5465180000000  0.4956470000000 1.0
C      1  0.5890930000000  0.4457530000000  0.4919110000000 1.0
C      1  0.5565170000000  0.4199600000000  0.5159480000000 1.0
C      1  0.5459500000000  0.5489400000000  0.4039250000000 1.0
C      1  0.5771030000000  0.5579380000000  0.4691940000000 1.0
C      1  0.4289990000000  0.5055440000000  0.4882240000000 1.0
C      1  0.5471630000000  0.3946240000000  0.4952940000000 1.0
C      1  0.5021920000000  0.4849200000000  0.3904080000000 1.0
C      1  0.5806280000000  0.4840360000000  0.5606830000000 1.0
C      1  0.5235370000000  0.4137240000000  0.5108970000000 1.0
C      1  0.4566890000000  0.4670400000000  0.4047960000000 1.0
C      1  0.5025360000000  0.5771420000000  0.4271540000000 1.0
C      1  0.6056710000000  0.4857460000000  0.5107650000000 1.0
C      1  0.4249150000000  0.5244150000000  0.4283550000000 1.0
C      1  0.4839780000000  0.4609300000000  0.3952590000000 1.0
C      1  0.4883490000000  0.4339160000000  0.5057350000000 1.0
C      1  0.4872310000000  0.4285690000000  0.5701490000000 1.0
C      1  0.5135690000000  0.5250580000000  0.4853080000000 1.0
C      1  0.3957470000000  0.5229830000000  0.4747550000000 1.0
C      1  0.5763250000000  0.4351720000000  0.5471880000000 1.0
C      1  0.5055360000000  0.4046740000000  0.5601250000000 1.0
C      1  0.4683570000000  0.4485130000000  0.5500810000000 1.0
C      1  0.5350100000000  0.5587120000000  0.5078210000000 1.0
C      1  0.4620490000000  0.5325890000000  0.5808990000000 1.0
C      1  0.4281080000000  0.4602800000000  0.5040490000000 1.0
C      1  0.3973820000000  0.4750070000000  0.5347930000000 1.0
C      1  0.4780380000000  0.4940590000000  0.6162990000000 1.0
C      1  0.5187090000000  0.5536770000000  0.4165850000000 1.0
C      1  0.5287330000000  0.4941030000000  0.5202820000000 1.0
C      1  0.4971810000000  0.5338150000000  0.4052070000000 1.0
C      1  0.5733190000000  0.5066640000000  0.4373470000000 1.0
C      1  0.4662660000000  0.5006910000000  0.5919760000000 1.0
C      1  0.5418710000000  0.4220970000000  0.4765870000000 1.0
C      1  0.5677390000000  0.4384020000000  0.4707560000000 1.0
C      1  0.4375580000000  0.5637140000000  0.5435730000000 1.0
C      1  0.4208670000000  0.4982560000000  0.4355810000000 1.0
C      1  0.4404780000000  0.4471740000000  0.5329100000000 1.0
C      1  0.6009260000000  0.4712670000000  0.4865820000000 1.0
C      1  0.5778780000000  0.4540000000000  0.4429890000000 1.0
C      1  0.5714430000000  0.5881060000000  0.5191800000000 1.0
C      1  0.5501780000000  0.4526710000000  0.5227840000000 1.0
C      1  0.4895360000000  0.5368420000000  0.4379970000000 1.0
C      1  0.4008430000000  0.5027390000000  0.5345140000000 1.0
C      1  0.5873050000000  0.5139080000000  0.5597740000000 1.0
C      1  0.3954380000000  0.4621080000000  0.5076870000000 1.0
C      1  0.4769820000000  0.4341370000000  0.4574130000000 1.0
C      1  0.4478900000000  0.4912260000000  0.5478530000000 1.0
C      1  0.5452930000000  0.4637200000000  0.4087340000000 1.0
C      1  0.5695370000000  0.4958660000000  0.4855540000000 1.0
C      1  0.5124910000000  0.4125010000000  0.4641890000000 1.0
C      1  0.5328970000000  0.4758640000000  0.3870310000000 1.0
C      1  0.5189860000000  0.4398910000000  0.5733370000000 1.0
C      1  0.5722870000000  0.5309180000000  0.5385600000000 1.0
C      1  0.3838710000000  0.4753260000000  0.4792890000000 1.0
C      1  0.4552820000000  0.5651520000000  0.5719430000000 1.0
C      1  0.4702870000000  0.6097420000000  0.5091120000000 1.0
C      1  0.5120680000000  0.4670700000000  0.4754970000000 1.0
C      1  0.4925040000000  0.5331700000000  0.5202790000000 1.0
C      1  0.4757390000000  0.4027070000000  0.5140970000000 1.0
C      1  0.5547200000000  0.4693110000000  0.4963260000000 1.0
C      1  0.5482090000000  0.5705590000000  0.4592190000000 1.0
C      1  0.4928140000000  0.5144490000000  0.3798370000000 1.0
C      1  0.4908410000000  0.4078260000000  0.4840630000000 1.0
C      1  0.5559310000000  0.4828630000000  0.5373320000000 1.0
C      1  0.5098910000000  0.5385470000000  0.6077550000000 1.0
C      1  0.4077520000000  0.5906570000000  0.5136560000000 1.0
C      1  0.5007670000000  0.4784120000000  0.6160390000000 1.0
C      1  0.4950580000000  0.5984780000000  0.5279780000000 1.0
C      1  0.5401550000000  0.5391160000000  0.5462980000000 1.0
C      1  0.5835890000000  0.4961410000000  0.5226780000000 1.0
C      1  0.4727280000000  0.4730830000000  0.5732060000000 1.0
C      1  0.5142750000000  0.6070600000000  0.5012690000000 1.0
C      1  0.4966550000000  0.4388200000000  0.4075330000000 1.0
C      1  0.5650760000000  0.5416740000000  0.4448720000000 1.0
C      1  0.5188750000000  0.4699800000000  0.5896300000000 1.0
C      1  0.4345160000000  0.4769050000000  0.4245760000000 1.0
C      1  0.4690810000000  0.5696500000000  0.4282150000000 1.0
C      1  0.4433950000000  0.4513150000000  0.4441220000000 1.0
C      1  0.4851460000000  0.5107260000000  0.4869820000000 1.0
C      1  0.5024570000000  0.4268240000000  0.4388150000000 1.0
C      1  0.5252540000000  0.5288080000000  0.5170000000000 1.0
C      1  0.4613430000000  0.5231340000000  0.4442750000000 1.0
C      1  0.5547830000000  0.4890620000000  0.5912450000000 1.0
C      1  0.5250550000000  0.5813930000000  0.4523020000000 1.0
C      1  0.5247890000000  0.4118420000000  0.5420610000000 1.0
C      1  0.5664330000000  0.4755820000000  0.4252330000000 1.0
C      1  0.5475810000000  0.5706760000000  0.5360040000000 1.0
C      1  0.4441140000000  0.5798290000000  0.4809890000000 1.0
C      1  0.4835360000000  0.4847450000000  0.4699590000000 1.0
C      1  0.4832390000000  0.5565690000000  0.4990640000000 1.0
C      1  0.4308510000000  0.5731880000000  0.5116030000000 1.0
C      1  0.4556440000000  0.4381720000000  0.5798910000000 1.0
C      1  0.4423630000000  0.4293920000000  0.5037030000000 1.0
C      1  0.4750930000000  0.4546020000000  0.4832780000000 1.0
C      1  0.5252870000000  0.5625760000000  0.5659110000000 1.0
C      1  0.5306630000000  0.5242510000000  0.6197960000000 1.0
C      1  0.5315470000000  0.5131280000000  0.4647160000000 1.0
C      1  0.3702630000000  0.4484680000000  0.4891980000000 1.0
C      1  0.5009360000000  0.5956260000000  0.4730070000000 1.0
C      1  0.4530010000000  0.4829200000000  0.4659020000000 1.0
C      1  0.4292750000000  0.4662430000000  0.4712380000000 1.0
C      1  0.5242630000000  0.4401690000000  0.6050790000000 1.0
C      1  0.4742620000000  0.5812560000000  0.5486470000000 1.0
C      1  0.4444280000000  0.5513190000000  0.4355840000000 1.0
C      1  0.4812890000000  0.5360780000000  0.5463430000000 1.0
C      1  0.5020690000000  0.5039330000000  0.4169040000000 1.0
C      1  0.4433670000000  0.4889350000000  0.5142110000000 1.0
C      1  0.5310050000000  0.5082370000000  0.4255260000000 1.0
C      1  0.5441200000000  0.4345060000000  0.5509800000000 1.0
C      1  0.5959280000000  0.5471860000000  0.5218590000000 1.0
C      1  0.5520120000000  0.5094650000000  0.6107380000000 1.0
C      1  0.6214100000000  0.5439160000000  0.5267340000000 1.0
C      1  0.4312730000000  0.5671660000000  0.4598280000000 1.0
C      1  0.5077590000000  0.5631320000000  0.5919290000000 1.0
C      1  0.4157380000000  0.4603570000000  0.5500120000000 1.0
C      1  0.4480190000000  0.5222830000000  0.5189900000000 1.0
C      1  0.5337190000000  0.5369770000000  0.4415810000000 1.0
C      1  0.5090390000000  0.5746150000000  0.5075690000000 1.0
C      1  0.5025210000000  0.4880700000000  0.5665250000000 1.0
C      1  0.5102440000000  0.4731800000000  0.5396380000000 1.0
C      1  0.4216100000000  0.5110740000000  0.5521470000000 1.0
C      1  0.5871880000000  0.4896920000000  0.4618670000000 1.0
C      1  0.4237940000000  0.5407860000000  0.5073150000000 1.0
C      1  0.4637930000000  0.5770240000000  0.5165730000000 1.0
C      1  0.4953710000000  0.5261920000000  0.5833980000000 1.0
C      1  0.4623300000000  0.5303510000000  0.4935980000000 1.0
C      1  0.4723690000000  0.4666890000000  0.4349630000000 1.0
C      1  0.4951400000000  0.5456880000000  0.4693050000000 1.0
C      1  0.4930620000000  0.5595650000000  0.5615000000000 1.0
C      1  0.5341820000000  0.4841470000000  0.4472320000000 1.0
C      1  0.5778410000000  0.4697170000000  0.5907660000000 1.0
C      1  0.5178960000000  0.4411360000000  0.4915420000000 1.0
C      1  0.4074080000000  0.4917280000000  0.4658770000000 1.0
C      1  0.4866170000000  0.5724970000000  0.4556300000000 1.0
C      1  0.4958710000000  0.5009500000000  0.5148750000000 1.0
C      1  0.4131660000000  0.5437880000000  0.4672390000000 1.0
C      1  0.5706940000000  0.5204610000000  0.5062410000000 1.0
C      1  0.4768700000000  0.5065350000000  0.5539920000000 1.0
C      1  0.4585760000000  0.4182930000000  0.4816310000000 1.0
C      1  0.5247470000000  0.4476770000000  0.4236380000000 1.0
C      1  0.5850710000000  0.4341260000000  0.5173580000000 1.0
C      1  0.5421770000000  0.4932730000000  0.5666370000000 1.0
C      1  0.4679730000000  0.5960130000000  0.4816720000000 1.0
C      1  0.5851710000000  0.5678880000000  0.5007360000000 1.0
C      1  0.4024880000000  0.5152560000000  0.5071730000000 1.0
C      1  0.4877860000000  0.4568610000000  0.5281310000000 1.0
C      1  0.4465100000000  0.4207930000000  0.4503820000000 1.0
END
