TITL C-2848509-3138-11 0.00549022260400658 125000 -1002.67615638646 0 0 186 (C1) n - 1
REM
REM in /home/bkarasulu/work/CARBON/AIRSS/Generating-Clusters/AIREBO/with-SteepDescent/Only-C1/SD-CG-opt/Try1-1.4A-POS3A/HFTN-CG
REM
REM
REM
REM
REM
REM ./C.cell (11c1c37f851c82e70ff6c80c92926a4b)
REM
REM compiler GCC version 9.2.1 20190827 (Red Hat 9.2.1-1)
REM options -cpp -mtune=generic -march=x86-64 -g -O0 -fpre-include=/usr/include/finclude/math-vector-fortran.h
REM seed -910454083 524706861 -630748632 1218340902 291419833 1833862078 -1026168111 229651951 857907773 2115479310 -1039214795 -907341565 1121904116 258132313 1550695553 -505825997 1139292951 714074686 345328054 -1327308126 1038415641 -1971966403 -452809075 -1385377451 1060592491 -1386231001 1940838290 1921649309 -1019161384 360579743 -827041610 1823062464 937060182
REM
CELL 1.54180   50.00000   50.00000   50.00000   90.00000   90.00000   90.00000
LATT -1
SFAC C  
C      1  0.5425060000000  0.4385030000000  0.5269960000000 1.0
C      1  0.4400670000000  0.5765940000000  0.5638900000000 1.0
C      1  0.5723060000000  0.4917270000000  0.5012930000000 1.0
C      1  0.5220380000000  0.5436820000000  0.6023490000000 1.0
C      1  0.3903360000000  0.5006280000000  0.5200130000000 1.0
C      1  0.4764230000000  0.4200400000000  0.5687340000000 1.0
C      1  0.4267740000000  0.5766210000000  0.5376040000000 1.0
C      1  0.4333400000000  0.5305570000000  0.5911600000000 1.0
C      1  0.5119880000000  0.5644810000000  0.4406880000000 1.0
C      1  0.5854160000000  0.4497110000000  0.4481830000000 1.0
C      1  0.6095600000000  0.4837130000000  0.5120460000000 1.0
C      1  0.5892310000000  0.5260520000000  0.5426240000000 1.0
C      1  0.5891360000000  0.5618420000000  0.5047000000000 1.0
C      1  0.5606030000000  0.4625500000000  0.4289510000000 1.0
C      1  0.5150000000000  0.4712560000000  0.4004040000000 1.0
C      1  0.5736790000000  0.5177490000000  0.4794300000000 1.0
C      1  0.5501470000000  0.5556200000000  0.5105140000000 1.0
C      1  0.4409110000000  0.5491550000000  0.5712770000000 1.0
C      1  0.3925410000000  0.4752840000000  0.5108870000000 1.0
C      1  0.5092100000000  0.4947970000000  0.4242560000000 1.0
C      1  0.5326290000000  0.5263590000000  0.5306820000000 1.0
C      1  0.4974790000000  0.5369620000000  0.5459710000000 1.0
C      1  0.4828830000000  0.5492780000000  0.4458060000000 1.0
C      1  0.5718930000000  0.5664790000000  0.4457420000000 1.0
C      1  0.4187480000000  0.5511770000000  0.4689620000000 1.0
C      1  0.5473290000000  0.5860380000000  0.4588100000000 1.0
C      1  0.5096210000000  0.4367630000000  0.5548940000000 1.0
C      1  0.5772100000000  0.3996780000000  0.4769980000000 1.0
C      1  0.5604070000000  0.4158490000000  0.5449560000000 1.0
C      1  0.4881000000000  0.5886040000000  0.5724200000000 1.0
C      1  0.5928410000000  0.4953400000000  0.4624860000000 1.0
C      1  0.5483820000000  0.4104070000000  0.4312770000000 1.0
C      1  0.4574490000000  0.4804140000000  0.4361550000000 1.0
C      1  0.4185730000000  0.4994140000000  0.4557590000000 1.0
C      1  0.5112530000000  0.5969890000000  0.5515430000000 1.0
C      1  0.4321450000000  0.4675090000000  0.4198280000000 1.0
C      1  0.5734750000000  0.4587340000000  0.4787200000000 1.0
C      1  0.4383640000000  0.4971180000000  0.4833440000000 1.0
C      1  0.4283560000000  0.4402300000000  0.5600400000000 1.0
C      1  0.4971400000000  0.4066980000000  0.5473010000000 1.0
C      1  0.5275500000000  0.4494990000000  0.5014030000000 1.0
C      1  0.5079820000000  0.3986320000000  0.4627420000000 1.0
C      1  0.4619240000000  0.4419190000000  0.4945930000000 1.0
C      1  0.3848730000000  0.5203390000000  0.5014130000000 1.0
C      1  0.4622570000000  0.4902940000000  0.5357480000000 1.0
C      1  0.4282690000000  0.4276280000000  0.5347950000000 1.0
C      1  0.4818480000000  0.4562860000000  0.5528100000000 1.0
C      1  0.6031060000000  0.4746130000000  0.4839960000000 1.0
C      1  0.5898190000000  0.5066750000000  0.4141210000000 1.0
C      1  0.5353270000000  0.5218750000000  0.4397250000000 1.0
C      1  0.5176040000000  0.4558600000000  0.6068990000000 1.0
C      1  0.4024930000000  0.5280740000000  0.4586600000000 1.0
C      1  0.5426110000000  0.4724270000000  0.4828590000000 1.0
C      1  0.4455280000000  0.5314220000000  0.5426290000000 1.0
C      1  0.5353470000000  0.5137970000000  0.5606120000000 1.0
C      1  0.5131110000000  0.6120610000000  0.5210230000000 1.0
C      1  0.4703920000000  0.4560100000000  0.4189990000000 1.0
C      1  0.4966570000000  0.3932780000000  0.4937250000000 1.0
C      1  0.5493450000000  0.5419790000000  0.5821570000000 1.0
C      1  0.4719370000000  0.4922540000000  0.4858970000000 1.0
C      1  0.5754010000000  0.4593360000000  0.5112020000000 1.0
C      1  0.5137750000000  0.4964070000000  0.5748420000000 1.0
C      1  0.4595290000000  0.5800900000000  0.5291290000000 1.0
C      1  0.5472500000000  0.4351410000000  0.4158240000000 1.0
C      1  0.5655330000000  0.5334470000000  0.4502070000000 1.0
C      1  0.5049720000000  0.5108780000000  0.5030710000000 1.0
C      1  0.4442720000000  0.4424270000000  0.4655140000000 1.0
C      1  0.5495390000000  0.4353250000000  0.4697580000000 1.0
C      1  0.4595590000000  0.4722800000000  0.5097150000000 1.0
C      1  0.5377130000000  0.4960910000000  0.4053170000000 1.0
C      1  0.5035590000000  0.5017080000000  0.6051610000000 1.0
C      1  0.5440060000000  0.5995020000000  0.5138120000000 1.0
C      1  0.4479300000000  0.5853970000000  0.4973600000000 1.0
C      1  0.4036720000000  0.5271510000000  0.5573190000000 1.0
C      1  0.4554560000000  0.5888630000000  0.4436440000000 1.0
C      1  0.5202490000000  0.4235190000000  0.4823940000000 1.0
C      1  0.6046050000000  0.5132330000000  0.5180570000000 1.0
C      1  0.4417490000000  0.4394840000000  0.4147570000000 1.0
C      1  0.4653340000000  0.4394010000000  0.5283480000000 1.0
C      1  0.5682820000000  0.4842370000000  0.4057700000000 1.0
C      1  0.5562530000000  0.4881870000000  0.5310620000000 1.0
C      1  0.5700140000000  0.5898570000000  0.5071870000000 1.0
C      1  0.4891780000000  0.4356570000000  0.4752110000000 1.0
C      1  0.5637990000000  0.4523340000000  0.5722410000000 1.0
C      1  0.5386720000000  0.4055950000000  0.5046720000000 1.0
C      1  0.4599280000000  0.5473720000000  0.4651900000000 1.0
C      1  0.5602660000000  0.5109320000000  0.5821000000000 1.0
C      1  0.4962150000000  0.5652710000000  0.4933760000000 1.0
C      1  0.5278810000000  0.5606270000000  0.4133450000000 1.0
C      1  0.4856820000000  0.4557120000000  0.4497330000000 1.0
C      1  0.5723810000000  0.5024060000000  0.5543610000000 1.0
C      1  0.5300940000000  0.5479500000000  0.4609980000000 1.0
C      1  0.4156960000000  0.5755310000000  0.4925360000000 1.0
C      1  0.4977830000000  0.5581700000000  0.4027750000000 1.0
C      1  0.4874380000000  0.4579160000000  0.3939980000000 1.0
C      1  0.5187480000000  0.5501510000000  0.5691230000000 1.0
C      1  0.4333510000000  0.5210910000000  0.4155870000000 1.0
C      1  0.4600250000000  0.5090440000000  0.4277100000000 1.0
C      1  0.5170210000000  0.5209300000000  0.4746810000000 1.0
C      1  0.4316260000000  0.4865980000000  0.5500630000000 1.0
C      1  0.5465840000000  0.4652370000000  0.5961610000000 1.0
C      1  0.4372380000000  0.5625620000000  0.4463680000000 1.0
C      1  0.4390840000000  0.5149630000000  0.5135450000000 1.0
C      1  0.4174560000000  0.4179270000000  0.4819040000000 1.0
C      1  0.4535110000000  0.4263110000000  0.4395320000000 1.0
C      1  0.4540300000000  0.5169160000000  0.4603000000000 1.0
C      1  0.5968240000000  0.5323310000000  0.4967380000000 1.0
C      1  0.4169020000000  0.5475150000000  0.5337450000000 1.0
C      1  0.4894390000000  0.5323920000000  0.3941050000000 1.0
C      1  0.4923760000000  0.5872660000000  0.5259110000000 1.0
C      1  0.4892630000000  0.6141110000000  0.4967870000000 1.0
C      1  0.5034130000000  0.4364110000000  0.5214650000000 1.0
C      1  0.4218650000000  0.4699730000000  0.4970300000000 1.0
C      1  0.4703670000000  0.5478800000000  0.5301930000000 1.0
C      1  0.4026890000000  0.5467590000000  0.5052130000000 1.0
C      1  0.5809910000000  0.5430310000000  0.5707460000000 1.0
C      1  0.4622450000000  0.5088110000000  0.5618310000000 1.0
C      1  0.4524120000000  0.4101180000000  0.5178570000000 1.0
C      1  0.3859980000000  0.5091460000000  0.4757830000000 1.0
C      1  0.4114390000000  0.4462550000000  0.4671460000000 1.0
C      1  0.5383120000000  0.4309350000000  0.5659500000000 1.0
C      1  0.4350840000000  0.5416150000000  0.4969450000000 1.0
C      1  0.5476000000000  0.5246240000000  0.5001590000000 1.0
C      1  0.4122230000000  0.4633780000000  0.5635930000000 1.0
C      1  0.5068470000000  0.5056350000000  0.5366130000000 1.0
C      1  0.4907080000000  0.5626010000000  0.5837830000000 1.0
C      1  0.4675290000000  0.4096470000000  0.4717450000000 1.0
C      1  0.5673780000000  0.4074860000000  0.5027230000000 1.0
C      1  0.6057410000000  0.5050870000000  0.4357610000000 1.0
C      1  0.5613480000000  0.5205770000000  0.4070300000000 1.0
C      1  0.5286220000000  0.4083920000000  0.5345540000000 1.0
C      1  0.5809630000000  0.4299590000000  0.5218380000000 1.0
C      1  0.5212250000000  0.4000520000000  0.4334170000000 1.0
C      1  0.4772910000000  0.5712240000000  0.4223140000000 1.0
C      1  0.4834510000000  0.5093700000000  0.4075040000000 1.0
C      1  0.4857950000000  0.5136320000000  0.4633760000000 1.0
C      1  0.5037900000000  0.4816470000000  0.4852830000000 1.0
C      1  0.5332140000000  0.5742270000000  0.5540190000000 1.0
C      1  0.5036370000000  0.5255320000000  0.4376960000000 1.0
C      1  0.5281190000000  0.4694150000000  0.5679190000000 1.0
C      1  0.4293700000000  0.4398180000000  0.5041840000000 1.0
C      1  0.4564070000000  0.5092170000000  0.5936410000000 1.0
C      1  0.5003050000000  0.5282180000000  0.6104770000000 1.0
C      1  0.4755540000000  0.5371120000000  0.5979490000000 1.0
C      1  0.4449680000000  0.4063000000000  0.4884320000000 1.0
C      1  0.4300860000000  0.5476910000000  0.4193360000000 1.0
C      1  0.4603510000000  0.4695670000000  0.4644760000000 1.0
C      1  0.5621510000000  0.5732170000000  0.5532160000000 1.0
C      1  0.5814260000000  0.5781700000000  0.4765420000000 1.0
C      1  0.5390630000000  0.4999080000000  0.4631500000000 1.0
C      1  0.4002440000000  0.4780360000000  0.4720560000000 1.0
C      1  0.4885370000000  0.5886870000000  0.4475250000000 1.0
C      1  0.5075290000000  0.4754900000000  0.5414810000000 1.0
C      1  0.5206690000000  0.4395560000000  0.4064820000000 1.0
C      1  0.4860270000000  0.4074460000000  0.5168020000000 1.0
C      1  0.4653340000000  0.5561890000000  0.4975950000000 1.0
C      1  0.5570600000000  0.5488460000000  0.4207390000000 1.0
C      1  0.5647650000000  0.4871420000000  0.4520620000000 1.0
C      1  0.4847440000000  0.4131920000000  0.4426280000000 1.0
C      1  0.4695780000000  0.5978180000000  0.4742530000000 1.0
C      1  0.4928970000000  0.4660850000000  0.5121870000000 1.0
C      1  0.5093840000000  0.4754880000000  0.4522860000000 1.0
C      1  0.5737590000000  0.5548940000000  0.5333160000000 1.0
C      1  0.5973610000000  0.4616000000000  0.5337970000000 1.0
C      1  0.4219910000000  0.4953530000000  0.4258760000000 1.0
C      1  0.5480540000000  0.4626060000000  0.5437640000000 1.0
C      1  0.5358760000000  0.4595860000000  0.4521020000000 1.0
C      1  0.5122830000000  0.5436600000000  0.5096380000000 1.0
C      1  0.4447750000000  0.4786440000000  0.5805210000000 1.0
C      1  0.4140880000000  0.5076740000000  0.5354260000000 1.0
C      1  0.5234020000000  0.5735300000000  0.5215160000000 1.0
C      1  0.4124710000000  0.4882850000000  0.5849640000000 1.0
C      1  0.4726560000000  0.5119060000000  0.5130170000000 1.0
C      1  0.4568220000000  0.4474140000000  0.5740590000000 1.0
C      1  0.4833610000000  0.4842060000000  0.5721740000000 1.0
C      1  0.5628220000000  0.4119600000000  0.4556470000000 1.0
C      1  0.4097770000000  0.5169230000000  0.5828500000000 1.0
C      1  0.5073490000000  0.5918350000000  0.4855870000000 1.0
C      1  0.5528850000000  0.5599930000000  0.4799470000000 1.0
C      1  0.4966630000000  0.4723030000000  0.6015200000000 1.0
C      1  0.4634920000000  0.5936350000000  0.5617840000000 1.0
C      1  0.5842940000000  0.4722910000000  0.5575300000000 1.0
C      1  0.5293250000000  0.6033840000000  0.4679560000000 1.0
C      1  0.5605350000000  0.4917740000000  0.6035450000000 1.0
C      1  0.5039870000000  0.4169480000000  0.4147830000000 1.0
C      1  0.5346190000000  0.4946810000000  0.5069550000000 1.0
END
