TITL C-2848501-3133-714 -0.00230687123060662 125000 -383.211006088972 0 0 72 (C1) n - 1
REM
REM in /home/bkarasulu/work/CARBON/AIRSS/Generating-Clusters/AIREBO/with-SteepDescent/Only-C1/SD-CG-opt/Try1-1.4A-POS3A/HFTN-CG
REM
REM
REM
REM
REM
REM ./C.cell (11c1c37f851c82e70ff6c80c92926a4b)
REM
REM compiler GCC version 9.2.1 20190827 (Red Hat 9.2.1-1)
REM options -cpp -mtune=generic -march=x86-64 -g -O0 -fpre-include=/usr/include/finclude/math-vector-fortran.h
REM seed -1514008255 77166305 1313399004 1412282268 -1893256843 -518025289 -1205012275 -208770172 -262516106 1222254454 -1896246827 369410266 -1289863967 -954274553 251516783 239951583 -1555158619 619796002 -2065525420 1234219364 -1334619489 -1041044462 -879124991 44549081 730253365 -2124609857 -484109914 1676540702 -240152323 1226075567 1459163391 -506918831 -1974004603
REM
CELL 1.54180   50.00000   50.00000   50.00000   90.00000   90.00000   90.00000
LATT -1
SFAC C  
C      1  0.5289910000000  0.5393350000000  0.4874570000000 1.0
C      1  0.4711650000000  0.5038810000000  0.4957170000000 1.0
C      1  0.5179160000000  0.5271510000000  0.5434910000000 1.0
C      1  0.5469130000000  0.5648120000000  0.5129060000000 1.0
C      1  0.5034680000000  0.5020850000000  0.5708000000000 1.0
C      1  0.4810840000000  0.5509230000000  0.5612790000000 1.0
C      1  0.5503260000000  0.4556100000000  0.4669290000000 1.0
C      1  0.5359900000000  0.5006680000000  0.5375640000000 1.0
C      1  0.4618250000000  0.4849060000000  0.4369980000000 1.0
C      1  0.4721180000000  0.4438100000000  0.4622820000000 1.0
C      1  0.4779690000000  0.5636980000000  0.4859860000000 1.0
C      1  0.5136020000000  0.4671440000000  0.4742300000000 1.0
C      1  0.5543520000000  0.4568720000000  0.4976180000000 1.0
C      1  0.4811330000000  0.5242960000000  0.5770690000000 1.0
C      1  0.5659640000000  0.5245810000000  0.4854120000000 1.0
C      1  0.5324680000000  0.5796410000000  0.4919340000000 1.0
C      1  0.5252890000000  0.4885180000000  0.4303830000000 1.0
C      1  0.5663420000000  0.4989510000000  0.5318990000000 1.0
C      1  0.5008520000000  0.4415510000000  0.5104680000000 1.0
C      1  0.4191300000000  0.5266160000000  0.5119300000000 1.0
C      1  0.4825850000000  0.4908540000000  0.5224410000000 1.0
C      1  0.5122530000000  0.5401930000000  0.4210410000000 1.0
C      1  0.4534830000000  0.4920660000000  0.4691800000000 1.0
C      1  0.4590060000000  0.5159120000000  0.5540840000000 1.0
C      1  0.4651520000000  0.4683750000000  0.5579390000000 1.0
C      1  0.4560640000000  0.5544480000000  0.5037110000000 1.0
C      1  0.4447610000000  0.4409460000000  0.4759050000000 1.0
C      1  0.4967100000000  0.4315030000000  0.4798180000000 1.0
C      1  0.5059190000000  0.5604480000000  0.5010400000000 1.0
C      1  0.5288500000000  0.4812650000000  0.5653720000000 1.0
C      1  0.4719630000000  0.5606160000000  0.4529180000000 1.0
C      1  0.5153260000000  0.4488080000000  0.5672700000000 1.0
C      1  0.4947400000000  0.5012070000000  0.4527850000000 1.0
C      1  0.5545900000000  0.4325040000000  0.5181330000000 1.0
C      1  0.4419820000000  0.4930820000000  0.5073880000000 1.0
C      1  0.5394840000000  0.5094350000000  0.4783750000000 1.0
C      1  0.4680910000000  0.5473300000000  0.5298750000000 1.0
C      1  0.4709860000000  0.5146180000000  0.4335760000000 1.0
C      1  0.4828410000000  0.4749330000000  0.4708210000000 1.0
C      1  0.5717110000000  0.4685320000000  0.5201570000000 1.0
C      1  0.4493260000000  0.4540230000000  0.5062390000000 1.0
C      1  0.4991500000000  0.5128800000000  0.4844300000000 1.0
C      1  0.5010660000000  0.4301480000000  0.5426430000000 1.0
C      1  0.5102910000000  0.4676710000000  0.4203190000000 1.0
C      1  0.4921790000000  0.4800640000000  0.5502350000000 1.0
C      1  0.5262760000000  0.5629560000000  0.4667600000000 1.0
C      1  0.4328550000000  0.5090500000000  0.5343400000000 1.0
C      1  0.4437810000000  0.4706320000000  0.5328600000000 1.0
C      1  0.4364450000000  0.5376440000000  0.4925480000000 1.0
C      1  0.4988410000000  0.5609910000000  0.5340880000000 1.0
C      1  0.4564610000000  0.5350600000000  0.4463170000000 1.0
C      1  0.5762330000000  0.5206660000000  0.5150380000000 1.0
C      1  0.5354450000000  0.4851640000000  0.4586080000000 1.0
C      1  0.5076150000000  0.5576530000000  0.4439060000000 1.0
C      1  0.5219620000000  0.4377920000000  0.4602390000000 1.0
C      1  0.5123690000000  0.5141840000000  0.4267540000000 1.0
C      1  0.5204040000000  0.5309410000000  0.5768510000000 1.0
C      1  0.4792980000000  0.4655330000000  0.5033120000000 1.0
C      1  0.5693530000000  0.5499220000000  0.5052480000000 1.0
C      1  0.5226590000000  0.4670100000000  0.5046630000000 1.0
C      1  0.4878120000000  0.5204400000000  0.5365490000000 1.0
C      1  0.5222150000000  0.5009630000000  0.5064160000000 1.0
C      1  0.5078360000000  0.4393490000000  0.4331180000000 1.0
C      1  0.4800870000000  0.4599510000000  0.4338150000000 1.0
C      1  0.5196860000000  0.4643470000000  0.5373380000000 1.0
C      1  0.4316140000000  0.4714990000000  0.4829560000000 1.0
C      1  0.5913950000000  0.4782510000000  0.5426430000000 1.0
C      1  0.4420410000000  0.5240520000000  0.4681140000000 1.0
C      1  0.4389760000000  0.4891660000000  0.5609880000000 1.0
C      1  0.5386260000000  0.4360960000000  0.5376440000000 1.0
C      1  0.5305300000000  0.5540040000000  0.5318190000000 1.0
C      1  0.4937790000000  0.5397730000000  0.4690200000000 1.0
END
