TITL C-2847949-8115-348 0.000696834525526297 125000 -525.59120967191 0 0 97 (C1) n - 1
REM
REM in /home/bkarasulu/work/CARBON/AIRSS/Generating-Clusters/AIREBO/with-SteepDescent/Only-C1/SD-CG-opt/Try1-1.4A-POS3A/HFTN-CG
REM
REM
REM
REM
REM
REM ./C.cell (11c1c37f851c82e70ff6c80c92926a4b)
REM
REM compiler GCC version 9.2.1 20190827 (Red Hat 9.2.1-1)
REM options -cpp -mtune=generic -march=x86-64 -g -O0 -fpre-include=/usr/include/finclude/math-vector-fortran.h
REM seed -426758022 2129962296 -552392582 -2137590921 935723857 -305509593 -393582552 868891981 -8478761 -1427361 -1473894837 -1087589055 182410710 -1754630758 -1513206789 -1589348335 772330592 -1118442195 -905787937 -2079092756 -1548100913 -1671465380 -1835508820 3213194 1568948943 -2052757978 -190793798 404839085 -1146198383 1020725876 -225995481 1327489939 -1748039416
REM
CELL 1.54180   50.00000   50.00000   50.00000   90.00000   90.00000   90.00000
LATT -1
SFAC C  
C      1  0.5146760000000  0.4912380000000  0.5235200000000 1.0
C      1  0.4539880000000  0.5492890000000  0.4565140000000 1.0
C      1  0.5092330000000  0.5418530000000  0.5330140000000 1.0
C      1  0.5244740000000  0.5675600000000  0.4713600000000 1.0
C      1  0.4725540000000  0.4406710000000  0.5386100000000 1.0
C      1  0.5319700000000  0.5151400000000  0.5064010000000 1.0
C      1  0.4929610000000  0.4676020000000  0.5347710000000 1.0
C      1  0.4734940000000  0.4555370000000  0.5755750000000 1.0
C      1  0.5233120000000  0.4701980000000  0.4990590000000 1.0
C      1  0.5531360000000  0.4997520000000  0.5655280000000 1.0
C      1  0.4765350000000  0.4872230000000  0.4137300000000 1.0
C      1  0.4816320000000  0.5576410000000  0.4449130000000 1.0
C      1  0.4537060000000  0.5032560000000  0.4398780000000 1.0
C      1  0.5769850000000  0.5185250000000  0.5262930000000 1.0
C      1  0.5451880000000  0.5652630000000  0.4958510000000 1.0
C      1  0.4066980000000  0.5234620000000  0.5076090000000 1.0
C      1  0.5643120000000  0.4949710000000  0.4508650000000 1.0
C      1  0.4922480000000  0.5370320000000  0.4200390000000 1.0
C      1  0.4728560000000  0.4419570000000  0.4350520000000 1.0
C      1  0.5867850000000  0.5288140000000  0.4789330000000 1.0
C      1  0.4579250000000  0.5018980000000  0.4726080000000 1.0
C      1  0.5076750000000  0.5107390000000  0.4631100000000 1.0
C      1  0.5182800000000  0.5194540000000  0.4141930000000 1.0
C      1  0.4615850000000  0.4869480000000  0.5194760000000 1.0
C      1  0.5279190000000  0.4415340000000  0.5073320000000 1.0
C      1  0.4307140000000  0.4631330000000  0.5431410000000 1.0
C      1  0.4999470000000  0.4283550000000  0.5411070000000 1.0
C      1  0.4344980000000  0.4907400000000  0.5552900000000 1.0
C      1  0.5044010000000  0.5570340000000  0.5040690000000 1.0
C      1  0.5748850000000  0.4967750000000  0.5446550000000 1.0
C      1  0.4817020000000  0.5033330000000  0.5663520000000 1.0
C      1  0.5904650000000  0.5120620000000  0.5015820000000 1.0
C      1  0.5103260000000  0.5073550000000  0.5525390000000 1.0
C      1  0.4661850000000  0.4791820000000  0.5522590000000 1.0
C      1  0.5579450000000  0.4352490000000  0.5121570000000 1.0
C      1  0.4611690000000  0.5764090000000  0.5335600000000 1.0
C      1  0.4934390000000  0.4690200000000  0.4348410000000 1.0
C      1  0.4570790000000  0.5474350000000  0.5219920000000 1.0
C      1  0.4866080000000  0.5764170000000  0.5468070000000 1.0
C      1  0.5555980000000  0.4413760000000  0.4787960000000 1.0
C      1  0.5087380000000  0.5810530000000  0.5277700000000 1.0
C      1  0.5659030000000  0.4714090000000  0.5265450000000 1.0
C      1  0.4973730000000  0.5794410000000  0.4596360000000 1.0
C      1  0.4616080000000  0.4560050000000  0.5124680000000 1.0
C      1  0.5429780000000  0.5613360000000  0.5604790000000 1.0
C      1  0.5389330000000  0.4796560000000  0.5443450000000 1.0
C      1  0.5525200000000  0.5083630000000  0.4801690000000 1.0
C      1  0.4443970000000  0.4731360000000  0.4639260000000 1.0
C      1  0.5031520000000  0.4588420000000  0.5768610000000 1.0
C      1  0.4229550000000  0.4799980000000  0.4861070000000 1.0
C      1  0.4537170000000  0.4695420000000  0.4320540000000 1.0
C      1  0.5230600000000  0.4748320000000  0.4364350000000 1.0
C      1  0.4473130000000  0.5105210000000  0.5037280000000 1.0
C      1  0.5172180000000  0.4435990000000  0.5571400000000 1.0
C      1  0.5915540000000  0.4843140000000  0.4939660000000 1.0
C      1  0.5521270000000  0.5316020000000  0.5236530000000 1.0
C      1  0.4476720000000  0.4441800000000  0.5571660000000 1.0
C      1  0.5091740000000  0.4896920000000  0.5815190000000 1.0
C      1  0.4765970000000  0.5445670000000  0.4948010000000 1.0
C      1  0.4498080000000  0.5636660000000  0.4862210000000 1.0
C      1  0.5419470000000  0.5385720000000  0.4501820000000 1.0
C      1  0.5892200000000  0.5154980000000  0.4544510000000 1.0
C      1  0.4464110000000  0.5838410000000  0.5094300000000 1.0
C      1  0.4455620000000  0.4319100000000  0.4946250000000 1.0
C      1  0.4863120000000  0.5105540000000  0.4364480000000 1.0
C      1  0.4353150000000  0.5332760000000  0.4814810000000 1.0
C      1  0.5683270000000  0.4722860000000  0.4733380000000 1.0
C      1  0.4656830000000  0.5296510000000  0.5608790000000 1.0
C      1  0.5080210000000  0.4789950000000  0.4730410000000 1.0
C      1  0.4821670000000  0.5155820000000  0.4848810000000 1.0
C      1  0.4856330000000  0.5051490000000  0.5135950000000 1.0
C      1  0.5521930000000  0.4812430000000  0.5001990000000 1.0
C      1  0.4404440000000  0.5294570000000  0.4385440000000 1.0
C      1  0.4651620000000  0.4186150000000  0.4787150000000 1.0
C      1  0.5190820000000  0.5359890000000  0.4828350000000 1.0
C      1  0.4779570000000  0.4685130000000  0.4643380000000 1.0
C      1  0.4823230000000  0.5290860000000  0.5312310000000 1.0
C      1  0.4977850000000  0.4242850000000  0.4876180000000 1.0
C      1  0.5422000000000  0.5719280000000  0.4426740000000 1.0
C      1  0.4836410000000  0.4522400000000  0.4895940000000 1.0
C      1  0.5367280000000  0.5617240000000  0.5270550000000 1.0
C      1  0.4361670000000  0.5192660000000  0.5542230000000 1.0
C      1  0.5261440000000  0.4268030000000  0.4690240000000 1.0
C      1  0.4891480000000  0.5538330000000  0.5654400000000 1.0
C      1  0.5048450000000  0.4102650000000  0.4509360000000 1.0
C      1  0.4315870000000  0.5303100000000  0.5260370000000 1.0
C      1  0.5583310000000  0.5418530000000  0.4790440000000 1.0
C      1  0.4277680000000  0.4577370000000  0.5095420000000 1.0
C      1  0.4780860000000  0.4204140000000  0.4515190000000 1.0
C      1  0.5097070000000  0.4210810000000  0.5167420000000 1.0
C      1  0.5151110000000  0.5532880000000  0.4353670000000 1.0
C      1  0.4128740000000  0.5071240000000  0.4841890000000 1.0
C      1  0.5469230000000  0.4472190000000  0.5420460000000 1.0
C      1  0.5321420000000  0.4584260000000  0.4618750000000 1.0
C      1  0.5343540000000  0.5124610000000  0.5835500000000 1.0
C      1  0.5337510000000  0.5066930000000  0.4416490000000 1.0
C      1  0.5190640000000  0.5376470000000  0.5652920000000 1.0
END
