TITL C-2847953-8112-392 -0.0039736646855336 125000 -769.767025199938 0 0 143 (C1) n - 1
REM
REM in /home/bkarasulu/work/CARBON/AIRSS/Generating-Clusters/AIREBO/with-SteepDescent/Only-C1/SD-CG-opt/Try1-1.4A-POS3A/HFTN-CG
REM
REM
REM
REM
REM
REM ./C.cell (11c1c37f851c82e70ff6c80c92926a4b)
REM
REM compiler GCC version 9.2.1 20190827 (Red Hat 9.2.1-1)
REM options -cpp -mtune=generic -march=x86-64 -g -O0 -fpre-include=/usr/include/finclude/math-vector-fortran.h
REM seed -1510436794 -843295311 -1614545575 -1870831364 -213121038 -720072826 -391465381 -426873747 -90514608 -1431166247 1425758822 -1366846767 1476503245 1095872256 -158051850 552232825 -1817790857 -1643034467 494807013 843899065 1442761533 678750564 1734060889 804339243 -1870727303 -1749629477 -321596209 -579185455 509030744 1569065034 -1429958698 53273061 -755110864
REM
CELL 1.54180   50.00000   50.00000   50.00000   90.00000   90.00000   90.00000
LATT -1
SFAC C  
C      1  0.4776150000000  0.4369300000000  0.5648680000000 1.0
C      1  0.4648550000000  0.5328400000000  0.5777690000000 1.0
C      1  0.5626960000000  0.5478770000000  0.5604690000000 1.0
C      1  0.5201130000000  0.5306410000000  0.4859140000000 1.0
C      1  0.4548310000000  0.3973760000000  0.4706870000000 1.0
C      1  0.3960720000000  0.4472550000000  0.4721050000000 1.0
C      1  0.5448550000000  0.5270340000000  0.5089660000000 1.0
C      1  0.5103110000000  0.5016290000000  0.4238270000000 1.0
C      1  0.4205760000000  0.4992980000000  0.4587840000000 1.0
C      1  0.5543490000000  0.5955670000000  0.4520300000000 1.0
C      1  0.4372950000000  0.5740640000000  0.4902460000000 1.0
C      1  0.5682680000000  0.4952790000000  0.4723120000000 1.0
C      1  0.4908010000000  0.5563240000000  0.5058730000000 1.0
C      1  0.5956120000000  0.5251040000000  0.4509890000000 1.0
C      1  0.4897930000000  0.5006010000000  0.5194180000000 1.0
C      1  0.4238880000000  0.5504980000000  0.4970050000000 1.0
C      1  0.4712260000000  0.5354630000000  0.5334690000000 1.0
C      1  0.5426610000000  0.5571280000000  0.5016310000000 1.0
C      1  0.4392120000000  0.4480940000000  0.4885480000000 1.0
C      1  0.6053640000000  0.5062390000000  0.5395810000000 1.0
C      1  0.4919200000000  0.5766300000000  0.5519240000000 1.0
C      1  0.4698930000000  0.5315170000000  0.5003290000000 1.0
C      1  0.5308930000000  0.5415610000000  0.5716820000000 1.0
C      1  0.4364980000000  0.5166990000000  0.5308200000000 1.0
C      1  0.5721330000000  0.5701660000000  0.5082640000000 1.0
C      1  0.5069880000000  0.4702100000000  0.4800220000000 1.0
C      1  0.5679930000000  0.5110310000000  0.5526680000000 1.0
C      1  0.3953060000000  0.5054300000000  0.4775880000000 1.0
C      1  0.5468600000000  0.4068010000000  0.5305190000000 1.0
C      1  0.5937650000000  0.4712960000000  0.4995880000000 1.0
C      1  0.5175390000000  0.4633360000000  0.4173170000000 1.0
C      1  0.5472200000000  0.5187270000000  0.4702820000000 1.0
C      1  0.5361570000000  0.5151090000000  0.5396000000000 1.0
C      1  0.5407760000000  0.4613580000000  0.5414870000000 1.0
C      1  0.4452860000000  0.4668630000000  0.5584030000000 1.0
C      1  0.5258450000000  0.4125460000000  0.5552600000000 1.0
C      1  0.4727970000000  0.5994940000000  0.4890080000000 1.0
C      1  0.4302100000000  0.4302540000000  0.5231640000000 1.0
C      1  0.4617130000000  0.5301260000000  0.4675330000000 1.0
C      1  0.4199430000000  0.4803060000000  0.5493490000000 1.0
C      1  0.4118350000000  0.4770340000000  0.5164920000000 1.0
C      1  0.5299970000000  0.5719350000000  0.4499020000000 1.0
C      1  0.4197540000000  0.4400830000000  0.4498680000000 1.0
C      1  0.4377510000000  0.4606470000000  0.4291210000000 1.0
C      1  0.4954720000000  0.5367530000000  0.4651560000000 1.0
C      1  0.4230630000000  0.5196850000000  0.4350380000000 1.0
C      1  0.5205900000000  0.5826600000000  0.5017910000000 1.0
C      1  0.4689940000000  0.4241130000000  0.5281340000000 1.0
C      1  0.4515560000000  0.5346270000000  0.4016820000000 1.0
C      1  0.5145930000000  0.5018730000000  0.5613010000000 1.0
C      1  0.5744340000000  0.4875390000000  0.5722830000000 1.0
C      1  0.4662100000000  0.5044970000000  0.5407370000000 1.0
C      1  0.5604050000000  0.4176010000000  0.5007360000000 1.0
C      1  0.4767040000000  0.6245980000000  0.4939960000000 1.0
C      1  0.4881880000000  0.4513150000000  0.5876380000000 1.0
C      1  0.4994840000000  0.4395760000000  0.4815880000000 1.0
C      1  0.5695780000000  0.5106510000000  0.5187030000000 1.0
C      1  0.5689220000000  0.5433840000000  0.4614910000000 1.0
C      1  0.4935780000000  0.5562210000000  0.4187010000000 1.0
C      1  0.4744600000000  0.4611020000000  0.5417280000000 1.0
C      1  0.4317900000000  0.4184830000000  0.4732050000000 1.0
C      1  0.4561070000000  0.4879540000000  0.4204930000000 1.0
C      1  0.4999580000000  0.4777850000000  0.5803370000000 1.0
C      1  0.5151820000000  0.5227660000000  0.5952750000000 1.0
C      1  0.5270770000000  0.4228010000000  0.4793220000000 1.0
C      1  0.4186220000000  0.4169180000000  0.5027790000000 1.0
C      1  0.5447730000000  0.5991280000000  0.4844610000000 1.0
C      1  0.4743300000000  0.5826420000000  0.4598410000000 1.0
C      1  0.5033930000000  0.4393640000000  0.5153830000000 1.0
C      1  0.4644050000000  0.5762440000000  0.5089450000000 1.0
C      1  0.5435580000000  0.5429730000000  0.4388200000000 1.0
C      1  0.4971360000000  0.5059250000000  0.4540420000000 1.0
C      1  0.4691210000000  0.4335600000000  0.4957010000000 1.0
C      1  0.5316770000000  0.3994660000000  0.5022770000000 1.0
C      1  0.5052270000000  0.4732050000000  0.5196920000000 1.0
C      1  0.4767110000000  0.4027790000000  0.4870580000000 1.0
C      1  0.5559870000000  0.4079790000000  0.4684380000000 1.0
C      1  0.4415730000000  0.5882260000000  0.4670450000000 1.0
C      1  0.5260360000000  0.4954700000000  0.4678800000000 1.0
C      1  0.4081140000000  0.5143080000000  0.5028280000000 1.0
C      1  0.4648660000000  0.5070890000000  0.4433950000000 1.0
C      1  0.5363290000000  0.4263260000000  0.5766930000000 1.0
C      1  0.5308910000000  0.5487120000000  0.5395440000000 1.0
C      1  0.5726260000000  0.4458620000000  0.5004850000000 1.0
C      1  0.3993020000000  0.5034590000000  0.5338330000000 1.0
C      1  0.5085530000000  0.5678830000000  0.5299670000000 1.0
C      1  0.4427860000000  0.4886620000000  0.5126430000000 1.0
C      1  0.4071320000000  0.4548080000000  0.4975980000000 1.0
C      1  0.5733430000000  0.4595580000000  0.5317240000000 1.0
C      1  0.4650470000000  0.4907580000000  0.5668020000000 1.0
C      1  0.5922490000000  0.5480090000000  0.5124490000000 1.0
C      1  0.5871160000000  0.4652990000000  0.5617050000000 1.0
C      1  0.5521450000000  0.4782230000000  0.5865670000000 1.0
C      1  0.4987660000000  0.4223430000000  0.5444580000000 1.0
C      1  0.5552410000000  0.5711100000000  0.5367360000000 1.0
C      1  0.4205970000000  0.5128260000000  0.5587650000000 1.0
C      1  0.5973430000000  0.4834520000000  0.5281260000000 1.0
C      1  0.5871860000000  0.4979920000000  0.4469900000000 1.0
C      1  0.4853850000000  0.5076130000000  0.5877600000000 1.0
C      1  0.4990890000000  0.5265820000000  0.5491790000000 1.0
C      1  0.5451150000000  0.4377780000000  0.4561960000000 1.0
C      1  0.5772570000000  0.4700720000000  0.4428930000000 1.0
C      1  0.4646140000000  0.4695160000000  0.4573970000000 1.0
C      1  0.5244370000000  0.6100800000000  0.4591620000000 1.0
C      1  0.5341210000000  0.4361570000000  0.5241740000000 1.0
C      1  0.5386700000000  0.4871610000000  0.4138630000000 1.0
C      1  0.4875900000000  0.4780430000000  0.4123170000000 1.0
C      1  0.4255970000000  0.5461950000000  0.4416100000000 1.0
C      1  0.5061040000000  0.5277500000000  0.5161840000000 1.0
C      1  0.5381910000000  0.5956990000000  0.5278060000000 1.0
C      1  0.5442650000000  0.4533230000000  0.5738550000000 1.0
C      1  0.5332690000000  0.4973910000000  0.5892740000000 1.0
C      1  0.5367040000000  0.4755750000000  0.4914620000000 1.0
C      1  0.5615170000000  0.4619550000000  0.4726110000000 1.0
C      1  0.4337860000000  0.4686070000000  0.4619580000000 1.0
C      1  0.4282880000000  0.5455380000000  0.5240980000000 1.0
C      1  0.4747750000000  0.4506370000000  0.4403460000000 1.0
C      1  0.4488180000000  0.4584750000000  0.5194890000000 1.0
C      1  0.5072290000000  0.4642820000000  0.5506220000000 1.0
C      1  0.5632820000000  0.4677230000000  0.4194250000000 1.0
C      1  0.5887950000000  0.5358180000000  0.5422220000000 1.0
C      1  0.5351350000000  0.4867980000000  0.5207910000000 1.0
C      1  0.4362690000000  0.5252820000000  0.5795580000000 1.0
C      1  0.4665550000000  0.5588810000000  0.5561420000000 1.0
C      1  0.5406620000000  0.5182340000000  0.4275270000000 1.0
C      1  0.4660330000000  0.5524460000000  0.4178940000000 1.0
C      1  0.4969310000000  0.5442110000000  0.5774630000000 1.0
C      1  0.5866790000000  0.5034150000000  0.4953870000000 1.0
C      1  0.5006200000000  0.4071640000000  0.5047420000000 1.0
C      1  0.4388430000000  0.5124310000000  0.4135630000000 1.0
C      1  0.5061140000000  0.5839980000000  0.4710070000000 1.0
C      1  0.4968090000000  0.4381150000000  0.4499170000000 1.0
C      1  0.4810310000000  0.4859020000000  0.4747270000000 1.0
C      1  0.4458830000000  0.5661180000000  0.5334680000000 1.0
C      1  0.5208310000000  0.4445940000000  0.4376370000000 1.0
C      1  0.5650610000000  0.5730200000000  0.4751170000000 1.0
C      1  0.5918710000000  0.5331760000000  0.4844380000000 1.0
C      1  0.4464920000000  0.4345170000000  0.5513880000000 1.0
C      1  0.4655550000000  0.4521650000000  0.4109600000000 1.0
C      1  0.4672200000000  0.4992580000000  0.4972200000000 1.0
C      1  0.4559540000000  0.5568940000000  0.4473690000000 1.0
C      1  0.5046270000000  0.5553510000000  0.4432340000000 1.0
C      1  0.4299380000000  0.5251190000000  0.4788650000000 1.0
END
