TITL C-2847955-7945-297 0.0356294863741732 125000 -642.946615001095 0 0 122 (C1) n - 1
REM
REM in /home/bkarasulu/work/CARBON/AIRSS/Generating-Clusters/AIREBO/with-SteepDescent/Only-C1/SD-CG-opt/Try1-1.4A-POS3A/HFTN-CG
REM
REM
REM
REM
REM
REM ./C.cell (11c1c37f851c82e70ff6c80c92926a4b)
REM
REM compiler GCC version 9.2.1 20190827 (Red Hat 9.2.1-1)
REM options -cpp -mtune=generic -march=x86-64 -g -O0 -fpre-include=/usr/include/finclude/math-vector-fortran.h
REM seed -1223999896 -1396724144 -405689557 1064583444 -17234270 -625632364 612066049 1607257211 -138831968 628412936 1376781753 1274148683 -922329526 -1947372479 2066892248 -1028148724 -162149135 -1914367985 1452718148 915418092 -1650989736 -1993270911 -1701976457 461851488 132590108 1139888760 -1800637529 -163572219 1694996219 -1197011024 -239020848 -2145241028 -446512401
REM
CELL 1.54180   50.00000   50.00000   50.00000   90.00000   90.00000   90.00000
LATT -1
SFAC C  
C      1  0.4727880000000  0.4997710000000  0.4739180000000 1.0
C      1  0.5329390000000  0.4068090000000  0.5293730000000 1.0
C      1  0.5394100000000  0.4435090000000  0.5658030000000 1.0
C      1  0.5702260000000  0.4807950000000  0.5095360000000 1.0
C      1  0.5237890000000  0.5579040000000  0.5080230000000 1.0
C      1  0.5808390000000  0.5165330000000  0.5572880000000 1.0
C      1  0.5021150000000  0.4001690000000  0.4696890000000 1.0
C      1  0.4846270000000  0.5439290000000  0.4644050000000 1.0
C      1  0.4614060000000  0.4368490000000  0.5170280000000 1.0
C      1  0.4728990000000  0.5847150000000  0.4774740000000 1.0
C      1  0.4261360000000  0.4770940000000  0.5267800000000 1.0
C      1  0.5709530000000  0.4521190000000  0.4423050000000 1.0
C      1  0.4563230000000  0.4698220000000  0.5702310000000 1.0
C      1  0.5386100000000  0.5288640000000  0.4760150000000 1.0
C      1  0.5179320000000  0.5967350000000  0.4922780000000 1.0
C      1  0.4468890000000  0.6100780000000  0.5423040000000 1.0
C      1  0.5773720000000  0.5394350000000  0.5407700000000 1.0
C      1  0.5912420000000  0.5150960000000  0.4754570000000 1.0
C      1  0.4226500000000  0.5048330000000  0.5125890000000 1.0
C      1  0.5076180000000  0.5709260000000  0.4459720000000 1.0
C      1  0.5618180000000  0.4229540000000  0.4616430000000 1.0
C      1  0.5147250000000  0.5055210000000  0.4985950000000 1.0
C      1  0.5570200000000  0.5594290000000  0.4368060000000 1.0
C      1  0.5303360000000  0.4198790000000  0.4687300000000 1.0
C      1  0.4216150000000  0.4572290000000  0.4486890000000 1.0
C      1  0.4974850000000  0.5267070000000  0.5878940000000 1.0
C      1  0.4534550000000  0.5266490000000  0.4817020000000 1.0
C      1  0.5609000000000  0.5632360000000  0.5437050000000 1.0
C      1  0.5677500000000  0.5005380000000  0.4331230000000 1.0
C      1  0.4458190000000  0.5024070000000  0.5693090000000 1.0
C      1  0.5036240000000  0.5257510000000  0.4106070000000 1.0
C      1  0.4591780000000  0.5884400000000  0.5365800000000 1.0
C      1  0.5734110000000  0.5294990000000  0.5147160000000 1.0
C      1  0.4615780000000  0.5122240000000  0.5408190000000 1.0
C      1  0.4644300000000  0.5563040000000  0.4888170000000 1.0
C      1  0.4272410000000  0.5410830000000  0.5526000000000 1.0
C      1  0.4481020000000  0.4897660000000  0.4956870000000 1.0
C      1  0.5348460000000  0.4687440000000  0.4674280000000 1.0
C      1  0.5202420000000  0.4061340000000  0.4978300000000 1.0
C      1  0.5252880000000  0.4542710000000  0.5147540000000 1.0
C      1  0.5469230000000  0.4990830000000  0.6128190000000 1.0
C      1  0.5788300000000  0.4861850000000  0.5420280000000 1.0
C      1  0.5004250000000  0.4959730000000  0.5464940000000 1.0
C      1  0.5483420000000  0.4965590000000  0.4127440000000 1.0
C      1  0.4862060000000  0.4672920000000  0.5777240000000 1.0
C      1  0.5847900000000  0.5082780000000  0.5006080000000 1.0
C      1  0.4298460000000  0.5186590000000  0.4584330000000 1.0
C      1  0.5072250000000  0.5366920000000  0.4865050000000 1.0
C      1  0.5473640000000  0.4281280000000  0.5402520000000 1.0
C      1  0.4912670000000  0.4834180000000  0.4972480000000 1.0
C      1  0.4081640000000  0.5293570000000  0.4994810000000 1.0
C      1  0.5536670000000  0.4980110000000  0.5608360000000 1.0
C      1  0.5438500000000  0.5304870000000  0.5095860000000 1.0
C      1  0.5023190000000  0.5875720000000  0.4670560000000 1.0
C      1  0.5378520000000  0.4669480000000  0.5412150000000 1.0
C      1  0.4145200000000  0.4542490000000  0.5193500000000 1.0
C      1  0.4893400000000  0.4376370000000  0.4413830000000 1.0
C      1  0.5927090000000  0.5410350000000  0.4576540000000 1.0
C      1  0.5200460000000  0.4647500000000  0.5843490000000 1.0
C      1  0.4326240000000  0.5584890000000  0.4595780000000 1.0
C      1  0.5599740000000  0.5973510000000  0.5043530000000 1.0
C      1  0.5038820000000  0.5572650000000  0.5893110000000 1.0
C      1  0.4857850000000  0.5650870000000  0.4306120000000 1.0
C      1  0.4371290000000  0.4397560000000  0.4727590000000 1.0
C      1  0.4852600000000  0.6027400000000  0.4995240000000 1.0
C      1  0.4826230000000  0.3930400000000  0.4948330000000 1.0
C      1  0.5020650000000  0.4154700000000  0.5230810000000 1.0
C      1  0.4223200000000  0.5116840000000  0.5459250000000 1.0
C      1  0.4587210000000  0.5100150000000  0.4460320000000 1.0
C      1  0.5423520000000  0.4588780000000  0.4381760000000 1.0
C      1  0.4535330000000  0.4794990000000  0.5381110000000 1.0
C      1  0.5172640000000  0.5122690000000  0.5678910000000 1.0
C      1  0.4935600000000  0.4481620000000  0.5185160000000 1.0
C      1  0.4821550000000  0.4783910000000  0.5258610000000 1.0
C      1  0.5354700000000  0.4914460000000  0.5860030000000 1.0
C      1  0.5841450000000  0.4770260000000  0.4371490000000 1.0
C      1  0.4906200000000  0.4339150000000  0.5492520000000 1.0
C      1  0.4331420000000  0.5003580000000  0.4174170000000 1.0
C      1  0.4958950000000  0.5748380000000  0.5733410000000 1.0
C      1  0.4791050000000  0.4139360000000  0.4527690000000 1.0
C      1  0.4687160000000  0.5263330000000  0.5770240000000 1.0
C      1  0.5473030000000  0.4617350000000  0.4931490000000 1.0
C      1  0.5014740000000  0.5049710000000  0.4564130000000 1.0
C      1  0.4601060000000  0.5597210000000  0.5184000000000 1.0
C      1  0.4587450000000  0.5497520000000  0.4430920000000 1.0
C      1  0.4596670000000  0.4582340000000  0.4902710000000 1.0
C      1  0.5048530000000  0.5314650000000  0.4408470000000 1.0
C      1  0.5849960000000  0.4509500000000  0.4995130000000 1.0
C      1  0.4391180000000  0.4804760000000  0.4644740000000 1.0
C      1  0.4581050000000  0.4421250000000  0.5504720000000 1.0
C      1  0.4143260000000  0.4917380000000  0.4445770000000 1.0
C      1  0.4164790000000  0.5406800000000  0.4765640000000 1.0
C      1  0.4862980000000  0.4620140000000  0.4736380000000 1.0
C      1  0.5073690000000  0.4632920000000  0.5528200000000 1.0
C      1  0.5315640000000  0.5499050000000  0.4502350000000 1.0
C      1  0.5321280000000  0.4734610000000  0.4169160000000 1.0
C      1  0.4485570000000  0.5266270000000  0.4206800000000 1.0
C      1  0.5390990000000  0.4916770000000  0.5179060000000 1.0
C      1  0.4471500000000  0.4731590000000  0.4322510000000 1.0
C      1  0.4849370000000  0.5676550000000  0.5443920000000 1.0
C      1  0.5020020000000  0.5818430000000  0.5184630000000 1.0
C      1  0.4295110000000  0.4369680000000  0.5052420000000 1.0
C      1  0.5024020000000  0.4769100000000  0.4150580000000 1.0
C      1  0.4739630000000  0.4598060000000  0.4229790000000 1.0
C      1  0.4988590000000  0.5149780000000  0.6137870000000 1.0
C      1  0.4662540000000  0.4058020000000  0.5082960000000 1.0
C      1  0.5077550000000  0.5444370000000  0.5346630000000 1.0
C      1  0.5308070000000  0.5639450000000  0.5505110000000 1.0
C      1  0.4600820000000  0.5450250000000  0.5496450000000 1.0
C      1  0.5345580000000  0.5152600000000  0.5386240000000 1.0
C      1  0.4975410000000  0.5036270000000  0.4001050000000 1.0
C      1  0.4666530000000  0.5141550000000  0.5104450000000 1.0
C      1  0.5652930000000  0.5207130000000  0.4564770000000 1.0
C      1  0.5503090000000  0.5756990000000  0.5177280000000 1.0
C      1  0.5844420000000  0.4363230000000  0.4763260000000 1.0
C      1  0.5604120000000  0.4432990000000  0.5185390000000 1.0
C      1  0.5282110000000  0.4972130000000  0.4694970000000 1.0
C      1  0.4973200000000  0.5179520000000  0.5244150000000 1.0
C      1  0.4530420000000  0.4150310000000  0.4606910000000 1.0
C      1  0.4098500000000  0.5585320000000  0.5641300000000 1.0
C      1  0.4904540000000  0.4773060000000  0.4460220000000 1.0
C      1  0.5123550000000  0.4465240000000  0.4611870000000 1.0
END
