TITL C-2847952-8118-527 -0.000241239132507842 125000 -870.648624715985 0 0 161 (C1) n - 1
REM
REM in /home/bkarasulu/work/CARBON/AIRSS/Generating-Clusters/AIREBO/with-SteepDescent/Only-C1/SD-CG-opt/Try1-1.4A-POS3A/HFTN-CG
REM
REM
REM
REM
REM
REM ./C.cell (11c1c37f851c82e70ff6c80c92926a4b)
REM
REM compiler GCC version 9.2.1 20190827 (Red Hat 9.2.1-1)
REM options -cpp -mtune=generic -march=x86-64 -g -O0 -fpre-include=/usr/include/finclude/math-vector-fortran.h
REM seed 2029346705 1437471471 348921251 1821716174 1047811425 -1574855935 425650170 -464571935 -1559629759 -1109607709 -338820142 -1515002588 887542186 -428554855 -427648853 -1573609160 515231834 812581600 22955653 -1153219734 1898529281 2008645498 -820144356 1636743268 815854079 399221466 -1484270528 -1235439687 1357228511 1208832675 -523576488 -903932277 -244706502
REM
CELL 1.54180   50.00000   50.00000   50.00000   90.00000   90.00000   90.00000
LATT -1
SFAC C  
C      1  0.5279710000000  0.4712010000000  0.5433950000000 1.0
C      1  0.4825750000000  0.5137420000000  0.4238170000000 1.0
C      1  0.5489920000000  0.4792710000000  0.3993080000000 1.0
C      1  0.4877810000000  0.5978960000000  0.5427900000000 1.0
C      1  0.5201590000000  0.4917650000000  0.3987150000000 1.0
C      1  0.4376300000000  0.3951180000000  0.4966870000000 1.0
C      1  0.5307710000000  0.5197030000000  0.5434170000000 1.0
C      1  0.4014990000000  0.4865580000000  0.4797820000000 1.0
C      1  0.4961890000000  0.5698590000000  0.5254900000000 1.0
C      1  0.4621330000000  0.4172050000000  0.4305440000000 1.0
C      1  0.4655290000000  0.4674320000000  0.6007860000000 1.0
C      1  0.4435240000000  0.4383490000000  0.5689990000000 1.0
C      1  0.4907570000000  0.4984870000000  0.4522610000000 1.0
C      1  0.4187980000000  0.4838460000000  0.4277580000000 1.0
C      1  0.5352380000000  0.4210150000000  0.4168670000000 1.0
C      1  0.4939610000000  0.4832460000000  0.5744230000000 1.0
C      1  0.5844690000000  0.4495650000000  0.4869490000000 1.0
C      1  0.5902020000000  0.4584170000000  0.5174120000000 1.0
C      1  0.5509350000000  0.5297330000000  0.4740790000000 1.0
C      1  0.4774950000000  0.5149270000000  0.5514540000000 1.0
C      1  0.5831260000000  0.5559940000000  0.4757090000000 1.0
C      1  0.4455670000000  0.5204730000000  0.4938350000000 1.0
C      1  0.6028650000000  0.5161260000000  0.4544260000000 1.0
C      1  0.3927030000000  0.5094180000000  0.5333840000000 1.0
C      1  0.5079810000000  0.4714440000000  0.4587120000000 1.0
C      1  0.4828960000000  0.5464560000000  0.5911760000000 1.0
C      1  0.4486190000000  0.5224830000000  0.5350740000000 1.0
C      1  0.5260600000000  0.5072370000000  0.4684810000000 1.0
C      1  0.5154870000000  0.5086580000000  0.5829080000000 1.0
C      1  0.4883490000000  0.6000400000000  0.4854090000000 1.0
C      1  0.4898150000000  0.5200650000000  0.4775380000000 1.0
C      1  0.4994680000000  0.3996860000000  0.4598870000000 1.0
C      1  0.5565320000000  0.4572260000000  0.5142960000000 1.0
C      1  0.4172510000000  0.5164060000000  0.4754580000000 1.0
C      1  0.4675200000000  0.4115060000000  0.5332320000000 1.0
C      1  0.4557740000000  0.4647240000000  0.5214570000000 1.0
C      1  0.4585620000000  0.5024140000000  0.4605970000000 1.0
C      1  0.4116890000000  0.4423080000000  0.5450660000000 1.0
C      1  0.4933790000000  0.5852990000000  0.5738770000000 1.0
C      1  0.5932590000000  0.4999710000000  0.5023920000000 1.0
C      1  0.5687370000000  0.5235410000000  0.4997370000000 1.0
C      1  0.4320640000000  0.4934360000000  0.4552230000000 1.0
C      1  0.4837830000000  0.5669290000000  0.4939570000000 1.0
C      1  0.4541510000000  0.5799830000000  0.5043410000000 1.0
C      1  0.4525340000000  0.5479230000000  0.6004700000000 1.0
C      1  0.5461430000000  0.5133870000000  0.5163220000000 1.0
C      1  0.4378600000000  0.4815110000000  0.4085010000000 1.0
C      1  0.4283530000000  0.4454650000000  0.5155830000000 1.0
C      1  0.4721510000000  0.5216940000000  0.6113090000000 1.0
C      1  0.4635210000000  0.4952380000000  0.5989140000000 1.0
C      1  0.5580590000000  0.4972280000000  0.4267060000000 1.0
C      1  0.5619600000000  0.5310380000000  0.4290500000000 1.0
C      1  0.5213620000000  0.4325820000000  0.5655850000000 1.0
C      1  0.4413020000000  0.4253390000000  0.5393330000000 1.0
C      1  0.4727870000000  0.5249690000000  0.5132590000000 1.0
C      1  0.5701310000000  0.4263860000000  0.5072780000000 1.0
C      1  0.5727910000000  0.4123870000000  0.4784320000000 1.0
C      1  0.5338510000000  0.5759860000000  0.4250390000000 1.0
C      1  0.3994600000000  0.5349710000000  0.5206590000000 1.0
C      1  0.5122490000000  0.4552190000000  0.5804710000000 1.0
C      1  0.4292280000000  0.5207850000000  0.5721270000000 1.0
C      1  0.5332390000000  0.5766400000000  0.5036440000000 1.0
C      1  0.5470480000000  0.4440350000000  0.5508020000000 1.0
C      1  0.3951120000000  0.4816220000000  0.4466830000000 1.0
C      1  0.4672860000000  0.5301330000000  0.4462180000000 1.0
C      1  0.5577780000000  0.5777930000000  0.4819350000000 1.0
C      1  0.4206410000000  0.4577510000000  0.4783430000000 1.0
C      1  0.4096240000000  0.4740200000000  0.5392220000000 1.0
C      1  0.4303510000000  0.4268160000000  0.4886100000000 1.0
C      1  0.4362020000000  0.5665570000000  0.5543310000000 1.0
C      1  0.4247610000000  0.4894900000000  0.5636890000000 1.0
C      1  0.4272850000000  0.5464850000000  0.5302630000000 1.0
C      1  0.5332890000000  0.4806100000000  0.5756530000000 1.0
C      1  0.4662380000000  0.5423500000000  0.4779420000000 1.0
C      1  0.5362050000000  0.5865390000000  0.5558940000000 1.0
C      1  0.4604020000000  0.4497630000000  0.4742190000000 1.0
C      1  0.4820840000000  0.4403150000000  0.5408800000000 1.0
C      1  0.5233750000000  0.4280970000000  0.5026510000000 1.0
C      1  0.4505720000000  0.4919420000000  0.5096530000000 1.0
C      1  0.4868350000000  0.4489880000000  0.4333150000000 1.0
C      1  0.5425790000000  0.5853150000000  0.4553540000000 1.0
C      1  0.5671840000000  0.4021620000000  0.5286470000000 1.0
C      1  0.4248940000000  0.5014120000000  0.5259100000000 1.0
C      1  0.5005410000000  0.4734660000000  0.4189360000000 1.0
C      1  0.5758510000000  0.4532700000000  0.5609690000000 1.0
C      1  0.5988750000000  0.5392470000000  0.5007730000000 1.0
C      1  0.3979400000000  0.4547940000000  0.5031700000000 1.0
C      1  0.3947130000000  0.5340800000000  0.4937870000000 1.0
C      1  0.4994550000000  0.5649260000000  0.4079290000000 1.0
C      1  0.5141850000000  0.5705150000000  0.4791480000000 1.0
C      1  0.4890890000000  0.4593630000000  0.5152240000000 1.0
C      1  0.5167330000000  0.5506490000000  0.5446210000000 1.0
C      1  0.5600790000000  0.4463270000000  0.4473810000000 1.0
C      1  0.5119760000000  0.5991580000000  0.4609710000000 1.0
C      1  0.5034170000000  0.4199410000000  0.5487060000000 1.0
C      1  0.4737520000000  0.4563020000000  0.5697250000000 1.0
C      1  0.5493760000000  0.5521040000000  0.4525950000000 1.0
C      1  0.4468980000000  0.4677800000000  0.5523040000000 1.0
C      1  0.5949210000000  0.4667840000000  0.5441730000000 1.0
C      1  0.5324230000000  0.4765850000000  0.4817830000000 1.0
C      1  0.5867210000000  0.5393160000000  0.4495750000000 1.0
C      1  0.5307330000000  0.4773710000000  0.4341370000000 1.0
C      1  0.4337680000000  0.5467220000000  0.5794500000000 1.0
C      1  0.5180990000000  0.4120620000000  0.4362680000000 1.0
C      1  0.4727390000000  0.4072720000000  0.4536290000000 1.0
C      1  0.4306430000000  0.5590240000000  0.5014980000000 1.0
C      1  0.4582870000000  0.5574480000000  0.4387690000000 1.0
C      1  0.5281420000000  0.4245140000000  0.4725090000000 1.0
C      1  0.5947410000000  0.4947290000000  0.5332410000000 1.0
C      1  0.4609500000000  0.4195110000000  0.4776450000000 1.0
C      1  0.5047650000000  0.5187140000000  0.6096890000000 1.0
C      1  0.5106580000000  0.4001740000000  0.5268650000000 1.0
C      1  0.5447090000000  0.5655790000000  0.5323260000000 1.0
C      1  0.5858500000000  0.4890850000000  0.4446220000000 1.0
C      1  0.4785000000000  0.6004640000000  0.4530760000000 1.0
C      1  0.5473620000000  0.4516880000000  0.4192930000000 1.0
C      1  0.5229100000000  0.4608220000000  0.5106280000000 1.0
C      1  0.5533970000000  0.4224660000000  0.4609580000000 1.0
C      1  0.4877590000000  0.5421880000000  0.5602960000000 1.0
C      1  0.5654660000000  0.5060880000000  0.4640930000000 1.0
C      1  0.5823470000000  0.5754380000000  0.5037760000000 1.0
C      1  0.5556380000000  0.4867380000000  0.5311790000000 1.0
C      1  0.4703220000000  0.4017960000000  0.5046630000000 1.0
C      1  0.5185870000000  0.5952930000000  0.5282250000000 1.0
C      1  0.4847990000000  0.4645310000000  0.4826150000000 1.0
C      1  0.5183850000000  0.5456970000000  0.4042220000000 1.0
C      1  0.5013610000000  0.5387680000000  0.5013320000000 1.0
C      1  0.5242130000000  0.5409610000000  0.5765030000000 1.0
C      1  0.4527260000000  0.5887460000000  0.4719160000000 1.0
C      1  0.4574410000000  0.5850070000000  0.5338480000000 1.0
C      1  0.5117650000000  0.5178250000000  0.4147810000000 1.0
C      1  0.5718140000000  0.5123470000000  0.5467520000000 1.0
C      1  0.4261260000000  0.5492300000000  0.4742830000000 1.0
C      1  0.5875550000000  0.5362270000000  0.5324710000000 1.0
C      1  0.5200670000000  0.5747140000000  0.5762900000000 1.0
C      1  0.5391600000000  0.4182780000000  0.5311010000000 1.0
C      1  0.4402290000000  0.4607660000000  0.4523780000000 1.0
C      1  0.4964470000000  0.5014670000000  0.5142660000000 1.0
C      1  0.5741660000000  0.5620310000000  0.5276500000000 1.0
C      1  0.4553830000000  0.5022170000000  0.5707640000000 1.0
C      1  0.5604290000000  0.4836800000000  0.5891950000000 1.0
C      1  0.4399630000000  0.5674510000000  0.4571960000000 1.0
C      1  0.4829980000000  0.5743660000000  0.4343850000000 1.0
C      1  0.5025420000000  0.4026560000000  0.4937420000000 1.0
C      1  0.5705280000000  0.5068280000000  0.5863440000000 1.0
C      1  0.6131490000000  0.5157450000000  0.4809760000000 1.0
C      1  0.5221600000000  0.5132760000000  0.4995310000000 1.0
C      1  0.5465260000000  0.5526270000000  0.4103030000000 1.0
C      1  0.4750110000000  0.4931170000000  0.4892260000000 1.0
C      1  0.5917360000000  0.4797840000000  0.4768080000000 1.0
C      1  0.4688060000000  0.5679670000000  0.5606640000000 1.0
C      1  0.5608780000000  0.4670760000000  0.4701940000000 1.0
C      1  0.4696880000000  0.4688220000000  0.4047660000000 1.0
C      1  0.5073690000000  0.4381290000000  0.4535970000000 1.0
C      1  0.5526570000000  0.5261230000000  0.5686380000000 1.0
C      1  0.5056790000000  0.4968200000000  0.5455340000000 1.0
C      1  0.5246970000000  0.5305760000000  0.4434510000000 1.0
C      1  0.5114020000000  0.5619950000000  0.4463500000000 1.0
C      1  0.4544940000000  0.4490870000000  0.4279270000000 1.0
C      1  0.3916400000000  0.4843090000000  0.5122560000000 1.0
C      1  0.4637240000000  0.5008650000000  0.4051410000000 1.0
END
