TITL C-2847947-6848-338 0.00141848188288763 125000 -438.952001932458 0 0 81 (C1) n - 1
REM
REM in /home/bkarasulu/work/CARBON/AIRSS/Generating-Clusters/AIREBO/with-SteepDescent/Only-C1/SD-CG-opt/Try1-1.4A-POS3A/HFTN-CG
REM
REM
REM
REM
REM
REM ./C.cell (11c1c37f851c82e70ff6c80c92926a4b)
REM
REM compiler GCC version 9.2.1 20190827 (Red Hat 9.2.1-1)
REM options -cpp -mtune=generic -march=x86-64 -g -O0 -fpre-include=/usr/include/finclude/math-vector-fortran.h
REM seed 700857464 -1693362024 1984257742 -1020404742 -1739151292 15293281 1276834377 -734375506 -58816962 -2126970555 -669074847 990910301 -602186553 -201937166 -945425107 485094109 39098279 -1712314586 1312965904 -1431795899 2085574562 -643345194 1609193110 -1472263161 1275880228 690125356 631992369 1173022825 2014420191 66514510 583793230 2142626076 2144298403
REM
CELL 1.54180   50.00000   50.00000   50.00000   90.00000   90.00000   90.00000
LATT -1
SFAC C  
C      1  0.4853150000000  0.5577010000000  0.4586690000000 1.0
C      1  0.5102600000000  0.5067280000000  0.4875740000000 1.0
C      1  0.5065240000000  0.5156010000000  0.4487580000000 1.0
C      1  0.4699420000000  0.5046360000000  0.6075860000000 1.0
C      1  0.5394850000000  0.4813300000000  0.4719060000000 1.0
C      1  0.5256120000000  0.5267430000000  0.3952210000000 1.0
C      1  0.4910520000000  0.5609580000000  0.5117010000000 1.0
C      1  0.5235960000000  0.4320210000000  0.5279090000000 1.0
C      1  0.5015030000000  0.4774290000000  0.5452880000000 1.0
C      1  0.4808450000000  0.5357120000000  0.4363750000000 1.0
C      1  0.5459520000000  0.4975090000000  0.5012800000000 1.0
C      1  0.4808780000000  0.5021330000000  0.4309360000000 1.0
C      1  0.4384730000000  0.4175610000000  0.5330320000000 1.0
C      1  0.5641110000000  0.5186300000000  0.4946660000000 1.0
C      1  0.4824640000000  0.4607760000000  0.5225630000000 1.0
C      1  0.4254820000000  0.4783300000000  0.4765550000000 1.0
C      1  0.5599870000000  0.5573700000000  0.4806670000000 1.0
C      1  0.4641860000000  0.4041640000000  0.4854040000000 1.0
C      1  0.5697720000000  0.5168260000000  0.4656630000000 1.0
C      1  0.5895320000000  0.5126270000000  0.4480570000000 1.0
C      1  0.4604330000000  0.4976020000000  0.4771470000000 1.0
C      1  0.5547060000000  0.5448090000000  0.5088920000000 1.0
C      1  0.4645540000000  0.5820760000000  0.4525950000000 1.0
C      1  0.4628290000000  0.5028560000000  0.5765090000000 1.0
C      1  0.4777420000000  0.5269440000000  0.5451390000000 1.0
C      1  0.5369960000000  0.4317340000000  0.4783510000000 1.0
C      1  0.5040700000000  0.4391530000000  0.4563110000000 1.0
C      1  0.5651190000000  0.4341610000000  0.4589060000000 1.0
C      1  0.4408030000000  0.5573940000000  0.4838170000000 1.0
C      1  0.4540720000000  0.4168480000000  0.5095860000000 1.0
C      1  0.4352970000000  0.4407170000000  0.5479460000000 1.0
C      1  0.4371720000000  0.4603860000000  0.4918060000000 1.0
C      1  0.5225170000000  0.4665980000000  0.4483480000000 1.0
C      1  0.5212170000000  0.5143250000000  0.5174910000000 1.0
C      1  0.5506490000000  0.5479300000000  0.5399920000000 1.0
C      1  0.4591570000000  0.4840470000000  0.4397860000000 1.0
C      1  0.5216030000000  0.5469290000000  0.5101030000000 1.0
C      1  0.4301850000000  0.5116920000000  0.4748270000000 1.0
C      1  0.5501520000000  0.4665250000000  0.5875300000000 1.0
C      1  0.5000460000000  0.4800410000000  0.5007500000000 1.0
C      1  0.5121290000000  0.4032190000000  0.5141880000000 1.0
C      1  0.5310680000000  0.5396750000000  0.5649340000000 1.0
C      1  0.4326780000000  0.4908660000000  0.4479200000000 1.0
C      1  0.5199110000000  0.5868700000000  0.4776440000000 1.0
C      1  0.5396560000000  0.5475950000000  0.4587190000000 1.0
C      1  0.4620230000000  0.4454260000000  0.5030730000000 1.0
C      1  0.5504910000000  0.4453360000000  0.5333140000000 1.0
C      1  0.5099720000000  0.4846180000000  0.4291980000000 1.0
C      1  0.4677120000000  0.4691930000000  0.4652800000000 1.0
C      1  0.4625340000000  0.5017820000000  0.6324800000000 1.0
C      1  0.5102250000000  0.5218050000000  0.5679020000000 1.0
C      1  0.4381910000000  0.4676650000000  0.5489010000000 1.0
C      1  0.5574900000000  0.4572360000000  0.4830060000000 1.0
C      1  0.5134790000000  0.4302990000000  0.4959440000000 1.0
C      1  0.5358380000000  0.5147400000000  0.4666460000000 1.0
C      1  0.5167590000000  0.5139300000000  0.4153700000000 1.0
C      1  0.5283570000000  0.5684240000000  0.5510710000000 1.0
C      1  0.4842430000000  0.5174170000000  0.4743860000000 1.0
C      1  0.4733740000000  0.5225570000000  0.5057240000000 1.0
C      1  0.4562320000000  0.4935830000000  0.5489580000000 1.0
C      1  0.5211110000000  0.4658880000000  0.5696390000000 1.0
C      1  0.4492180000000  0.5206510000000  0.5296140000000 1.0
C      1  0.5248620000000  0.5803900000000  0.5040020000000 1.0
C      1  0.4708530000000  0.5520220000000  0.4889390000000 1.0
C      1  0.5517070000000  0.5507580000000  0.4330220000000 1.0
C      1  0.5060280000000  0.4439250000000  0.5493480000000 1.0
C      1  0.4742000000000  0.4920320000000  0.5200190000000 1.0
C      1  0.5117780000000  0.5789840000000  0.5317500000000 1.0
C      1  0.5043920000000  0.5069210000000  0.5414240000000 1.0
C      1  0.4233070000000  0.5305780000000  0.5177280000000 1.0
C      1  0.4249640000000  0.5354750000000  0.4907870000000 1.0
C      1  0.5790830000000  0.5746440000000  0.4759870000000 1.0
C      1  0.5507280000000  0.4554280000000  0.5582420000000 1.0
C      1  0.4897610000000  0.4518060000000  0.4844560000000 1.0
C      1  0.4911250000000  0.5158210000000  0.5864890000000 1.0
C      1  0.4399460000000  0.5785880000000  0.4651140000000 1.0
C      1  0.4821370000000  0.5542640000000  0.5417340000000 1.0
C      1  0.5348110000000  0.4354670000000  0.4446250000000 1.0
C      1  0.4829340000000  0.4188100000000  0.4730250000000 1.0
C      1  0.5657210000000  0.4522550000000  0.5123430000000 1.0
C      1  0.5146780000000  0.5655060000000  0.4614150000000 1.0
END
