TITL C-2847945-6269-647 0.000381759172931738 125000 -504.684388393795 0 0 93 (C1) n - 1
REM
REM in /home/bkarasulu/work/CARBON/AIRSS/Generating-Clusters/AIREBO/with-SteepDescent/Only-C1/SD-CG-opt/Try1-1.4A-POS3A/HFTN-CG
REM
REM
REM
REM
REM
REM ./C.cell (11c1c37f851c82e70ff6c80c92926a4b)
REM
REM compiler GCC version 9.2.1 20190827 (Red Hat 9.2.1-1)
REM options -cpp -mtune=generic -march=x86-64 -g -O0 -fpre-include=/usr/include/finclude/math-vector-fortran.h
REM seed 1868641228 -1246721415 515483385 48131315 -790572511 -1773126693 1896713561 1782893045 -1942614077 24671169 1677470478 167621170 -378136488 -1614552107 -1958279830 -1062711801 -1410790922 447239485 -609352966 -578240559 -824790514 909440798 1150540728 -154669278 772786111 895106339 55217605 1458212350 1901777678 174997758 596669601 495998570 -1206360400
REM
CELL 1.54180   50.00000   50.00000   50.00000   90.00000   90.00000   90.00000
LATT -1
SFAC C  
C      1  0.4410050000000  0.5006120000000  0.5647500000000 1.0
C      1  0.5104750000000  0.5135180000000  0.5363310000000 1.0
C      1  0.5367500000000  0.4697550000000  0.4313290000000 1.0
C      1  0.4814090000000  0.5678600000000  0.5554600000000 1.0
C      1  0.4492370000000  0.5397660000000  0.4886450000000 1.0
C      1  0.4345910000000  0.5259390000000  0.5457760000000 1.0
C      1  0.5680520000000  0.4533220000000  0.5199650000000 1.0
C      1  0.4635460000000  0.4983640000000  0.5135100000000 1.0
C      1  0.5480350000000  0.4945740000000  0.4856520000000 1.0
C      1  0.5675120000000  0.5251720000000  0.5612750000000 1.0
C      1  0.5387520000000  0.4720240000000  0.5599740000000 1.0
C      1  0.5678240000000  0.5751220000000  0.5020480000000 1.0
C      1  0.5070620000000  0.5812390000000  0.5168310000000 1.0
C      1  0.4904830000000  0.5231130000000  0.5581830000000 1.0
C      1  0.4766290000000  0.5404460000000  0.4236660000000 1.0
C      1  0.4228510000000  0.5213190000000  0.4856560000000 1.0
C      1  0.5218170000000  0.4343140000000  0.5240870000000 1.0
C      1  0.4378670000000  0.4879930000000  0.5336900000000 1.0
C      1  0.4501920000000  0.4875660000000  0.4618750000000 1.0
C      1  0.5206650000000  0.5126300000000  0.4825810000000 1.0
C      1  0.5832980000000  0.4734710000000  0.5194960000000 1.0
C      1  0.5089930000000  0.5335560000000  0.4304380000000 1.0
C      1  0.5487050000000  0.5519640000000  0.5084740000000 1.0
C      1  0.4177070000000  0.5127410000000  0.4590230000000 1.0
C      1  0.4861160000000  0.5734400000000  0.4612540000000 1.0
C      1  0.5828810000000  0.5274980000000  0.5309730000000 1.0
C      1  0.5385900000000  0.4590680000000  0.5285120000000 1.0
C      1  0.4533360000000  0.4128600000000  0.5129280000000 1.0
C      1  0.4989920000000  0.5504850000000  0.5667140000000 1.0
C      1  0.5573010000000  0.5277400000000  0.4861780000000 1.0
C      1  0.4712560000000  0.4593650000000  0.5169060000000 1.0
C      1  0.5780060000000  0.4955160000000  0.5634280000000 1.0
C      1  0.5087860000000  0.5798740000000  0.4515150000000 1.0
C      1  0.4801100000000  0.4363480000000  0.4467840000000 1.0
C      1  0.4801230000000  0.4544810000000  0.4855560000000 1.0
C      1  0.5656730000000  0.5202100000000  0.4320050000000 1.0
C      1  0.5706720000000  0.4987600000000  0.5317090000000 1.0
C      1  0.4458410000000  0.4888090000000  0.4892870000000 1.0
C      1  0.5141500000000  0.4814470000000  0.4200590000000 1.0
C      1  0.5863980000000  0.4818580000000  0.4472750000000 1.0
C      1  0.4465710000000  0.5869580000000  0.5031370000000 1.0
C      1  0.4985890000000  0.5089620000000  0.4134180000000 1.0
C      1  0.4785860000000  0.4006660000000  0.5111070000000 1.0
C      1  0.4924540000000  0.4839070000000  0.5169540000000 1.0
C      1  0.4987580000000  0.5504360000000  0.5032870000000 1.0
C      1  0.4905210000000  0.4539080000000  0.5513960000000 1.0
C      1  0.5259220000000  0.5509850000000  0.5573520000000 1.0
C      1  0.5497770000000  0.5372460000000  0.4555930000000 1.0
C      1  0.5214700000000  0.4989800000000  0.5714860000000 1.0
C      1  0.5413160000000  0.5044180000000  0.5237680000000 1.0
C      1  0.5181220000000  0.4286120000000  0.4935740000000 1.0
C      1  0.5233890000000  0.5293570000000  0.5091580000000 1.0
C      1  0.4748410000000  0.5838190000000  0.5070770000000 1.0
C      1  0.5568630000000  0.4779080000000  0.4575100000000 1.0
C      1  0.4217550000000  0.5344030000000  0.5170290000000 1.0
C      1  0.4529720000000  0.4317970000000  0.4846880000000 1.0
C      1  0.5397880000000  0.5055080000000  0.4484320000000 1.0
C      1  0.5277720000000  0.5626190000000  0.5308280000000 1.0
C      1  0.5025340000000  0.4827290000000  0.5483800000000 1.0
C      1  0.4826580000000  0.4738780000000  0.4193430000000 1.0
C      1  0.4873380000000  0.4919050000000  0.4477980000000 1.0
C      1  0.4804710000000  0.5431150000000  0.4755580000000 1.0
C      1  0.4766780000000  0.4189680000000  0.4677300000000 1.0
C      1  0.4628680000000  0.4902030000000  0.5808170000000 1.0
C      1  0.4763480000000  0.5212860000000  0.4497960000000 1.0
C      1  0.4588110000000  0.4541080000000  0.5483380000000 1.0
C      1  0.5636040000000  0.4729970000000  0.5723610000000 1.0
C      1  0.5846150000000  0.5354270000000  0.5049410000000 1.0
C      1  0.5438700000000  0.4169530000000  0.4815580000000 1.0
C      1  0.4664720000000  0.5014400000000  0.4150880000000 1.0
C      1  0.5129520000000  0.4597220000000  0.4820890000000 1.0
C      1  0.5109740000000  0.5335500000000  0.4639700000000 1.0
C      1  0.4154760000000  0.5012550000000  0.5117990000000 1.0
C      1  0.4411560000000  0.4453560000000  0.5135470000000 1.0
C      1  0.5247230000000  0.4805670000000  0.5061020000000 1.0
C      1  0.4885690000000  0.5019600000000  0.5804400000000 1.0
C      1  0.5281570000000  0.5579180000000  0.4429300000000 1.0
C      1  0.4324830000000  0.5635150000000  0.5025350000000 1.0
C      1  0.4704040000000  0.4653190000000  0.4559270000000 1.0
C      1  0.4271370000000  0.4566100000000  0.5414070000000 1.0
C      1  0.5143180000000  0.4875330000000  0.4621940000000 1.0
C      1  0.4418460000000  0.5055840000000  0.4376410000000 1.0
C      1  0.4245750000000  0.4705820000000  0.5002640000000 1.0
C      1  0.4483690000000  0.5353970000000  0.4249630000000 1.0
C      1  0.4630310000000  0.4618090000000  0.5791320000000 1.0
C      1  0.4662130000000  0.5296350000000  0.5126530000000 1.0
C      1  0.4941180000000  0.4102740000000  0.4885870000000 1.0
C      1  0.5653250000000  0.4074270000000  0.4715620000000 1.0
C      1  0.5039730000000  0.4318310000000  0.5440000000000 1.0
C      1  0.5884440000000  0.5053290000000  0.4322640000000 1.0
C      1  0.4645200000000  0.5247810000000  0.5438890000000 1.0
C      1  0.5396480000000  0.5276120000000  0.5677710000000 1.0
C      1  0.4761700000000  0.5587980000000  0.5270340000000 1.0
END
