TITL C-2847958-8115-269 -0.00313449154643524 125000 -434.920347256402 0 0 81 (C1) n - 1
REM
REM in /home/bkarasulu/work/CARBON/AIRSS/Generating-Clusters/AIREBO/with-SteepDescent/Only-C1/SD-CG-opt/Try1-1.4A-POS3A/HFTN-CG
REM
REM
REM
REM
REM
REM ./C.cell (11c1c37f851c82e70ff6c80c92926a4b)
REM
REM compiler GCC version 9.2.1 20190827 (Red Hat 9.2.1-1)
REM options -cpp -mtune=generic -march=x86-64 -g -O0 -fpre-include=/usr/include/finclude/math-vector-fortran.h
REM seed -205544809 -1949921789 -2023375919 653682290 -444755146 31251509 -1738633427 -1441686890 -1444464339 -1346534191 423830757 -1216769536 1312081437 -1365175884 674317685 536819563 -1616052393 1623018195 -2060006984 -714176521 -1727572531 -2067957623 -427077189 -48883838 1381686477 -46842962 -1139292481 1667089317 -1339535657 -1104147695 -307530891 -1796237949 2035061459
REM
CELL 1.54180   50.00000   50.00000   50.00000   90.00000   90.00000   90.00000
LATT -1
SFAC C  
C      1  0.4731310000000  0.5192340000000  0.5584260000000 1.0
C      1  0.4938950000000  0.5463790000000  0.4846620000000 1.0
C      1  0.5460920000000  0.5447350000000  0.4928980000000 1.0
C      1  0.4419760000000  0.4868130000000  0.5369540000000 1.0
C      1  0.4382280000000  0.4522460000000  0.4531360000000 1.0
C      1  0.5253010000000  0.4404120000000  0.4445800000000 1.0
C      1  0.5604530000000  0.4885980000000  0.4436510000000 1.0
C      1  0.4817870000000  0.4661460000000  0.4752720000000 1.0
C      1  0.4433860000000  0.4472420000000  0.5310650000000 1.0
C      1  0.5369580000000  0.4898980000000  0.5068320000000 1.0
C      1  0.5103510000000  0.5854990000000  0.5284120000000 1.0
C      1  0.5162810000000  0.5327060000000  0.4988420000000 1.0
C      1  0.4788450000000  0.5799470000000  0.5100380000000 1.0
C      1  0.4968180000000  0.5140390000000  0.4576000000000 1.0
C      1  0.5792920000000  0.5076660000000  0.5779040000000 1.0
C      1  0.5390760000000  0.5093700000000  0.4571760000000 1.0
C      1  0.4688830000000  0.4247150000000  0.5038120000000 1.0
C      1  0.5889220000000  0.4614420000000  0.5338250000000 1.0
C      1  0.5495210000000  0.5378020000000  0.4626550000000 1.0
C      1  0.5981980000000  0.4618780000000  0.4586540000000 1.0
C      1  0.5593400000000  0.5275430000000  0.5362740000000 1.0
C      1  0.4229510000000  0.4786720000000  0.5172050000000 1.0
C      1  0.4520540000000  0.5028170000000  0.4912460000000 1.0
C      1  0.4294310000000  0.4514310000000  0.5060210000000 1.0
C      1  0.5803730000000  0.5094000000000  0.4974640000000 1.0
C      1  0.4876890000000  0.4690400000000  0.4418430000000 1.0
C      1  0.5523160000000  0.4443790000000  0.4593210000000 1.0
C      1  0.4994810000000  0.5076090000000  0.5403500000000 1.0
C      1  0.5026480000000  0.4669170000000  0.5763180000000 1.0
C      1  0.4843310000000  0.4332250000000  0.5249320000000 1.0
C      1  0.5659020000000  0.5014500000000  0.5544380000000 1.0
C      1  0.5173050000000  0.5034940000000  0.4826290000000 1.0
C      1  0.4603570000000  0.5509710000000  0.4371290000000 1.0
C      1  0.4901340000000  0.5736860000000  0.5478140000000 1.0
C      1  0.4273500000000  0.5276470000000  0.4595620000000 1.0
C      1  0.4354260000000  0.5306260000000  0.5015780000000 1.0
C      1  0.4566760000000  0.4732490000000  0.4328160000000 1.0
C      1  0.5281030000000  0.4269360000000  0.5150210000000 1.0
C      1  0.5370940000000  0.4946550000000  0.5405360000000 1.0
C      1  0.5123610000000  0.5332500000000  0.5289940000000 1.0
C      1  0.4678170000000  0.4681000000000  0.5352790000000 1.0
C      1  0.5082320000000  0.5827290000000  0.4945690000000 1.0
C      1  0.4792500000000  0.4336960000000  0.4744210000000 1.0
C      1  0.5830310000000  0.4573220000000  0.5073520000000 1.0
C      1  0.4528560000000  0.4801790000000  0.4658880000000 1.0
C      1  0.4847180000000  0.5447350000000  0.5414180000000 1.0
C      1  0.4463480000000  0.5120740000000  0.5485900000000 1.0
C      1  0.5549220000000  0.4458560000000  0.5061380000000 1.0
C      1  0.4066560000000  0.5250150000000  0.5186900000000 1.0
C      1  0.5127900000000  0.4709340000000  0.4799570000000 1.0
C      1  0.5666170000000  0.4814620000000  0.4924680000000 1.0
C      1  0.5088350000000  0.4561780000000  0.5303290000000 1.0
C      1  0.5306400000000  0.4868630000000  0.4332380000000 1.0
C      1  0.5709970000000  0.4683850000000  0.4630480000000 1.0
C      1  0.5070590000000  0.4252350000000  0.4654700000000 1.0
C      1  0.4571700000000  0.5637750000000  0.4908450000000 1.0
C      1  0.4986040000000  0.5173890000000  0.5789940000000 1.0
C      1  0.5666140000000  0.5292000000000  0.5096690000000 1.0
C      1  0.4750940000000  0.4819100000000  0.5050060000000 1.0
C      1  0.4677290000000  0.5036540000000  0.4433130000000 1.0
C      1  0.5402570000000  0.4515580000000  0.5358340000000 1.0
C      1  0.4726940000000  0.5615800000000  0.4625650000000 1.0
C      1  0.5385830000000  0.5729620000000  0.5033880000000 1.0
C      1  0.5291030000000  0.4433860000000  0.4841440000000 1.0
C      1  0.5088770000000  0.5433290000000  0.4478000000000 1.0
C      1  0.5052690000000  0.4851160000000  0.5184220000000 1.0
C      1  0.5658930000000  0.4689980000000  0.5475510000000 1.0
C      1  0.4722960000000  0.5234170000000  0.4774340000000 1.0
C      1  0.4349210000000  0.5357870000000  0.5338910000000 1.0
C      1  0.5158050000000  0.4930090000000  0.5661390000000 1.0
C      1  0.4482550000000  0.5266030000000  0.4403340000000 1.0
C      1  0.4220080000000  0.5037630000000  0.4753170000000 1.0
C      1  0.4303920000000  0.5514770000000  0.4774850000000 1.0
C      1  0.4602590000000  0.5539500000000  0.5223040000000 1.0
C      1  0.4469910000000  0.4404020000000  0.4828220000000 1.0
C      1  0.5387890000000  0.5718560000000  0.5336290000000 1.0
C      1  0.5041630000000  0.5716030000000  0.4643940000000 1.0
C      1  0.5140140000000  0.4646720000000  0.4344650000000 1.0
C      1  0.4104230000000  0.4994580000000  0.5024750000000 1.0
C      1  0.4888400000000  0.4542820000000  0.5553120000000 1.0
C      1  0.5374780000000  0.5443400000000  0.5417260000000 1.0
END
