TITL C-2848495-5024-108 0.000236391350461744 125000 -366.877489556515 0 0 70 (C1) n - 1
REM
REM in /home/bkarasulu/work/CARBON/AIRSS/Generating-Clusters/AIREBO/with-SteepDescent/Only-C1/SD-CG-opt/Try1-1.4A-POS3A/HFTN-CG
REM
REM
REM
REM
REM
REM ./C.cell (11c1c37f851c82e70ff6c80c92926a4b)
REM
REM compiler GCC version 9.2.1 20190827 (Red Hat 9.2.1-1)
REM options -cpp -mtune=generic -march=x86-64 -g -O0 -fpre-include=/usr/include/finclude/math-vector-fortran.h
REM seed -99861591 -1509004803 -1342936353 1603180767 723210771 1650428963 1249839914 -1465062661 911942221 1604282299 791974127 -796775169 -150597240 -1758926551 1348920549 1391975885 -466131373 2088460411 962317420 1619395950 -1516086830 -1187655270 -1239673025 -1683321936 733752449 439769796 145940225 -2041994072 1190785935 2066510452 1095330801 1168265472 200029296
REM
CELL 1.54180   50.00000   50.00000   50.00000   90.00000   90.00000   90.00000
LATT -1
SFAC C  
C      1  0.5219930000000  0.4750120000000  0.4951080000000 1.0
C      1  0.4809080000000  0.5255610000000  0.5294990000000 1.0
C      1  0.5400920000000  0.5342420000000  0.5219230000000 1.0
C      1  0.5471780000000  0.5235840000000  0.4771790000000 1.0
C      1  0.4550030000000  0.4794000000000  0.5208030000000 1.0
C      1  0.4803690000000  0.5144450000000  0.5687800000000 1.0
C      1  0.5486160000000  0.4891080000000  0.5366840000000 1.0
C      1  0.4869030000000  0.4790660000000  0.4766140000000 1.0
C      1  0.5507960000000  0.4600430000000  0.4473440000000 1.0
C      1  0.5252830000000  0.4624600000000  0.4255640000000 1.0
C      1  0.5014820000000  0.5236270000000  0.4786730000000 1.0
C      1  0.4467830000000  0.5680570000000  0.5129720000000 1.0
C      1  0.4645380000000  0.4627270000000  0.4481940000000 1.0
C      1  0.5539280000000  0.4515550000000  0.4991400000000 1.0
C      1  0.5046890000000  0.4356800000000  0.4273710000000 1.0
C      1  0.4286230000000  0.5513590000000  0.5157590000000 1.0
C      1  0.5228090000000  0.5310410000000  0.5590180000000 1.0
C      1  0.5644350000000  0.5053820000000  0.4906220000000 1.0
C      1  0.5119500000000  0.5630880000000  0.5155530000000 1.0
C      1  0.4740550000000  0.5528260000000  0.5378170000000 1.0
C      1  0.4738860000000  0.4058660000000  0.4920010000000 1.0
C      1  0.4902300000000  0.5745640000000  0.4716170000000 1.0
C      1  0.5358510000000  0.4463620000000  0.5220630000000 1.0
C      1  0.5740390000000  0.5362260000000  0.5224550000000 1.0
C      1  0.4192490000000  0.5124470000000  0.4794030000000 1.0
C      1  0.5074490000000  0.5107770000000  0.5743060000000 1.0
C      1  0.4349030000000  0.4589620000000  0.4916190000000 1.0
C      1  0.4809370000000  0.4974780000000  0.4321430000000 1.0
C      1  0.4844540000000  0.5256870000000  0.4462690000000 1.0
C      1  0.4359690000000  0.5165240000000  0.4571990000000 1.0
C      1  0.4969210000000  0.4893640000000  0.5319150000000 1.0
C      1  0.4696770000000  0.5408730000000  0.5646990000000 1.0
C      1  0.4308080000000  0.4893370000000  0.4997150000000 1.0
C      1  0.5158180000000  0.4716940000000  0.4631950000000 1.0
C      1  0.4284110000000  0.5213230000000  0.5109930000000 1.0
C      1  0.4403840000000  0.4902320000000  0.5646540000000 1.0
C      1  0.5170810000000  0.4242740000000  0.5165820000000 1.0
C      1  0.4929110000000  0.4278880000000  0.5328890000000 1.0
C      1  0.4567450000000  0.5386140000000  0.4531780000000 1.0
C      1  0.5181260000000  0.4394570000000  0.4574740000000 1.0
C      1  0.5118240000000  0.4428970000000  0.4902740000000 1.0
C      1  0.5345500000000  0.4897190000000  0.4439680000000 1.0
C      1  0.5000810000000  0.4973920000000  0.5002620000000 1.0
C      1  0.5512790000000  0.4829380000000  0.5058410000000 1.0
C      1  0.4970910000000  0.4475950000000  0.5520250000000 1.0
C      1  0.5479010000000  0.4446000000000  0.4730830000000 1.0
C      1  0.5517180000000  0.5453620000000  0.5519080000000 1.0
C      1  0.5113130000000  0.5541330000000  0.4700650000000 1.0
C      1  0.4612550000000  0.4518430000000  0.5207130000000 1.0
C      1  0.4646090000000  0.4539260000000  0.4804440000000 1.0
C      1  0.5545190000000  0.5721910000000  0.4894380000000 1.0
C      1  0.4921680000000  0.4670750000000  0.4313530000000 1.0
C      1  0.4621090000000  0.4957830000000  0.4604110000000 1.0
C      1  0.5389890000000  0.5406050000000  0.4241600000000 1.0
C      1  0.4700570000000  0.5183650000000  0.4845590000000 1.0
C      1  0.5218170000000  0.4693450000000  0.5435640000000 1.0
C      1  0.5118420000000  0.5196950000000  0.5310100000000 1.0
C      1  0.5129280000000  0.5375230000000  0.4431380000000 1.0
C      1  0.5380670000000  0.5175680000000  0.4493370000000 1.0
C      1  0.5182190000000  0.4852930000000  0.5733850000000 1.0
C      1  0.5851270000000  0.5184240000000  0.5045900000000 1.0
C      1  0.5344350000000  0.5508940000000  0.4931320000000 1.0
C      1  0.5220370000000  0.5616750000000  0.5442870000000 1.0
C      1  0.4812570000000  0.4326110000000  0.5010590000000 1.0
C      1  0.4799900000000  0.5686040000000  0.5096020000000 1.0
C      1  0.4610450000000  0.5115100000000  0.5126290000000 1.0
C      1  0.4681280000000  0.4909080000000  0.5499800000000 1.0
C      1  0.5566210000000  0.5117260000000  0.5503440000000 1.0
C      1  0.4678380000000  0.5523110000000  0.4822960000000 1.0
C      1  0.4769020000000  0.4612770000000  0.5641610000000 1.0
END
