TITL C-2847953-8112-362 -0.000570532979484647 125000 -975.728455098669 0 0 180 (C1) n - 1
REM
REM in /home/bkarasulu/work/CARBON/AIRSS/Generating-Clusters/AIREBO/with-SteepDescent/Only-C1/SD-CG-opt/Try1-1.4A-POS3A/HFTN-CG
REM
REM
REM
REM
REM
REM ./C.cell (11c1c37f851c82e70ff6c80c92926a4b)
REM
REM compiler GCC version 9.2.1 20190827 (Red Hat 9.2.1-1)
REM options -cpp -mtune=generic -march=x86-64 -g -O0 -fpre-include=/usr/include/finclude/math-vector-fortran.h
REM seed 1995837624 -1403390817 -1913153514 -658756955 -72284762 -310622711 -1910019562 1725317950 -890009797 1052843192 1727834055 -1829859877 1314236968 -51146919 578349793 -2130396058 265143602 -666007905 -1342432076 1756402579 -670493565 -81377688 -1491356419 1222109043 -925248992 1827884575 -1173180671 -796790755 -1136080757 -1222725542 -486769335 -1871942557 1550149282
REM
CELL 1.54180   50.00000   50.00000   50.00000   90.00000   90.00000   90.00000
LATT -1
SFAC C  
C      1  0.4960880000000  0.4976550000000  0.4638730000000 1.0
C      1  0.4103140000000  0.5324770000000  0.5415110000000 1.0
C      1  0.4238680000000  0.5361300000000  0.5041440000000 1.0
C      1  0.5490520000000  0.4504930000000  0.5089990000000 1.0
C      1  0.5069420000000  0.6034840000000  0.5212080000000 1.0
C      1  0.4554900000000  0.4310890000000  0.4444490000000 1.0
C      1  0.4771110000000  0.4618940000000  0.5474730000000 1.0
C      1  0.5755830000000  0.4800450000000  0.5792450000000 1.0
C      1  0.4841540000000  0.5198950000000  0.5143600000000 1.0
C      1  0.5788460000000  0.4413420000000  0.5468220000000 1.0
C      1  0.5302440000000  0.5234150000000  0.4743290000000 1.0
C      1  0.4649320000000  0.5972940000000  0.5465090000000 1.0
C      1  0.4231500000000  0.4932940000000  0.4359700000000 1.0
C      1  0.4114030000000  0.4470350000000  0.5458560000000 1.0
C      1  0.5461780000000  0.4958830000000  0.5857150000000 1.0
C      1  0.4747820000000  0.5508080000000  0.5710470000000 1.0
C      1  0.4970670000000  0.4361330000000  0.4249260000000 1.0
C      1  0.4857000000000  0.4441430000000  0.4904880000000 1.0
C      1  0.4997780000000  0.4274400000000  0.4644210000000 1.0
C      1  0.4521340000000  0.4690250000000  0.4047700000000 1.0
C      1  0.4607270000000  0.4766100000000  0.6004470000000 1.0
C      1  0.4180860000000  0.4651880000000  0.4358620000000 1.0
C      1  0.5450750000000  0.5904450000000  0.4912530000000 1.0
C      1  0.5387370000000  0.4632870000000  0.5795090000000 1.0
C      1  0.4432390000000  0.5854040000000  0.5039000000000 1.0
C      1  0.4897330000000  0.4891580000000  0.5943560000000 1.0
C      1  0.3926140000000  0.4400060000000  0.4734460000000 1.0
C      1  0.4379480000000  0.5837750000000  0.4429420000000 1.0
C      1  0.4769470000000  0.4550880000000  0.4399890000000 1.0
C      1  0.5453470000000  0.4270060000000  0.4376660000000 1.0
C      1  0.4808920000000  0.4682680000000  0.5139710000000 1.0
C      1  0.4476590000000  0.5057410000000  0.5185550000000 1.0
C      1  0.4558400000000  0.5349050000000  0.5493710000000 1.0
C      1  0.5058120000000  0.6084630000000  0.4635940000000 1.0
C      1  0.5567670000000  0.4249180000000  0.5178860000000 1.0
C      1  0.5870590000000  0.4257090000000  0.5187700000000 1.0
C      1  0.4649960000000  0.6017300000000  0.4975230000000 1.0
C      1  0.5800920000000  0.5507650000000  0.5472360000000 1.0
C      1  0.5580970000000  0.5278510000000  0.5904420000000 1.0
C      1  0.5778860000000  0.5549790000000  0.4445870000000 1.0
C      1  0.4294400000000  0.4435790000000  0.5713610000000 1.0
C      1  0.4197130000000  0.5741370000000  0.4925340000000 1.0
C      1  0.5019650000000  0.4481050000000  0.5830100000000 1.0
C      1  0.5217280000000  0.5517690000000  0.5007970000000 1.0
C      1  0.5613410000000  0.5845900000000  0.5183740000000 1.0
C      1  0.5960920000000  0.5397290000000  0.5252650000000 1.0
C      1  0.4836290000000  0.5669090000000  0.4150150000000 1.0
C      1  0.5549720000000  0.5190700000000  0.4333020000000 1.0
C      1  0.5259460000000  0.5755500000000  0.4530570000000 1.0
C      1  0.5164270000000  0.5978680000000  0.4918320000000 1.0
C      1  0.5234620000000  0.4428790000000  0.4178540000000 1.0
C      1  0.5007590000000  0.4771610000000  0.5665540000000 1.0
C      1  0.5813570000000  0.5781650000000  0.4950040000000 1.0
C      1  0.6320670000000  0.5114910000000  0.5100820000000 1.0
C      1  0.5272530000000  0.4843670000000  0.4883010000000 1.0
C      1  0.5190660000000  0.5806920000000  0.5408620000000 1.0
C      1  0.5292870000000  0.4546180000000  0.5498980000000 1.0
C      1  0.5005810000000  0.5368020000000  0.4703390000000 1.0
C      1  0.4921760000000  0.4090190000000  0.4363550000000 1.0
C      1  0.5054740000000  0.5399190000000  0.5282820000000 1.0
C      1  0.4438110000000  0.5444090000000  0.4392610000000 1.0
C      1  0.5450430000000  0.5283180000000  0.4028790000000 1.0
C      1  0.5686540000000  0.4263380000000  0.4701160000000 1.0
C      1  0.4683650000000  0.5561600000000  0.4890670000000 1.0
C      1  0.4235510000000  0.5181890000000  0.4778000000000 1.0
C      1  0.4434890000000  0.4141160000000  0.5427470000000 1.0
C      1  0.4557940000000  0.5386430000000  0.5155860000000 1.0
C      1  0.6125600000000  0.5145760000000  0.5333420000000 1.0
C      1  0.4545820000000  0.5696040000000  0.5296910000000 1.0
C      1  0.4393330000000  0.4512670000000  0.4241820000000 1.0
C      1  0.4747380000000  0.5255600000000  0.4828970000000 1.0
C      1  0.3988700000000  0.4928040000000  0.5019570000000 1.0
C      1  0.5630920000000  0.5739940000000  0.4675060000000 1.0
C      1  0.4714280000000  0.5094470000000  0.5758260000000 1.0
C      1  0.5296210000000  0.4119160000000  0.5431240000000 1.0
C      1  0.5283210000000  0.4382870000000  0.4629960000000 1.0
C      1  0.4827710000000  0.5405760000000  0.6004960000000 1.0
C      1  0.4654040000000  0.3961380000000  0.4921440000000 1.0
C      1  0.3993230000000  0.4344460000000  0.5200590000000 1.0
C      1  0.4766690000000  0.5826210000000  0.5683470000000 1.0
C      1  0.4965100000000  0.5714680000000  0.4997510000000 1.0
C      1  0.4769750000000  0.4701930000000  0.4704510000000 1.0
C      1  0.4564380000000  0.4285110000000  0.4931950000000 1.0
C      1  0.4985100000000  0.4102390000000  0.5492380000000 1.0
C      1  0.4911970000000  0.5217020000000  0.3795180000000 1.0
C      1  0.5357400000000  0.5012890000000  0.4518060000000 1.0
C      1  0.5994960000000  0.4723180000000  0.5063410000000 1.0
C      1  0.5482990000000  0.5108270000000  0.5552360000000 1.0
C      1  0.4786910000000  0.5395280000000  0.4055260000000 1.0
C      1  0.4772620000000  0.4101310000000  0.5219270000000 1.0
C      1  0.5518680000000  0.4662620000000  0.4380660000000 1.0
C      1  0.5142440000000  0.5475320000000  0.5768790000000 1.0
C      1  0.4378540000000  0.4056260000000  0.5101530000000 1.0
C      1  0.5775600000000  0.5253610000000  0.5011000000000 1.0
C      1  0.5514410000000  0.4317290000000  0.5585300000000 1.0
C      1  0.4320640000000  0.5114270000000  0.5528850000000 1.0
C      1  0.6019380000000  0.4574940000000  0.4830760000000 1.0
C      1  0.5834060000000  0.5003290000000  0.4318310000000 1.0
C      1  0.5376390000000  0.5550270000000  0.4743380000000 1.0
C      1  0.4885860000000  0.5693100000000  0.5309350000000 1.0
C      1  0.4596580000000  0.4366920000000  0.5624830000000 1.0
C      1  0.4017900000000  0.4635040000000  0.4584650000000 1.0
C      1  0.5254440000000  0.4695250000000  0.4577610000000 1.0
C      1  0.5854580000000  0.4997770000000  0.4714410000000 1.0
C      1  0.5505280000000  0.4327910000000  0.5909080000000 1.0
C      1  0.4832380000000  0.4863030000000  0.4346010000000 1.0
C      1  0.4536860000000  0.5285690000000  0.4171770000000 1.0
C      1  0.5054670000000  0.4258120000000  0.5112200000000 1.0
C      1  0.4720050000000  0.4078640000000  0.4630600000000 1.0
C      1  0.5040150000000  0.4424810000000  0.5400340000000 1.0
C      1  0.4593890000000  0.3866700000000  0.5390740000000 1.0
C      1  0.5387190000000  0.5340850000000  0.5323580000000 1.0
C      1  0.5734180000000  0.4447580000000  0.4449960000000 1.0
C      1  0.4161120000000  0.4241980000000  0.4921890000000 1.0
C      1  0.4443880000000  0.4689400000000  0.5803550000000 1.0
C      1  0.5265930000000  0.4687000000000  0.4073200000000 1.0
C      1  0.4533300000000  0.4975530000000  0.4107690000000 1.0
C      1  0.4024470000000  0.4916120000000  0.4703870000000 1.0
C      1  0.3956270000000  0.5222680000000  0.5060870000000 1.0
C      1  0.5234750000000  0.4443970000000  0.6029040000000 1.0
C      1  0.5126320000000  0.5700680000000  0.4230940000000 1.0
C      1  0.3994720000000  0.4599350000000  0.4981830000000 1.0
C      1  0.4996280000000  0.5670720000000  0.4666440000000 1.0
C      1  0.4449110000000  0.5276150000000  0.5871280000000 1.0
C      1  0.4772270000000  0.5022990000000  0.5423840000000 1.0
C      1  0.5100950000000  0.5310080000000  0.6037680000000 1.0
C      1  0.4086680000000  0.5598510000000  0.5213690000000 1.0
C      1  0.4025310000000  0.5133350000000  0.4445480000000 1.0
C      1  0.4265650000000  0.5681190000000  0.5489230000000 1.0
C      1  0.4375940000000  0.4603630000000  0.5311480000000 1.0
C      1  0.4949630000000  0.5265960000000  0.5582550000000 1.0
C      1  0.5928100000000  0.4308770000000  0.4892600000000 1.0
C      1  0.5963500000000  0.5524970000000  0.4949370000000 1.0
C      1  0.5160440000000  0.5008350000000  0.5512440000000 1.0
C      1  0.5634000000000  0.4906260000000  0.5373540000000 1.0
C      1  0.5876380000000  0.4666380000000  0.5576030000000 1.0
C      1  0.5001840000000  0.5238120000000  0.4423600000000 1.0
C      1  0.5436820000000  0.5516530000000  0.5739810000000 1.0
C      1  0.5470840000000  0.5207970000000  0.5028040000000 1.0
C      1  0.4538570000000  0.4998970000000  0.4446840000000 1.0
C      1  0.4571700000000  0.4375490000000  0.5230740000000 1.0
C      1  0.4205460000000  0.5693840000000  0.4645780000000 1.0
C      1  0.5896210000000  0.5244580000000  0.4524000000000 1.0
C      1  0.5529180000000  0.4533820000000  0.4809940000000 1.0
C      1  0.4614490000000  0.5809860000000  0.4228250000000 1.0
C      1  0.4957710000000  0.4927230000000  0.4975400000000 1.0
C      1  0.5284580000000  0.4977790000000  0.5195570000000 1.0
C      1  0.4776270000000  0.5925320000000  0.4715970000000 1.0
C      1  0.4865200000000  0.4273070000000  0.5725510000000 1.0
C      1  0.5157680000000  0.4914560000000  0.4260780000000 1.0
C      1  0.4328650000000  0.4152160000000  0.4642150000000 1.0
C      1  0.4160760000000  0.5399100000000  0.4543750000000 1.0
C      1  0.5271930000000  0.5399490000000  0.4293780000000 1.0
C      1  0.5580430000000  0.4851380000000  0.4738690000000 1.0
C      1  0.5492550000000  0.5644500000000  0.5429620000000 1.0
C      1  0.4351950000000  0.5481120000000  0.5684800000000 1.0
C      1  0.5324910000000  0.4063850000000  0.5107770000000 1.0
C      1  0.4522800000000  0.5081030000000  0.4728890000000 1.0
C      1  0.5448750000000  0.4957080000000  0.3990820000000 1.0
C      1  0.5055650000000  0.5760570000000  0.5684640000000 1.0
C      1  0.4568920000000  0.4839790000000  0.4941750000000 1.0
C      1  0.4040670000000  0.4780720000000  0.5478990000000 1.0
C      1  0.5957690000000  0.4884970000000  0.5342830000000 1.0
C      1  0.4507270000000  0.4830380000000  0.5512640000000 1.0
C      1  0.4791950000000  0.6075430000000  0.5220140000000 1.0
C      1  0.5426140000000  0.4699740000000  0.5285240000000 1.0
C      1  0.5902860000000  0.4719370000000  0.4542960000000 1.0
C      1  0.5484290000000  0.4037150000000  0.4628200000000 1.0
C      1  0.5661050000000  0.5522920000000  0.4147060000000 1.0
C      1  0.6018620000000  0.5025830000000  0.4970520000000 1.0
C      1  0.5621660000000  0.4827230000000  0.4187520000000 1.0
C      1  0.5182290000000  0.6017190000000  0.4347490000000 1.0
C      1  0.5167090000000  0.5034040000000  0.6011400000000 1.0
C      1  0.4170060000000  0.4958130000000  0.5270930000000 1.0
C      1  0.4604380000000  0.5656540000000  0.4596930000000 1.0
C      1  0.6042210000000  0.5498410000000  0.4658440000000 1.0
C      1  0.5026650000000  0.5158040000000  0.4094030000000 1.0
C      1  0.5373120000000  0.3910250000000  0.4844110000000 1.0
C      1  0.5752260000000  0.5292270000000  0.5648580000000 1.0
C      1  0.4300290000000  0.4677840000000  0.5017750000000 1.0
END
