TITL C-2847952-8118-639 -0.00040809721084099 125000 -645.433558641241 0 0 115 (C1) n - 1
REM
REM in /home/bkarasulu/work/CARBON/AIRSS/Generating-Clusters/AIREBO/with-SteepDescent/Only-C1/SD-CG-opt/Try1-1.4A-POS3A/HFTN-CG
REM
REM
REM
REM
REM
REM ./C.cell (11c1c37f851c82e70ff6c80c92926a4b)
REM
REM compiler GCC version 9.2.1 20190827 (Red Hat 9.2.1-1)
REM options -cpp -mtune=generic -march=x86-64 -g -O0 -fpre-include=/usr/include/finclude/math-vector-fortran.h
REM seed 1409011452 282489739 499614522 -1997198176 1403476689 -543788332 -872194783 863575043 671599031 1692852494 -638257503 1458286132 -1321794475 754700764 -995125878 -188071613 344501467 250868213 -1756049705 -727335565 1300521524 758646132 1960006466 -1428521835 -1001926239 -2071698054 -2003175865 301452614 -1780514760 -931929325 350068985 -1714629112 951208681
REM
CELL 1.54180   50.00000   50.00000   50.00000   90.00000   90.00000   90.00000
LATT -1
SFAC C  
C      1  0.4595240000000  0.4242450000000  0.4777420000000 1.0
C      1  0.5203540000000  0.4608270000000  0.5040390000000 1.0
C      1  0.4788640000000  0.4908890000000  0.4576920000000 1.0
C      1  0.4681510000000  0.4126940000000  0.5021310000000 1.0
C      1  0.5262870000000  0.5999750000000  0.5304160000000 1.0
C      1  0.5708690000000  0.6243670000000  0.5498070000000 1.0
C      1  0.5298690000000  0.4883230000000  0.4677150000000 1.0
C      1  0.5041180000000  0.4296960000000  0.4480380000000 1.0
C      1  0.4393010000000  0.4744410000000  0.4856880000000 1.0
C      1  0.4882990000000  0.3752160000000  0.5927560000000 1.0
C      1  0.4569210000000  0.4569090000000  0.4339320000000 1.0
C      1  0.4927930000000  0.4793120000000  0.4974300000000 1.0
C      1  0.4809660000000  0.4336970000000  0.4276560000000 1.0
C      1  0.5650450000000  0.4469040000000  0.5143360000000 1.0
C      1  0.4155470000000  0.5167050000000  0.5539480000000 1.0
C      1  0.5427890000000  0.4283600000000  0.5100870000000 1.0
C      1  0.5949330000000  0.4769430000000  0.4942160000000 1.0
C      1  0.4451260000000  0.4897870000000  0.5754310000000 1.0
C      1  0.5658130000000  0.6029130000000  0.5356290000000 1.0
C      1  0.4545240000000  0.5163680000000  0.5057440000000 1.0
C      1  0.4326940000000  0.4596920000000  0.4561050000000 1.0
C      1  0.5241430000000  0.4189140000000  0.4913720000000 1.0
C      1  0.5537950000000  0.4643850000000  0.4309400000000 1.0
C      1  0.5372570000000  0.5240110000000  0.5235380000000 1.0
C      1  0.4493850000000  0.4277510000000  0.5252920000000 1.0
C      1  0.5753800000000  0.5497710000000  0.4897000000000 1.0
C      1  0.4977460000000  0.4191800000000  0.5010270000000 1.0
C      1  0.4328630000000  0.5473390000000  0.4754080000000 1.0
C      1  0.4601860000000  0.5790740000000  0.5174080000000 1.0
C      1  0.4737960000000  0.4469490000000  0.5925780000000 1.0
C      1  0.5167880000000  0.5053090000000  0.4446760000000 1.0
C      1  0.4614660000000  0.4891070000000  0.4288620000000 1.0
C      1  0.5338740000000  0.4118470000000  0.5640220000000 1.0
C      1  0.4660310000000  0.5311070000000  0.5531710000000 1.0
C      1  0.5814440000000  0.4598900000000  0.4442440000000 1.0
C      1  0.5715050000000  0.5256730000000  0.4583650000000 1.0
C      1  0.4581370000000  0.5208880000000  0.4414850000000 1.0
C      1  0.5510220000000  0.5266460000000  0.4841960000000 1.0
C      1  0.4929350000000  0.4279410000000  0.5838570000000 1.0
C      1  0.5907220000000  0.5221870000000  0.4832760000000 1.0
C      1  0.5019620000000  0.5078620000000  0.4879880000000 1.0
C      1  0.4897470000000  0.5369460000000  0.4814950000000 1.0
C      1  0.4285320000000  0.5210510000000  0.4582180000000 1.0
C      1  0.5562920000000  0.4784140000000  0.5163080000000 1.0
C      1  0.5003570000000  0.5335870000000  0.5882960000000 1.0
C      1  0.4651510000000  0.4700250000000  0.5789420000000 1.0
C      1  0.4912750000000  0.4010530000000  0.5895240000000 1.0
C      1  0.4209630000000  0.4762930000000  0.5281130000000 1.0
C      1  0.4884050000000  0.5661370000000  0.4340360000000 1.0
C      1  0.5153530000000  0.5500580000000  0.5283680000000 1.0
C      1  0.5482730000000  0.4466270000000  0.4594940000000 1.0
C      1  0.4938690000000  0.5026490000000  0.5560310000000 1.0
C      1  0.4827730000000  0.4495790000000  0.4981630000000 1.0
C      1  0.5781910000000  0.4624430000000  0.4744730000000 1.0
C      1  0.5092710000000  0.5785480000000  0.4566180000000 1.0
C      1  0.5305210000000  0.4573630000000  0.6102980000000 1.0
C      1  0.5563410000000  0.5442830000000  0.4371280000000 1.0
C      1  0.4809360000000  0.4600490000000  0.4094660000000 1.0
C      1  0.5772890000000  0.5586180000000  0.5176760000000 1.0
C      1  0.4777040000000  0.5254170000000  0.5238090000000 1.0
C      1  0.5326500000000  0.5042990000000  0.4971360000000 1.0
C      1  0.4574660000000  0.5152680000000  0.5797580000000 1.0
C      1  0.4896260000000  0.6205600000000  0.4759650000000 1.0
C      1  0.4934060000000  0.4535310000000  0.5477090000000 1.0
C      1  0.4351130000000  0.5019230000000  0.4149710000000 1.0
C      1  0.4256270000000  0.4893290000000  0.5532100000000 1.0
C      1  0.4166540000000  0.5026420000000  0.4359740000000 1.0
C      1  0.5828660000000  0.5377970000000  0.5345740000000 1.0
C      1  0.4092660000000  0.4774040000000  0.4444790000000 1.0
C      1  0.5668540000000  0.4948240000000  0.5586660000000 1.0
C      1  0.5891920000000  0.5024620000000  0.5024160000000 1.0
C      1  0.5212620000000  0.5332730000000  0.4726010000000 1.0
C      1  0.5465930000000  0.4675950000000  0.4855660000000 1.0
C      1  0.4089000000000  0.4931300000000  0.5091130000000 1.0
C      1  0.5305570000000  0.4489530000000  0.5342210000000 1.0
C      1  0.5056570000000  0.5809070000000  0.5393400000000 1.0
C      1  0.4358480000000  0.4117430000000  0.5432850000000 1.0
C      1  0.5314700000000  0.5734990000000  0.5097180000000 1.0
C      1  0.4343140000000  0.5416960000000  0.5025200000000 1.0
C      1  0.4764930000000  0.5240010000000  0.5993160000000 1.0
C      1  0.4652330000000  0.4921980000000  0.4860800000000 1.0
C      1  0.4338250000000  0.4363210000000  0.4794440000000 1.0
C      1  0.4781970000000  0.4411230000000  0.5280980000000 1.0
C      1  0.5368840000000  0.5189060000000  0.4247590000000 1.0
C      1  0.5353660000000  0.4879010000000  0.4139680000000 1.0
C      1  0.4896720000000  0.5203300000000  0.4522110000000 1.0
C      1  0.4669720000000  0.5522980000000  0.4443610000000 1.0
C      1  0.5673070000000  0.5084720000000  0.5277640000000 1.0
C      1  0.4882010000000  0.5521300000000  0.5079920000000 1.0
C      1  0.4910390000000  0.5946050000000  0.4752200000000 1.0
C      1  0.5051900000000  0.4725310000000  0.4108290000000 1.0
C      1  0.4725040000000  0.5752980000000  0.4886690000000 1.0
C      1  0.4852770000000  0.4772660000000  0.5601980000000 1.0
C      1  0.4366780000000  0.5637160000000  0.5198790000000 1.0
C      1  0.4783390000000  0.5864660000000  0.5372580000000 1.0
C      1  0.5071210000000  0.5087470000000  0.5273970000000 1.0
C      1  0.5009400000000  0.5608380000000  0.4092320000000 1.0
C      1  0.5355380000000  0.4583120000000  0.5833040000000 1.0
C      1  0.5188200000000  0.4381400000000  0.5642450000000 1.0
C      1  0.5246200000000  0.5469380000000  0.4134050000000 1.0
C      1  0.4544520000000  0.5626260000000  0.4670470000000 1.0
C      1  0.5250260000000  0.4823410000000  0.5296110000000 1.0
C      1  0.5215280000000  0.4652260000000  0.4364570000000 1.0
C      1  0.5567900000000  0.5618970000000  0.4668020000000 1.0
C      1  0.5597600000000  0.5793450000000  0.5231360000000 1.0
C      1  0.5553650000000  0.4744420000000  0.5721790000000 1.0
C      1  0.4330780000000  0.4518180000000  0.5103200000000 1.0
C      1  0.5278020000000  0.4257060000000  0.4630350000000 1.0
C      1  0.4995910000000  0.5361800000000  0.5553450000000 1.0
C      1  0.5021950000000  0.4701910000000  0.4597530000000 1.0
C      1  0.5243220000000  0.5495660000000  0.4471470000000 1.0
C      1  0.5340530000000  0.5733900000000  0.4776270000000 1.0
C      1  0.4340540000000  0.5371550000000  0.5559580000000 1.0
C      1  0.4279950000000  0.5059350000000  0.4862440000000 1.0
C      1  0.4819850000000  0.4435740000000  0.4660860000000 1.0
END
