TITL C-2847955-7945-616 -0.000523665966060763 125000 -825.423667975876 0 0 152 (C1) n - 1
REM
REM in /home/bkarasulu/work/CARBON/AIRSS/Generating-Clusters/AIREBO/with-SteepDescent/Only-C1/SD-CG-opt/Try1-1.4A-POS3A/HFTN-CG
REM
REM
REM
REM
REM
REM ./C.cell (11c1c37f851c82e70ff6c80c92926a4b)
REM
REM compiler GCC version 9.2.1 20190827 (Red Hat 9.2.1-1)
REM options -cpp -mtune=generic -march=x86-64 -g -O0 -fpre-include=/usr/include/finclude/math-vector-fortran.h
REM seed -1875196715 -1720544945 -562057735 598499336 -94482549 133852428 1588973705 -1544113181 186287420 -1551640332 400710033 412236428 -668124122 1302206387 1700632737 1802096977 666809683 -58852348 1887850597 828367745 -1249376206 228486854 973411938 -726704392 -1661607099 -634402259 -507795649 -1341167398 1800773352 -60465841 984779422 1291115186 -503284445
REM
CELL 1.54180   50.00000   50.00000   50.00000   90.00000   90.00000   90.00000
LATT -1
SFAC C  
C      1  0.4795350000000  0.4284360000000  0.5798890000000 1.0
C      1  0.5015050000000  0.5455610000000  0.4406410000000 1.0
C      1  0.5173620000000  0.4171430000000  0.5760120000000 1.0
C      1  0.4393540000000  0.5205220000000  0.4071780000000 1.0
C      1  0.4497150000000  0.4353940000000  0.5449570000000 1.0
C      1  0.5190090000000  0.4474010000000  0.4766820000000 1.0
C      1  0.4269390000000  0.5394250000000  0.5129090000000 1.0
C      1  0.5687720000000  0.5704190000000  0.5425820000000 1.0
C      1  0.4827350000000  0.5996580000000  0.5072950000000 1.0
C      1  0.4863800000000  0.4959320000000  0.5202480000000 1.0
C      1  0.5205160000000  0.5155610000000  0.4012240000000 1.0
C      1  0.4544520000000  0.5781060000000  0.5527670000000 1.0
C      1  0.5763840000000  0.4625180000000  0.5381670000000 1.0
C      1  0.5303030000000  0.5523670000000  0.4558830000000 1.0
C      1  0.4966580000000  0.4622090000000  0.5674570000000 1.0
C      1  0.4701250000000  0.4069350000000  0.4813080000000 1.0
C      1  0.4840630000000  0.4687040000000  0.3992660000000 1.0
C      1  0.5458920000000  0.5873000000000  0.4886180000000 1.0
C      1  0.4823290000000  0.4944110000000  0.5495270000000 1.0
C      1  0.4118140000000  0.4696780000000  0.5287600000000 1.0
C      1  0.4042520000000  0.4998370000000  0.5149570000000 1.0
C      1  0.4699350000000  0.4211490000000  0.4314180000000 1.0
C      1  0.4268160000000  0.4930110000000  0.4669090000000 1.0
C      1  0.5356140000000  0.5505340000000  0.5528320000000 1.0
C      1  0.5731700000000  0.4150500000000  0.5046210000000 1.0
C      1  0.4757260000000  0.4910120000000  0.4235660000000 1.0
C      1  0.5227400000000  0.5357150000000  0.5954720000000 1.0
C      1  0.4086330000000  0.5397040000000  0.4775950000000 1.0
C      1  0.4658070000000  0.4138300000000  0.5338800000000 1.0
C      1  0.4489640000000  0.5830050000000  0.4872750000000 1.0
C      1  0.4967290000000  0.5210630000000  0.6066100000000 1.0
C      1  0.5302550000000  0.4998540000000  0.5422680000000 1.0
C      1  0.5292800000000  0.5140950000000  0.5113610000000 1.0
C      1  0.5992940000000  0.5293430000000  0.5120350000000 1.0
C      1  0.3961550000000  0.5301920000000  0.5044370000000 1.0
C      1  0.4680840000000  0.4418100000000  0.4042380000000 1.0
C      1  0.5537030000000  0.5307880000000  0.5823130000000 1.0
C      1  0.5677910000000  0.5407860000000  0.5534430000000 1.0
C      1  0.4697030000000  0.4309990000000  0.4634600000000 1.0
C      1  0.5148050000000  0.4323470000000  0.5290250000000 1.0
C      1  0.4610540000000  0.4168720000000  0.5057290000000 1.0
C      1  0.4572480000000  0.4775980000000  0.5981410000000 1.0
C      1  0.5115660000000  0.4700160000000  0.3932690000000 1.0
C      1  0.5479120000000  0.4823380000000  0.5903800000000 1.0
C      1  0.4787830000000  0.5514840000000  0.4631940000000 1.0
C      1  0.4922920000000  0.4573430000000  0.5282220000000 1.0
C      1  0.5232520000000  0.4407100000000  0.5927060000000 1.0
C      1  0.5787690000000  0.5193250000000  0.5362020000000 1.0
C      1  0.4152500000000  0.5074320000000  0.4287300000000 1.0
C      1  0.5605320000000  0.5873810000000  0.5633430000000 1.0
C      1  0.5627490000000  0.5603460000000  0.4537890000000 1.0
C      1  0.4714040000000  0.5894860000000  0.4705730000000 1.0
C      1  0.5417620000000  0.5362410000000  0.4280450000000 1.0
C      1  0.5681080000000  0.5095500000000  0.4578910000000 1.0
C      1  0.5901860000000  0.4739300000000  0.5092630000000 1.0
C      1  0.4568830000000  0.4876670000000  0.4516870000000 1.0
C      1  0.5272000000000  0.4819790000000  0.5003170000000 1.0
C      1  0.4544560000000  0.4829490000000  0.5550690000000 1.0
C      1  0.5343460000000  0.5056540000000  0.4597870000000 1.0
C      1  0.5759330000000  0.5407870000000  0.4683290000000 1.0
C      1  0.5012230000000  0.5045940000000  0.4675920000000 1.0
C      1  0.5462730000000  0.4528290000000  0.5506420000000 1.0
C      1  0.4330180000000  0.5048920000000  0.5641240000000 1.0
C      1  0.4338490000000  0.5604630000000  0.4798610000000 1.0
C      1  0.5098920000000  0.4096500000000  0.4498480000000 1.0
C      1  0.4816020000000  0.5430170000000  0.4049980000000 1.0
C      1  0.5151330000000  0.5464040000000  0.4094990000000 1.0
C      1  0.5193430000000  0.4144200000000  0.4817100000000 1.0
C      1  0.6045990000000  0.5091880000000  0.4920540000000 1.0
C      1  0.5212420000000  0.4916850000000  0.4120830000000 1.0
C      1  0.4434600000000  0.5401750000000  0.5486990000000 1.0
C      1  0.5201410000000  0.4696410000000  0.5437700000000 1.0
C      1  0.4973730000000  0.4674160000000  0.4369110000000 1.0
C      1  0.5331970000000  0.5760380000000  0.5742020000000 1.0
C      1  0.5013700000000  0.6138580000000  0.5209280000000 1.0
C      1  0.4693320000000  0.4566230000000  0.5509510000000 1.0
C      1  0.4106840000000  0.5185290000000  0.4594630000000 1.0
C      1  0.5448280000000  0.4725220000000  0.3866660000000 1.0
C      1  0.4491040000000  0.5312870000000  0.4884150000000 1.0
C      1  0.5291490000000  0.5293470000000  0.4809590000000 1.0
C      1  0.5102400000000  0.5950380000000  0.5638880000000 1.0
C      1  0.5966170000000  0.4462280000000  0.5520610000000 1.0
C      1  0.5240800000000  0.5676190000000  0.3924070000000 1.0
C      1  0.4832500000000  0.5168180000000  0.4444050000000 1.0
C      1  0.4588330000000  0.5830330000000  0.5193770000000 1.0
C      1  0.4661470000000  0.5298130000000  0.5264350000000 1.0
C      1  0.4098440000000  0.4791600000000  0.4904430000000 1.0
C      1  0.4303960000000  0.4464350000000  0.5268980000000 1.0
C      1  0.4489360000000  0.5061720000000  0.5113510000000 1.0
C      1  0.5192510000000  0.5228870000000  0.5641730000000 1.0
C      1  0.4546120000000  0.5531950000000  0.5759200000000 1.0
C      1  0.5527440000000  0.5016100000000  0.5680270000000 1.0
C      1  0.5416370000000  0.4683810000000  0.4262220000000 1.0
C      1  0.4337430000000  0.5355430000000  0.4336310000000 1.0
C      1  0.4498440000000  0.5036140000000  0.5889910000000 1.0
C      1  0.5615570000000  0.5167600000000  0.5092580000000 1.0
C      1  0.4468560000000  0.4772350000000  0.4120240000000 1.0
C      1  0.5045210000000  0.4942470000000  0.5750890000000 1.0
C      1  0.4946050000000  0.3948730000000  0.4735090000000 1.0
C      1  0.5029650000000  0.5607190000000  0.5142770000000 1.0
C      1  0.4968420000000  0.4384670000000  0.4220660000000 1.0
C      1  0.4562450000000  0.4922420000000  0.4839180000000 1.0
C      1  0.4979910000000  0.5270820000000  0.5144730000000 1.0
C      1  0.4423330000000  0.4404650000000  0.4268250000000 1.0
C      1  0.5503420000000  0.4724580000000  0.4785240000000 1.0
C      1  0.4184750000000  0.5192400000000  0.5389950000000 1.0
C      1  0.5221650000000  0.4230180000000  0.4286190000000 1.0
C      1  0.5601670000000  0.5696770000000  0.5114880000000 1.0
C      1  0.4717750000000  0.5685550000000  0.4157250000000 1.0
C      1  0.5441620000000  0.4375750000000  0.4223730000000 1.0
C      1  0.4250160000000  0.4551190000000  0.4787730000000 1.0
C      1  0.4544550000000  0.5317790000000  0.4548320000000 1.0
C      1  0.4938190000000  0.4163500000000  0.5514700000000 1.0
C      1  0.5305110000000  0.5702130000000  0.5273110000000 1.0
C      1  0.5368990000000  0.4220930000000  0.5527470000000 1.0
C      1  0.5057520000000  0.5643150000000  0.5884360000000 1.0
C      1  0.5783000000000  0.4606790000000  0.4681370000000 1.0
C      1  0.4478560000000  0.4474400000000  0.5003750000000 1.0
C      1  0.4324050000000  0.5665750000000  0.5295890000000 1.0
C      1  0.5526230000000  0.3972180000000  0.5110740000000 1.0
C      1  0.5736040000000  0.5453710000000  0.4988410000000 1.0
C      1  0.4734670000000  0.4697620000000  0.5027550000000 1.0
C      1  0.4252690000000  0.4780230000000  0.4292410000000 1.0
C      1  0.5608870000000  0.4907910000000  0.4104270000000 1.0
C      1  0.4977850000000  0.5791040000000  0.4875780000000 1.0
C      1  0.5632930000000  0.4447040000000  0.5123350000000 1.0
C      1  0.5871260000000  0.4819640000000  0.4520460000000 1.0
C      1  0.4725950000000  0.4553120000000  0.5904890000000 1.0
C      1  0.5775010000000  0.4927170000000  0.5510600000000 1.0
C      1  0.4730170000000  0.5768770000000  0.4425210000000 1.0
C      1  0.4914270000000  0.5394680000000  0.5696410000000 1.0
C      1  0.4840450000000  0.5780040000000  0.5646570000000 1.0
C      1  0.4689000000000  0.5274490000000  0.5906190000000 1.0
C      1  0.4875180000000  0.4525680000000  0.4769880000000 1.0
C      1  0.4383040000000  0.4858970000000  0.5296400000000 1.0
C      1  0.4259990000000  0.4564190000000  0.4508040000000 1.0
C      1  0.4653970000000  0.4584650000000  0.4442190000000 1.0
C      1  0.5241130000000  0.5789250000000  0.4732780000000 1.0
C      1  0.5615720000000  0.5151670000000  0.4253920000000 1.0
C      1  0.5468770000000  0.4545270000000  0.5815500000000 1.0
C      1  0.4837840000000  0.5535100000000  0.5410440000000 1.0
C      1  0.5823640000000  0.4395160000000  0.4855410000000 1.0
C      1  0.5013700000000  0.4820330000000  0.4860310000000 1.0
C      1  0.5254200000000  0.4731320000000  0.4553830000000 1.0
C      1  0.5167470000000  0.4736490000000  0.5992690000000 1.0
C      1  0.5016540000000  0.4959220000000  0.6169810000000 1.0
C      1  0.5343140000000  0.4496080000000  0.5071630000000 1.0
C      1  0.4832140000000  0.5277150000000  0.4840080000000 1.0
C      1  0.4676120000000  0.5183320000000  0.4050000000000 1.0
C      1  0.5273810000000  0.4076930000000  0.5092660000000 1.0
C      1  0.5188890000000  0.5989690000000  0.5368950000000 1.0
C      1  0.5739530000000  0.4949930000000  0.4880760000000 1.0
END
