TITL C-2847949-8115-448 0.000303501174346898 125000 -1043.24513669108 0 0 195 (C1) n - 1
REM
REM in /home/bkarasulu/work/CARBON/AIRSS/Generating-Clusters/AIREBO/with-SteepDescent/Only-C1/SD-CG-opt/Try1-1.4A-POS3A/HFTN-CG
REM
REM
REM
REM
REM
REM ./C.cell (11c1c37f851c82e70ff6c80c92926a4b)
REM
REM compiler GCC version 9.2.1 20190827 (Red Hat 9.2.1-1)
REM options -cpp -mtune=generic -march=x86-64 -g -O0 -fpre-include=/usr/include/finclude/math-vector-fortran.h
REM seed -2106774695 1195990193 1615470400 -634791122 -531064128 461165569 376310923 561879045 -1422596515 1690791405 -1496280643 51441820 -110031982 -420051689 -272077497 241678652 -1921272476 2081408537 1771202846 -2032604468 837537179 -343407349 855383446 1036627600 -1859863664 25746357 -956222867 983946181 104529835 840588551 183261421 -611903272 -651384351
REM
CELL 1.54180   50.00000   50.00000   50.00000   90.00000   90.00000   90.00000
LATT -1
SFAC C  
C      1  0.5450490000000  0.5012810000000  0.3999610000000 1.0
C      1  0.5133150000000  0.5181000000000  0.4838030000000 1.0
C      1  0.4649480000000  0.5166390000000  0.4895830000000 1.0
C      1  0.4783580000000  0.4677480000000  0.5802910000000 1.0
C      1  0.5617610000000  0.4389180000000  0.5307150000000 1.0
C      1  0.5372070000000  0.4320410000000  0.4358010000000 1.0
C      1  0.4943090000000  0.5932770000000  0.5746550000000 1.0
C      1  0.4790270000000  0.5163380000000  0.6042420000000 1.0
C      1  0.5871250000000  0.5142520000000  0.5715380000000 1.0
C      1  0.4723870000000  0.5362800000000  0.5343380000000 1.0
C      1  0.4972680000000  0.6280030000000  0.5062340000000 1.0
C      1  0.4692910000000  0.5096580000000  0.5555510000000 1.0
C      1  0.4564550000000  0.3919400000000  0.4881090000000 1.0
C      1  0.4826400000000  0.4879500000000  0.3911720000000 1.0
C      1  0.4272650000000  0.4839760000000  0.5525540000000 1.0
C      1  0.5498550000000  0.6285160000000  0.5454570000000 1.0
C      1  0.4330130000000  0.4257080000000  0.4583190000000 1.0
C      1  0.5794760000000  0.4190540000000  0.4619860000000 1.0
C      1  0.5390670000000  0.5717580000000  0.5064440000000 1.0
C      1  0.5701140000000  0.4823250000000  0.5233190000000 1.0
C      1  0.4504090000000  0.5723670000000  0.5077660000000 1.0
C      1  0.5259620000000  0.5218570000000  0.5786870000000 1.0
C      1  0.5281970000000  0.4835640000000  0.5555990000000 1.0
C      1  0.4017900000000  0.5024160000000  0.5639400000000 1.0
C      1  0.4712210000000  0.6031810000000  0.4479470000000 1.0
C      1  0.5170190000000  0.4895010000000  0.5009390000000 1.0
C      1  0.4968670000000  0.5634620000000  0.4209620000000 1.0
C      1  0.6095460000000  0.5196530000000  0.5220020000000 1.0
C      1  0.5387640000000  0.4897760000000  0.5261880000000 1.0
C      1  0.5153530000000  0.4540900000000  0.5667000000000 1.0
C      1  0.4957410000000  0.4653980000000  0.5410170000000 1.0
C      1  0.5832040000000  0.5648730000000  0.5074660000000 1.0
C      1  0.5467360000000  0.4845600000000  0.4850540000000 1.0
C      1  0.4624400000000  0.5097880000000  0.3983010000000 1.0
C      1  0.4236870000000  0.5305460000000  0.5272280000000 1.0
C      1  0.4198490000000  0.5513510000000  0.4431500000000 1.0
C      1  0.5565760000000  0.5065000000000  0.4609650000000 1.0
C      1  0.6069070000000  0.4911840000000  0.5349940000000 1.0
C      1  0.4663420000000  0.4762820000000  0.5496420000000 1.0
C      1  0.4944320000000  0.4908870000000  0.5885150000000 1.0
C      1  0.5822760000000  0.5217060000000  0.5029960000000 1.0
C      1  0.5172670000000  0.4943300000000  0.4425570000000 1.0
C      1  0.5126960000000  0.5717220000000  0.5785610000000 1.0
C      1  0.4133040000000  0.4725270000000  0.5036480000000 1.0
C      1  0.4577670000000  0.5062400000000  0.5873660000000 1.0
C      1  0.4668550000000  0.5524030000000  0.5747900000000 1.0
C      1  0.5415760000000  0.3978090000000  0.5151550000000 1.0
C      1  0.4884370000000  0.4355180000000  0.5761100000000 1.0
C      1  0.3983420000000  0.4487810000000  0.5160630000000 1.0
C      1  0.4616880000000  0.4737070000000  0.4691160000000 1.0
C      1  0.4974950000000  0.5023120000000  0.5258780000000 1.0
C      1  0.4363740000000  0.5167930000000  0.5508590000000 1.0
C      1  0.4557900000000  0.4361740000000  0.5866610000000 1.0
C      1  0.4879690000000  0.5604660000000  0.5492900000000 1.0
C      1  0.6210030000000  0.5174880000000  0.4916690000000 1.0
C      1  0.5329550000000  0.4942820000000  0.5973240000000 1.0
C      1  0.5794110000000  0.4911790000000  0.4918360000000 1.0
C      1  0.5138160000000  0.3872780000000  0.5231170000000 1.0
C      1  0.5117410000000  0.4660820000000  0.4573970000000 1.0
C      1  0.4025790000000  0.4568190000000  0.4629640000000 1.0
C      1  0.5699310000000  0.5463230000000  0.5880900000000 1.0
C      1  0.5181530000000  0.5463520000000  0.5115360000000 1.0
C      1  0.4226740000000  0.5190310000000  0.4508290000000 1.0
C      1  0.3850370000000  0.4306540000000  0.5281590000000 1.0
C      1  0.4839770000000  0.5791240000000  0.4408210000000 1.0
C      1  0.4646320000000  0.5012360000000  0.5168890000000 1.0
C      1  0.4546630000000  0.4110860000000  0.4685440000000 1.0
C      1  0.5057130000000  0.4238180000000  0.4854520000000 1.0
C      1  0.5226380000000  0.4365050000000  0.5385100000000 1.0
C      1  0.5820290000000  0.4257220000000  0.5546130000000 1.0
C      1  0.5044230000000  0.6111520000000  0.5527030000000 1.0
C      1  0.5491130000000  0.4506890000000  0.4870300000000 1.0
C      1  0.5354130000000  0.4043650000000  0.4425560000000 1.0
C      1  0.5315230000000  0.6090160000000  0.5445520000000 1.0
C      1  0.4313100000000  0.6005060000000  0.5024970000000 1.0
C      1  0.4295300000000  0.4374600000000  0.4310340000000 1.0
C      1  0.5219960000000  0.5617660000000  0.5508670000000 1.0
C      1  0.5625210000000  0.4083300000000  0.5325880000000 1.0
C      1  0.5902920000000  0.5911440000000  0.5111020000000 1.0
C      1  0.5622030000000  0.4453840000000  0.5699580000000 1.0
C      1  0.5265640000000  0.5829080000000  0.4773680000000 1.0
C      1  0.4956830000000  0.3870940000000  0.4737480000000 1.0
C      1  0.4106270000000  0.5422000000000  0.4980780000000 1.0
C      1  0.4330600000000  0.5373890000000  0.4777740000000 1.0
C      1  0.4389650000000  0.5761210000000  0.5612640000000 1.0
C      1  0.5613030000000  0.4740150000000  0.5551160000000 1.0
C      1  0.5585430000000  0.3984820000000  0.4591880000000 1.0
C      1  0.5815900000000  0.5301240000000  0.4605280000000 1.0
C      1  0.4517680000000  0.4648380000000  0.6006910000000 1.0
C      1  0.5554360000000  0.5652540000000  0.4276020000000 1.0
C      1  0.4493740000000  0.5585080000000  0.4604550000000 1.0
C      1  0.4863370000000  0.5888550000000  0.5355230000000 1.0
C      1  0.4780080000000  0.4544220000000  0.3947310000000 1.0
C      1  0.5706250000000  0.4819620000000  0.4431730000000 1.0
C      1  0.4716610000000  0.3992540000000  0.5361150000000 1.0
C      1  0.3924400000000  0.5151140000000  0.5076490000000 1.0
C      1  0.5009480000000  0.4334190000000  0.4041650000000 1.0
C      1  0.5403810000000  0.5113920000000  0.3669000000000 1.0
C      1  0.4404840000000  0.6037970000000  0.4434540000000 1.0
C      1  0.4585140000000  0.4912950000000  0.4335380000000 1.0
C      1  0.5439450000000  0.4773510000000  0.4319000000000 1.0
C      1  0.4597280000000  0.4281930000000  0.5494390000000 1.0
C      1  0.5350750000000  0.5832420000000  0.5340920000000 1.0
C      1  0.5888980000000  0.4912190000000  0.5571360000000 1.0
C      1  0.4790450000000  0.5843630000000  0.5034970000000 1.0
C      1  0.4777790000000  0.5366070000000  0.4125620000000 1.0
C      1  0.4426460000000  0.4550060000000  0.5615800000000 1.0
C      1  0.4521040000000  0.4296290000000  0.5189660000000 1.0
C      1  0.5572520000000  0.5430930000000  0.5044450000000 1.0
C      1  0.6006650000000  0.5059230000000  0.4697450000000 1.0
C      1  0.3935030000000  0.4925690000000  0.4933610000000 1.0
C      1  0.5962820000000  0.4457620000000  0.5047200000000 1.0
C      1  0.5068390000000  0.3973700000000  0.4481170000000 1.0
C      1  0.5350250000000  0.4485350000000  0.4581430000000 1.0
C      1  0.4836580000000  0.5420870000000  0.5978170000000 1.0
C      1  0.5248740000000  0.5635310000000  0.4246290000000 1.0
C      1  0.5305430000000  0.5556810000000  0.4572440000000 1.0
C      1  0.4874530000000  0.4580090000000  0.4767090000000 1.0
C      1  0.4599420000000  0.4604260000000  0.4407060000000 1.0
C      1  0.4219020000000  0.4442960000000  0.4766700000000 1.0
C      1  0.5143580000000  0.4996710000000  0.3853830000000 1.0
C      1  0.5853770000000  0.5524700000000  0.4776860000000 1.0
C      1  0.4252110000000  0.4163940000000  0.5147320000000 1.0
C      1  0.4942670000000  0.4649640000000  0.5070430000000 1.0
C      1  0.4113210000000  0.5211240000000  0.5824150000000 1.0
C      1  0.5526130000000  0.5983560000000  0.4640180000000 1.0
C      1  0.4890810000000  0.4351190000000  0.5331710000000 1.0
C      1  0.4175470000000  0.5078080000000  0.6070160000000 1.0
C      1  0.4059650000000  0.3995270000000  0.5142910000000 1.0
C      1  0.4855080000000  0.3924610000000  0.5057770000000 1.0
C      1  0.5473900000000  0.5171120000000  0.4299870000000 1.0
C      1  0.5741800000000  0.5400730000000  0.5568560000000 1.0
C      1  0.4197360000000  0.4956490000000  0.4254070000000 1.0
C      1  0.4623710000000  0.4618290000000  0.5184660000000 1.0
C      1  0.5110350000000  0.4936520000000  0.6180590000000 1.0
C      1  0.4906600000000  0.5294080000000  0.5065010000000 1.0
C      1  0.5200880000000  0.5260960000000  0.4441030000000 1.0
C      1  0.4808440000000  0.5228560000000  0.4401010000000 1.0
C      1  0.3805780000000  0.4714210000000  0.4463110000000 1.0
C      1  0.3767980000000  0.4860210000000  0.4719290000000 1.0
C      1  0.4374240000000  0.4844730000000  0.5231100000000 1.0
C      1  0.5334410000000  0.4216330000000  0.4936240000000 1.0
C      1  0.5396100000000  0.4565070000000  0.5191560000000 1.0
C      1  0.4791580000000  0.5616030000000  0.4657090000000 1.0
C      1  0.4586680000000  0.5639510000000  0.4093810000000 1.0
C      1  0.6060550000000  0.4748100000000  0.5052090000000 1.0
C      1  0.4340340000000  0.5438710000000  0.5713020000000 1.0
C      1  0.4800950000000  0.4269120000000  0.4650500000000 1.0
C      1  0.5418070000000  0.5372480000000  0.5532500000000 1.0
C      1  0.4310560000000  0.4995080000000  0.3942770000000 1.0
C      1  0.4408730000000  0.5742930000000  0.4329910000000 1.0
C      1  0.5029250000000  0.5060210000000  0.5592700000000 1.0
C      1  0.5400160000000  0.4636750000000  0.5881040000000 1.0
C      1  0.5495800000000  0.5358620000000  0.5987550000000 1.0
C      1  0.4421440000000  0.6081640000000  0.4743350000000 1.0
C      1  0.4368920000000  0.5872680000000  0.5339160000000 1.0
C      1  0.6301990000000  0.4781340000000  0.4908720000000 1.0
C      1  0.4911920000000  0.4532510000000  0.4372420000000 1.0
C      1  0.5915580000000  0.4909200000000  0.4263000000000 1.0
C      1  0.5150250000000  0.4066530000000  0.5455490000000 1.0
C      1  0.4653020000000  0.5050420000000  0.4638880000000 1.0
C      1  0.5887820000000  0.5440450000000  0.5314720000000 1.0
C      1  0.5097140000000  0.5481180000000  0.5929300000000 1.0
C      1  0.5627750000000  0.4708050000000  0.6082810000000 1.0
C      1  0.4608090000000  0.4361840000000  0.4177110000000 1.0
C      1  0.5091990000000  0.4757140000000  0.4073070000000 1.0
C      1  0.5324430000000  0.4274230000000  0.5790980000000 1.0
C      1  0.4395950000000  0.4901130000000  0.6029310000000 1.0
C      1  0.4669880000000  0.5854110000000  0.5746810000000 1.0
C      1  0.4493280000000  0.5407940000000  0.5077200000000 1.0
C      1  0.5498500000000  0.3932330000000  0.4849880000000 1.0
C      1  0.4960700000000  0.5365380000000  0.4638080000000 1.0
C      1  0.5725680000000  0.5399520000000  0.4293240000000 1.0
C      1  0.4441530000000  0.5193900000000  0.4253160000000 1.0
C      1  0.4912520000000  0.4073150000000  0.5616720000000 1.0
C      1  0.4812110000000  0.4251950000000  0.5049170000000 1.0
C      1  0.5388860000000  0.5238470000000  0.5258600000000 1.0
C      1  0.5636410000000  0.5888380000000  0.4406900000000 1.0
C      1  0.5410000000000  0.5317220000000  0.4776220000000 1.0
C      1  0.5763900000000  0.5124200000000  0.4097290000000 1.0
C      1  0.4892960000000  0.4851680000000  0.4304720000000 1.0
C      1  0.4773610000000  0.6183430000000  0.5243380000000 1.0
C      1  0.4430820000000  0.4635060000000  0.4899340000000 1.0
C      1  0.4752270000000  0.6076660000000  0.4799480000000 1.0
C      1  0.5280450000000  0.4425820000000  0.4105600000000 1.0
C      1  0.6006830000000  0.4309080000000  0.5269920000000 1.0
C      1  0.5077090000000  0.6103560000000  0.4846710000000 1.0
C      1  0.4116060000000  0.4666490000000  0.4323900000000 1.0
C      1  0.5456650000000  0.4673270000000  0.4017840000000 1.0
C      1  0.4870610000000  0.4202830000000  0.4324330000000 1.0
C      1  0.6130880000000  0.4957120000000  0.4429380000000 1.0
C      1  0.3913080000000  0.5419300000000  0.5261470000000 1.0
C      1  0.4488190000000  0.6180260000000  0.5256840000000 1.0
C      1  0.5788660000000  0.4391030000000  0.4832440000000 1.0
C      1  0.4999980000000  0.5659650000000  0.4905140000000 1.0
END
