TITL C-2847947-6848-701 0.00194051612475956 125000 -770.082283074704 0 0 140 (C1) n - 1
REM
REM in /home/bkarasulu/work/CARBON/AIRSS/Generating-Clusters/AIREBO/with-SteepDescent/Only-C1/SD-CG-opt/Try1-1.4A-POS3A/HFTN-CG
REM
REM
REM
REM
REM
REM ./C.cell (11c1c37f851c82e70ff6c80c92926a4b)
REM
REM compiler GCC version 9.2.1 20190827 (Red Hat 9.2.1-1)
REM options -cpp -mtune=generic -march=x86-64 -g -O0 -fpre-include=/usr/include/finclude/math-vector-fortran.h
REM seed -1322435363 1226856737 387213151 -1879110914 1591353941 676756242 -1267802478 -160118707 -1798848016 856444874 -1911134001 -170675297 2092023172 304619962 1771063299 -631496430 -278759595 -1633082713 -1652108340 -2058300990 598580042 -1932419403 -305938107 1175155680 1599099796 1141211260 -736055549 -1017110257 2116441601 1174966797 630130587 165207804 1824457859
REM
CELL 1.54180   50.00000   50.00000   50.00000   90.00000   90.00000   90.00000
LATT -1
SFAC C  
C      1  0.5543930000000  0.4334060000000  0.5571400000000 1.0
C      1  0.4717530000000  0.4528750000000  0.5376250000000 1.0
C      1  0.3904240000000  0.5108840000000  0.4615040000000 1.0
C      1  0.5025880000000  0.4125310000000  0.4820400000000 1.0
C      1  0.4492630000000  0.4353180000000  0.4858330000000 1.0
C      1  0.5409880000000  0.5640120000000  0.4857120000000 1.0
C      1  0.4393300000000  0.4784930000000  0.5870850000000 1.0
C      1  0.4939520000000  0.5921210000000  0.5870300000000 1.0
C      1  0.4944750000000  0.4442320000000  0.4304720000000 1.0
C      1  0.5543150000000  0.4958530000000  0.5166140000000 1.0
C      1  0.4998470000000  0.5473310000000  0.5521020000000 1.0
C      1  0.5430610000000  0.4836310000000  0.4658290000000 1.0
C      1  0.5191430000000  0.4699070000000  0.5490830000000 1.0
C      1  0.5204160000000  0.5102060000000  0.4419720000000 1.0
C      1  0.4580050000000  0.4896260000000  0.5991440000000 1.0
C      1  0.4810420000000  0.4456240000000  0.5694390000000 1.0
C      1  0.5270960000000  0.4536710000000  0.4863980000000 1.0
C      1  0.4050170000000  0.5281210000000  0.5117340000000 1.0
C      1  0.5315940000000  0.5067650000000  0.5727260000000 1.0
C      1  0.5426520000000  0.5454840000000  0.5136980000000 1.0
C      1  0.4443440000000  0.4221490000000  0.5100010000000 1.0
C      1  0.4748720000000  0.5308350000000  0.4273790000000 1.0
C      1  0.5209770000000  0.3822660000000  0.4465910000000 1.0
C      1  0.4692650000000  0.5046570000000  0.4166860000000 1.0
C      1  0.4938970000000  0.4729420000000  0.4787740000000 1.0
C      1  0.5807800000000  0.4797980000000  0.5638020000000 1.0
C      1  0.5748400000000  0.4567370000000  0.5320540000000 1.0
C      1  0.5901260000000  0.5268590000000  0.4428820000000 1.0
C      1  0.4702150000000  0.5316740000000  0.5501270000000 1.0
C      1  0.6055520000000  0.5023670000000  0.5183900000000 1.0
C      1  0.6004220000000  0.4647310000000  0.4792380000000 1.0
C      1  0.5165680000000  0.4066140000000  0.4549360000000 1.0
C      1  0.5156840000000  0.5766150000000  0.4892110000000 1.0
C      1  0.5162480000000  0.5004020000000  0.4742810000000 1.0
C      1  0.5527970000000  0.4630980000000  0.5690130000000 1.0
C      1  0.5019740000000  0.4832920000000  0.4410880000000 1.0
C      1  0.4397740000000  0.5176230000000  0.5285110000000 1.0
C      1  0.4210570000000  0.5658260000000  0.4652780000000 1.0
C      1  0.4554260000000  0.5946920000000  0.4863440000000 1.0
C      1  0.4411120000000  0.4589510000000  0.5621790000000 1.0
C      1  0.4889120000000  0.5179850000000  0.4783080000000 1.0
C      1  0.4899140000000  0.4737680000000  0.5553950000000 1.0
C      1  0.5300360000000  0.4171630000000  0.5018450000000 1.0
C      1  0.4999930000000  0.4168040000000  0.5324110000000 1.0
C      1  0.5564060000000  0.4571470000000  0.4965740000000 1.0
C      1  0.4077730000000  0.4660280000000  0.4689160000000 1.0
C      1  0.5836550000000  0.4877860000000  0.5318220000000 1.0
C      1  0.5412350000000  0.4562660000000  0.5271040000000 1.0
C      1  0.4484420000000  0.5720620000000  0.4648180000000 1.0
C      1  0.4185480000000  0.4540680000000  0.4430770000000 1.0
C      1  0.4824270000000  0.5756230000000  0.5593670000000 1.0
C      1  0.4875390000000  0.4994680000000  0.5921580000000 1.0
C      1  0.5503540000000  0.5003540000000  0.4290360000000 1.0
C      1  0.5569480000000  0.5352440000000  0.4778390000000 1.0
C      1  0.5475770000000  0.4723640000000  0.4148750000000 1.0
C      1  0.4727280000000  0.5363850000000  0.5168760000000 1.0
C      1  0.5153810000000  0.5605190000000  0.5257980000000 1.0
C      1  0.6061130000000  0.4952880000000  0.4903920000000 1.0
C      1  0.4427360000000  0.5779280000000  0.5117970000000 1.0
C      1  0.4417210000000  0.5093630000000  0.4954810000000 1.0
C      1  0.4873810000000  0.4686880000000  0.5118890000000 1.0
C      1  0.4789420000000  0.4537360000000  0.4549740000000 1.0
C      1  0.4130650000000  0.4500200000000  0.5459010000000 1.0
C      1  0.4475510000000  0.4892330000000  0.4708010000000 1.0
C      1  0.5858840000000  0.4829380000000  0.4582630000000 1.0
C      1  0.5269960000000  0.4612470000000  0.5872690000000 1.0
C      1  0.5225190000000  0.4597290000000  0.4543480000000 1.0
C      1  0.5239970000000  0.5912120000000  0.5348870000000 1.0
C      1  0.4432780000000  0.4405520000000  0.5335040000000 1.0
C      1  0.5133590000000  0.5033190000000  0.3892510000000 1.0
C      1  0.4337820000000  0.5005210000000  0.4456980000000 1.0
C      1  0.4930370000000  0.5555390000000  0.5033300000000 1.0
C      1  0.4941650000000  0.4886200000000  0.4083910000000 1.0
C      1  0.4940860000000  0.5480920000000  0.4715260000000 1.0
C      1  0.5173120000000  0.5585260000000  0.4539990000000 1.0
C      1  0.4766930000000  0.4930060000000  0.4616510000000 1.0
C      1  0.5057400000000  0.5954190000000  0.5090340000000 1.0
C      1  0.4717770000000  0.5012030000000  0.5623700000000 1.0
C      1  0.5452910000000  0.4894000000000  0.5487820000000 1.0
C      1  0.4309400000000  0.5680700000000  0.5414000000000 1.0
C      1  0.5050640000000  0.5447400000000  0.5852410000000 1.0
C      1  0.5213560000000  0.4311110000000  0.4383640000000 1.0
C      1  0.5255780000000  0.4797570000000  0.5081550000000 1.0
C      1  0.4376790000000  0.4594150000000  0.4772630000000 1.0
C      1  0.4746580000000  0.4305070000000  0.4747660000000 1.0
C      1  0.4565990000000  0.4833300000000  0.5094210000000 1.0
C      1  0.5070700000000  0.4410230000000  0.5096170000000 1.0
C      1  0.5432380000000  0.5281330000000  0.5410730000000 1.0
C      1  0.5363790000000  0.5166680000000  0.4965550000000 1.0
C      1  0.5083550000000  0.5965830000000  0.5593640000000 1.0
C      1  0.4905530000000  0.4575410000000  0.4070240000000 1.0
C      1  0.4442900000000  0.4893780000000  0.5469180000000 1.0
C      1  0.5743260000000  0.5495980000000  0.4380560000000 1.0
C      1  0.5483510000000  0.5265540000000  0.5880500000000 1.0
C      1  0.4489590000000  0.4890090000000  0.4255750000000 1.0
C      1  0.4513430000000  0.4596150000000  0.4360070000000 1.0
C      1  0.4482690000000  0.6201600000000  0.4771740000000 1.0
C      1  0.5443340000000  0.5459580000000  0.4490440000000 1.0
C      1  0.5675860000000  0.4865480000000  0.4867000000000 1.0
C      1  0.4316360000000  0.4360860000000  0.4210110000000 1.0
C      1  0.5791830000000  0.5013240000000  0.4392990000000 1.0
C      1  0.6099210000000  0.5286010000000  0.4657690000000 1.0
C      1  0.5816880000000  0.5169090000000  0.4806790000000 1.0
C      1  0.4886320000000  0.4025310000000  0.5099180000000 1.0
C      1  0.4143480000000  0.5213670000000  0.4511360000000 1.0
C      1  0.4605290000000  0.3988080000000  0.5118580000000 1.0
C      1  0.5075290000000  0.5686940000000  0.4277740000000 1.0
C      1  0.5900120000000  0.5502820000000  0.5310970000000 1.0
C      1  0.5797560000000  0.4296260000000  0.5257160000000 1.0
C      1  0.3949310000000  0.4896530000000  0.4801930000000 1.0
C      1  0.5408670000000  0.4234980000000  0.5327280000000 1.0
C      1  0.5051440000000  0.5350320000000  0.4244350000000 1.0
C      1  0.5039020000000  0.4961530000000  0.5232670000000 1.0
C      1  0.5557360000000  0.5890230000000  0.5324640000000 1.0
C      1  0.5640580000000  0.4184970000000  0.5008050000000 1.0
C      1  0.6071880000000  0.5296820000000  0.5255840000000 1.0
C      1  0.4978250000000  0.4198040000000  0.5592890000000 1.0
C      1  0.5430100000000  0.4489740000000  0.4217630000000 1.0
C      1  0.4094580000000  0.5418670000000  0.5368250000000 1.0
C      1  0.4617440000000  0.5835360000000  0.5394240000000 1.0
C      1  0.5820760000000  0.5731890000000  0.4266810000000 1.0
C      1  0.5107440000000  0.4390760000000  0.5827440000000 1.0
C      1  0.4244120000000  0.4819360000000  0.5203410000000 1.0
C      1  0.4156480000000  0.5449850000000  0.4885470000000 1.0
C      1  0.5666460000000  0.5645880000000  0.5256430000000 1.0
C      1  0.4658340000000  0.5461640000000  0.4553450000000 1.0
C      1  0.4039380000000  0.4996910000000  0.5055270000000 1.0
C      1  0.4777930000000  0.5957470000000  0.5119310000000 1.0
C      1  0.5148480000000  0.5173850000000  0.5461910000000 1.0
C      1  0.4112140000000  0.4833990000000  0.5521030000000 1.0
C      1  0.4416970000000  0.5460680000000  0.5099130000000 1.0
C      1  0.4210640000000  0.5202750000000  0.5567880000000 1.0
C      1  0.5223430000000  0.5270870000000  0.3991220000000 1.0
C      1  0.5149280000000  0.4868360000000  0.5887600000000 1.0
C      1  0.4938400000000  0.5285910000000  0.6008550000000 1.0
C      1  0.4799030000000  0.5078730000000  0.5069010000000 1.0
C      1  0.4406860000000  0.5313660000000  0.4700110000000 1.0
C      1  0.5836990000000  0.4434890000000  0.4886810000000 1.0
C      1  0.5451640000000  0.5305250000000  0.4187490000000 1.0
C      1  0.4429230000000  0.5432510000000  0.5586630000000 1.0
END
