TITL C-2848497-6229-338 0.00144757575717196 125000 -175.387707579205 0 0 34 (C1) n - 1
REM
REM in /home/bkarasulu/work/CARBON/AIRSS/Generating-Clusters/AIREBO/with-SteepDescent/Only-C1/SD-CG-opt/Try1-1.4A-POS3A/HFTN-CG
REM
REM
REM
REM
REM
REM ./C.cell (11c1c37f851c82e70ff6c80c92926a4b)
REM
REM compiler GCC version 9.2.1 20190827 (Red Hat 9.2.1-1)
REM options -cpp -mtune=generic -march=x86-64 -g -O0 -fpre-include=/usr/include/finclude/math-vector-fortran.h
REM seed -214092077 -570141833 -1736955497 -2102433014 -25929724 1675886311 -1826328824 752130326 -1113944883 2000443451 -1269947899 1803925734 -776021313 -166715341 -1758520218 -2008739708 1319329620 -1153661983 1318430429 -1454382978 1502546814 -1184858832 -1199252844 -1487365799 919280116 200674896 -722257571 1218035142 -1432789971 -745129333 809772699 -1824513536 -573869828
REM
CELL 1.54180   50.00000   50.00000   50.00000   90.00000   90.00000   90.00000
LATT -1
SFAC C  
C      1  0.4869810000000  0.5160830000000  0.5170740000000 1.0
C      1  0.5026590000000  0.5714670000000  0.4715970000000 1.0
C      1  0.4978220000000  0.4722430000000  0.4996060000000 1.0
C      1  0.4741850000000  0.5250930000000  0.4506030000000 1.0
C      1  0.5353680000000  0.4758570000000  0.4735910000000 1.0
C      1  0.4554980000000  0.4768520000000  0.5152760000000 1.0
C      1  0.5412560000000  0.4500290000000  0.5428760000000 1.0
C      1  0.4560300000000  0.5084910000000  0.5049680000000 1.0
C      1  0.4528890000000  0.5395550000000  0.4942570000000 1.0
C      1  0.5559980000000  0.5537980000000  0.5028780000000 1.0
C      1  0.5127530000000  0.4234920000000  0.5074970000000 1.0
C      1  0.5372120000000  0.4366020000000  0.5140560000000 1.0
C      1  0.4597140000000  0.4717560000000  0.5416240000000 1.0
C      1  0.4925660000000  0.5445720000000  0.4580490000000 1.0
C      1  0.5325820000000  0.5452330000000  0.4940380000000 1.0
C      1  0.4997490000000  0.5455780000000  0.5248040000000 1.0
C      1  0.4602300000000  0.5020180000000  0.4717320000000 1.0
C      1  0.4999960000000  0.5704520000000  0.5037460000000 1.0
C      1  0.5029850000000  0.5023980000000  0.4910070000000 1.0
C      1  0.5396070000000  0.4635290000000  0.4975760000000 1.0
C      1  0.5050100000000  0.5347150000000  0.4867360000000 1.0
C      1  0.5802730000000  0.5607450000000  0.5099010000000 1.0
C      1  0.4851030000000  0.4771460000000  0.5510290000000 1.0
C      1  0.4761100000000  0.5516040000000  0.4935160000000 1.0
C      1  0.4545010000000  0.4700130000000  0.4670220000000 1.0
C      1  0.4932220000000  0.4399570000000  0.5004490000000 1.0
C      1  0.4856620000000  0.4957500000000  0.4500510000000 1.0
C      1  0.4671030000000  0.4584550000000  0.4932930000000 1.0
C      1  0.5308290000000  0.5078550000000  0.4722720000000 1.0
C      1  0.5112770000000  0.4880370000000  0.4546150000000 1.0
C      1  0.5034630000000  0.4885220000000  0.5284180000000 1.0
C      1  0.4308470000000  0.5140340000000  0.5229110000000 1.0
C      1  0.5313770000000  0.4741680000000  0.5257040000000 1.0
C      1  0.5491430000000  0.4439040000000  0.5672280000000 1.0
END
