TITL C-2848504-8560-426 0.00030608125831863 125000 -106.750312595523 0 0 20 (C1) n - 1
REM
REM in /home/bkarasulu/work/CARBON/AIRSS/Generating-Clusters/AIREBO/with-SteepDescent/Only-C1/SD-CG-opt/Try1-1.4A-POS3A/HFTN-CG
REM
REM
REM
REM
REM
REM ./C.cell (11c1c37f851c82e70ff6c80c92926a4b)
REM
REM compiler GCC version 9.2.1 20190827 (Red Hat 9.2.1-1)
REM options -cpp -mtune=generic -march=x86-64 -g -O0 -fpre-include=/usr/include/finclude/math-vector-fortran.h
REM seed 809412040 -1016784076 -1493370243 -1963657210 928312426 -567202161 -1367478495 -306108926 -280618081 1310132107 256138334 -1026445153 1634495268 -1971923046 1608165835 1037784925 1557961053 1354280375 -210109506 -856278764 13961365 -2004574720 -169976329 -545528624 -682879441 778157152 -1052370970 1536916702 -1158207109 1713187294 1631275693 2121887098 509288451
REM
CELL 1.54180   50.00000   50.00000   50.00000   90.00000   90.00000   90.00000
LATT -1
SFAC C  
C      1  0.4573510000000  0.5157620000000  0.4487310000000 1.0
C      1  0.5538020000000  0.5000680000000  0.4550680000000 1.0
C      1  0.5346120000000  0.5637290000000  0.4807450000000 1.0
C      1  0.5449070000000  0.4710020000000  0.5172170000000 1.0
C      1  0.4829680000000  0.4785640000000  0.5080660000000 1.0
C      1  0.4759080000000  0.5511180000000  0.5062310000000 1.0
C      1  0.4907960000000  0.4887120000000  0.4824160000000 1.0
C      1  0.4786060000000  0.5225870000000  0.4997680000000 1.0
C      1  0.4562410000000  0.5044120000000  0.5422800000000 1.0
C      1  0.4954150000000  0.4566000000000  0.5210690000000 1.0
C      1  0.4814500000000  0.4336980000000  0.5276680000000 1.0
C      1  0.4717480000000  0.5018410000000  0.5207560000000 1.0
C      1  0.5306010000000  0.5386480000000  0.4809730000000 1.0
C      1  0.5222980000000  0.4605490000000  0.5278030000000 1.0
C      1  0.5426540000000  0.5077690000000  0.4793750000000 1.0
C      1  0.5101820000000  0.5135780000000  0.4831780000000 1.0
C      1  0.4689180000000  0.4110220000000  0.5316320000000 1.0
C      1  0.4756360000000  0.5757160000000  0.5132360000000 1.0
C      1  0.5530930000000  0.4931160000000  0.5041820000000 1.0
C      1  0.4728130000000  0.5115090000000  0.4696060000000 1.0
END
