TITL C-2847951-7423-364 0.00304896309668985 125000 -437.853140520072 0 0 80 (C1) n - 1
REM
REM in /home/bkarasulu/work/CARBON/AIRSS/Generating-Clusters/AIREBO/with-SteepDescent/Only-C1/SD-CG-opt/Try1-1.4A-POS3A/HFTN-CG
REM
REM
REM
REM
REM
REM ./C.cell (11c1c37f851c82e70ff6c80c92926a4b)
REM
REM compiler GCC version 9.2.1 20190827 (Red Hat 9.2.1-1)
REM options -cpp -mtune=generic -march=x86-64 -g -O0 -fpre-include=/usr/include/finclude/math-vector-fortran.h
REM seed 461982522 -642011565 1543148923 -326823965 1655865906 -1024050137 1299255051 -1850924989 2029255179 -1850567769 1252787683 342141379 1310151148 -1041579979 -939340677 -149316084 -1728083322 -32280264 1436598907 1197013416 1227342339 165247748 420922599 1345484491 1184978590 194149802 2039347291 -370315219 1063038788 1829681608 -934502525 1781537888 332219406
REM
CELL 1.54180   50.00000   50.00000   50.00000   90.00000   90.00000   90.00000
LATT -1
SFAC C  
C      1  0.4845000000000  0.5245340000000  0.5220470000000 1.0
C      1  0.5201140000000  0.4719210000000  0.4240390000000 1.0
C      1  0.5269620000000  0.5028650000000  0.4165460000000 1.0
C      1  0.5251170000000  0.4558980000000  0.5721260000000 1.0
C      1  0.5623450000000  0.4624980000000  0.5255930000000 1.0
C      1  0.5116820000000  0.5537980000000  0.4528820000000 1.0
C      1  0.5179480000000  0.5063470000000  0.4639620000000 1.0
C      1  0.5478820000000  0.5121140000000  0.4333260000000 1.0
C      1  0.4604580000000  0.4393330000000  0.5328790000000 1.0
C      1  0.5592400000000  0.5603170000000  0.5096590000000 1.0
C      1  0.4914590000000  0.4433220000000  0.4573530000000 1.0
C      1  0.4216720000000  0.5014030000000  0.5265300000000 1.0
C      1  0.4277000000000  0.4903710000000  0.4770540000000 1.0
C      1  0.4890460000000  0.5077620000000  0.5926620000000 1.0
C      1  0.4505160000000  0.4738380000000  0.4932410000000 1.0
C      1  0.4751320000000  0.4755060000000  0.5403640000000 1.0
C      1  0.5118770000000  0.5651000000000  0.5024750000000 1.0
C      1  0.5068930000000  0.5741570000000  0.4714600000000 1.0
C      1  0.5381780000000  0.5330060000000  0.4579340000000 1.0
C      1  0.5653730000000  0.5380010000000  0.5262530000000 1.0
C      1  0.5752190000000  0.4915300000000  0.5305240000000 1.0
C      1  0.5460700000000  0.4631100000000  0.5554430000000 1.0
C      1  0.5048870000000  0.4623010000000  0.5896980000000 1.0
C      1  0.5477700000000  0.4632650000000  0.4359950000000 1.0
C      1  0.5250060000000  0.4888660000000  0.5183200000000 1.0
C      1  0.4667760000000  0.4979080000000  0.4363680000000 1.0
C      1  0.4600220000000  0.5717550000000  0.5042850000000 1.0
C      1  0.5069520000000  0.4388260000000  0.5220670000000 1.0
C      1  0.5359970000000  0.5750060000000  0.5165780000000 1.0
C      1  0.5548550000000  0.4699970000000  0.4679890000000 1.0
C      1  0.4839630000000  0.5800530000000  0.4944440000000 1.0
C      1  0.5344790000000  0.5930410000000  0.5370590000000 1.0
C      1  0.5049000000000  0.5296950000000  0.5480080000000 1.0
C      1  0.5046860000000  0.5171540000000  0.4069300000000 1.0
C      1  0.4825040000000  0.4802300000000  0.5892050000000 1.0
C      1  0.4105010000000  0.4943120000000  0.5009670000000 1.0
C      1  0.5329650000000  0.4112100000000  0.4872570000000 1.0
C      1  0.4490470000000  0.5436740000000  0.4927190000000 1.0
C      1  0.4481110000000  0.5589720000000  0.5295720000000 1.0
C      1  0.4466260000000  0.4208150000000  0.4909740000000 1.0
C      1  0.5813070000000  0.5158290000000  0.5178120000000 1.0
C      1  0.4947140000000  0.4961860000000  0.5128410000000 1.0
C      1  0.4751480000000  0.4599580000000  0.5101830000000 1.0
C      1  0.4712420000000  0.5359680000000  0.4688860000000 1.0
C      1  0.5385230000000  0.5264900000000  0.5436550000000 1.0
C      1  0.4918000000000  0.4850330000000  0.4840370000000 1.0
C      1  0.4353390000000  0.4447720000000  0.5022620000000 1.0
C      1  0.4975170000000  0.4533640000000  0.4860290000000 1.0
C      1  0.5611870000000  0.5579000000000  0.4511130000000 1.0
C      1  0.4446560000000  0.5260560000000  0.5217790000000 1.0
C      1  0.4397270000000  0.5324990000000  0.4628730000000 1.0
C      1  0.4620670000000  0.4752620000000  0.5701080000000 1.0
C      1  0.4948370000000  0.5255870000000  0.5726940000000 1.0
C      1  0.4393560000000  0.5046610000000  0.4554460000000 1.0
C      1  0.5327920000000  0.5210270000000  0.5104770000000 1.0
C      1  0.5526290000000  0.5255250000000  0.4877960000000 1.0
C      1  0.5473400000000  0.4593770000000  0.4989170000000 1.0
C      1  0.4934730000000  0.5188530000000  0.4802630000000 1.0
C      1  0.4636410000000  0.5027500000000  0.5058870000000 1.0
C      1  0.4994580000000  0.4911110000000  0.4429030000000 1.0
C      1  0.4307260000000  0.4423370000000  0.5321940000000 1.0
C      1  0.5248840000000  0.4385460000000  0.4972250000000 1.0
C      1  0.4339350000000  0.4858330000000  0.5541580000000 1.0
C      1  0.5067580000000  0.4647760000000  0.5339380000000 1.0
C      1  0.5317160000000  0.4862360000000  0.4850780000000 1.0
C      1  0.5638270000000  0.4904720000000  0.4426480000000 1.0
C      1  0.4978420000000  0.4518210000000  0.4349480000000 1.0
C      1  0.4521110000000  0.4699880000000  0.4402040000000 1.0
C      1  0.4834340000000  0.5228030000000  0.4246920000000 1.0
C      1  0.5843350000000  0.5145700000000  0.4883220000000 1.0
C      1  0.4552840000000  0.4594680000000  0.4627970000000 1.0
C      1  0.4881880000000  0.5413550000000  0.4444600000000 1.0
C      1  0.4582440000000  0.5053650000000  0.5450940000000 1.0
C      1  0.4836300000000  0.4229630000000  0.5224470000000 1.0
C      1  0.5465360000000  0.5382800000000  0.5702250000000 1.0
C      1  0.5456110000000  0.4932400000000  0.5441040000000 1.0
C      1  0.4415990000000  0.5703220000000  0.5533850000000 1.0
C      1  0.5076340000000  0.5354630000000  0.5035280000000 1.0
C      1  0.4696210000000  0.4082390000000  0.5013560000000 1.0
C      1  0.5619020000000  0.5559010000000  0.4804520000000 1.0
END
