TITL C-2847948-6138-201 0.00221883346475385 125000 -384.982268993269 0 0 70 (C1) n - 1
REM
REM in /home/bkarasulu/work/CARBON/AIRSS/Generating-Clusters/AIREBO/with-SteepDescent/Only-C1/SD-CG-opt/Try1-1.4A-POS3A/HFTN-CG
REM
REM
REM
REM
REM
REM ./C.cell (11c1c37f851c82e70ff6c80c92926a4b)
REM
REM compiler GCC version 9.2.1 20190827 (Red Hat 9.2.1-1)
REM options -cpp -mtune=generic -march=x86-64 -g -O0 -fpre-include=/usr/include/finclude/math-vector-fortran.h
REM seed -568968817 -2041380771 1666950389 -691008710 -992568645 -2076571573 -1570179383 144660232 -1896625682 -1504342906 161163438 -875928984 1686994453 -1881000534 -1907296652 -1909388398 -820378621 566215107 1140798607 -396390176 1235231868 -1960872029 2088385817 -1852293702 2008250799 303442085 950456274 -338606317 -1694094112 -53428325 -583565363 1093168891 -1031995651
REM
CELL 1.54180   50.00000   50.00000   50.00000   90.00000   90.00000   90.00000
LATT -1
SFAC C  
C      1  0.4634140000000  0.5190930000000  0.5669980000000 1.0
C      1  0.5414500000000  0.4928620000000  0.5426750000000 1.0
C      1  0.5409950000000  0.5158480000000  0.4460070000000 1.0
C      1  0.5345490000000  0.4253770000000  0.4806960000000 1.0
C      1  0.5403890000000  0.4943650000000  0.4898490000000 1.0
C      1  0.4771110000000  0.4644910000000  0.5699320000000 1.0
C      1  0.4187510000000  0.5269340000000  0.4984070000000 1.0
C      1  0.4569950000000  0.5198510000000  0.5345340000000 1.0
C      1  0.5826780000000  0.4796160000000  0.5195110000000 1.0
C      1  0.5618600000000  0.5199320000000  0.4962900000000 1.0
C      1  0.5435400000000  0.4527490000000  0.5205340000000 1.0
C      1  0.4988390000000  0.5614700000000  0.4516960000000 1.0
C      1  0.4539770000000  0.4609940000000  0.4793640000000 1.0
C      1  0.5431590000000  0.5348520000000  0.4741200000000 1.0
C      1  0.4878350000000  0.5547430000000  0.4254370000000 1.0
C      1  0.5058880000000  0.4430900000000  0.4852690000000 1.0
C      1  0.5002410000000  0.5756230000000  0.4961040000000 1.0
C      1  0.5003960000000  0.5360540000000  0.5008960000000 1.0
C      1  0.4463060000000  0.4954720000000  0.5643780000000 1.0
C      1  0.5310000000000  0.4935380000000  0.4218530000000 1.0
C      1  0.4424010000000  0.5132870000000  0.4599510000000 1.0
C      1  0.5401600000000  0.4823540000000  0.4518250000000 1.0
C      1  0.4537570000000  0.5153730000000  0.4354590000000 1.0
C      1  0.4829260000000  0.5723130000000  0.4732390000000 1.0
C      1  0.4794550000000  0.4948660000000  0.5292070000000 1.0
C      1  0.5259660000000  0.5547310000000  0.4958290000000 1.0
C      1  0.4914060000000  0.5800050000000  0.5225180000000 1.0
C      1  0.5027710000000  0.4879870000000  0.4388550000000 1.0
C      1  0.5134580000000  0.5394080000000  0.4615270000000 1.0
C      1  0.5038100000000  0.5392530000000  0.5499740000000 1.0
C      1  0.4838930000000  0.5614830000000  0.5422170000000 1.0
C      1  0.5794850000000  0.4917600000000  0.4949690000000 1.0
C      1  0.5527120000000  0.5213980000000  0.5476610000000 1.0
C      1  0.5616180000000  0.4734700000000  0.4734280000000 1.0
C      1  0.5336420000000  0.5459520000000  0.5474880000000 1.0
C      1  0.5131540000000  0.4646040000000  0.5106020000000 1.0
C      1  0.5093110000000  0.4897490000000  0.4879860000000 1.0
C      1  0.5213920000000  0.4594660000000  0.4598130000000 1.0
C      1  0.4276170000000  0.4988400000000  0.5105540000000 1.0
C      1  0.4871160000000  0.4173210000000  0.4971090000000 1.0
C      1  0.4371680000000  0.4533960000000  0.4996140000000 1.0
C      1  0.5434260000000  0.5594440000000  0.5206160000000 1.0
C      1  0.5594340000000  0.4712890000000  0.5334350000000 1.0
C      1  0.4600670000000  0.5544640000000  0.4771430000000 1.0
C      1  0.4539130000000  0.4917960000000  0.4786150000000 1.0
C      1  0.4984590000000  0.4443420000000  0.5336260000000 1.0
C      1  0.5092340000000  0.4820760000000  0.5395360000000 1.0
C      1  0.5297990000000  0.5074740000000  0.5173230000000 1.0
C      1  0.4962690000000  0.5101600000000  0.4638030000000 1.0
C      1  0.4581400000000  0.4720590000000  0.5427440000000 1.0
C      1  0.4562470000000  0.5148580000000  0.5034920000000 1.0
C      1  0.5623710000000  0.5353550000000  0.5221770000000 1.0
C      1  0.4834410000000  0.5227260000000  0.4349040000000 1.0
C      1  0.4780560000000  0.4503150000000  0.4666630000000 1.0
C      1  0.4658010000000  0.4214140000000  0.5147020000000 1.0
C      1  0.4585770000000  0.5509070000000  0.5431240000000 1.0
C      1  0.5617810000000  0.4434970000000  0.4757920000000 1.0
C      1  0.5027220000000  0.5193890000000  0.5254580000000 1.0
C      1  0.4803460000000  0.4839420000000  0.4985150000000 1.0
C      1  0.5036870000000  0.5018150000000  0.5840220000000 1.0
C      1  0.5539040000000  0.4326930000000  0.5044400000000 1.0
C      1  0.4338170000000  0.4731220000000  0.5203120000000 1.0
C      1  0.4353770000000  0.5362230000000  0.4760120000000 1.0
C      1  0.5149240000000  0.5232960000000  0.4251040000000 1.0
C      1  0.5010490000000  0.4779130000000  0.5690350000000 1.0
C      1  0.4760450000000  0.5282060000000  0.4843380000000 1.0
C      1  0.4710520000000  0.4423200000000  0.5327810000000 1.0
C      1  0.4901730000000  0.5241440000000  0.5731720000000 1.0
C      1  0.5012400000000  0.4360620000000  0.4462610000000 1.0
C      1  0.4880600000000  0.4647280000000  0.4384820000000 1.0
END
