TITL C-2848507-1641-561 -4348.69193038241 125000 -431.60496538556 0 0 81 (C1) n - 1
REM
REM in /home/bkarasulu/work/CARBON/AIRSS/Generating-Clusters/AIREBO/with-SteepDescent/Only-C1/SD-CG-opt/Try1-1.4A-POS3A/HFTN-CG
REM
REM
REM
REM
REM
REM ./C.cell (11c1c37f851c82e70ff6c80c92926a4b)
REM
REM compiler GCC version 9.2.1 20190827 (Red Hat 9.2.1-1)
REM options -cpp -mtune=generic -march=x86-64 -g -O0 -fpre-include=/usr/include/finclude/math-vector-fortran.h
REM seed -1583406128 -513020933 -2084457059 -1700570862 1640074706 396920618 296870843 -877056751 1973779935 1062950925 -521638377 -756609379 -734094388 1844506112 1936021803 69325792 -462315296 -1695740657 -1679683044 972437764 -1030365644 -1630373619 -1277511621 -375845842 -559923443 1953333083 -437128720 -1080271517 1372173535 268615609 -941470345 298037534 -1121453407
REM
CELL 1.54180   50.00000   50.00000   50.00000   90.00000   90.00000   90.00000
LATT -1
SFAC C  
C      1  0.5384100000000  0.5707340000000  0.5257580000000 1.0
C      1  0.5181360000000  0.4417250000000  0.4509330000000 1.0
C      1  0.4321410000000  0.4659100000000  0.5126150000000 1.0
C      1  0.5411440000000  0.4421110000000  0.4672720000000 1.0
C      1  0.4813170000000  0.4610410000000  0.5187990000000 1.0
C      1  0.4980190000000  0.5499260000000  0.4841100000000 1.0
C      1  0.5352840000000  0.4822760000000  0.4135550000000 1.0
C      1  0.4628980000000  0.4319120000000  0.5419730000000 1.0
C      1  0.5174200000000  0.4543790000000  0.5641720000000 1.0
C      1  0.4541740000000  0.4450970000000  0.5133920000000 1.0
C      1  0.5117350000000  0.5094830000000  0.5153530000000 1.0
C      1  0.4550930000000  0.4936750000000  0.5619070000000 1.0
C      1  0.4268370000000  0.4844920000000  0.4479420000000 1.0
C      1  0.4603150000000  0.4865200000000  0.4709170000000 1.0
C      1  0.4723560000000  0.5458830000000  0.5660690000000 1.0
C      1  0.4752230000000  0.4909330000000  0.5221030000000 1.0
C      1  0.4723760000000  0.5211870000000  0.4336880000000 1.0
C      1  0.5484740000000  0.5208880000000  0.5570120000000 1.0
C      1  0.4808890000000  0.5623240000000  0.5180380000000 1.0
C      1  0.5408980000000  0.4249980000000  0.5311450000000 1.0
C      1  0.5137310000000  0.4550590000000  0.4961480000000 1.0
C      1  0.5429740000000  0.4724930000000  0.5385510000000 1.0
C      1  0.5415290000000  0.5721520000000  0.4919300000000 1.0
C      1  0.5335870000000  0.5207090000000  0.4772010000000 1.0
C      1  0.4776270000000  0.5112100000000  0.4607220000000 1.0
C      1  0.4288930000000  0.5332810000000  0.4756610000000 1.0
C      1  0.5420000000000  0.5029690000000  0.5294310000000 1.0
C      1  0.5505230000000  0.5528830000000  0.5513610000000 1.0
C      1  0.5771140000000  0.4684900000000  0.5062170000000 1.0
C      1  0.5388090000000  0.4316090000000  0.5606780000000 1.0
C      1  0.4965540000000  0.5171090000000  0.4175400000000 1.0
C      1  0.4599470000000  0.5382720000000  0.4840470000000 1.0
C      1  0.5733540000000  0.5110490000000  0.4741580000000 1.0
C      1  0.5498350000000  0.5222050000000  0.5043240000000 1.0
C      1  0.4537040000000  0.5418200000000  0.4518400000000 1.0
C      1  0.5098820000000  0.4364720000000  0.5244730000000 1.0
C      1  0.4555520000000  0.4288940000000  0.4873480000000 1.0
C      1  0.4865140000000  0.4887700000000  0.4917800000000 1.0
C      1  0.4925800000000  0.4630600000000  0.4727160000000 1.0
C      1  0.5284490000000  0.5394150000000  0.5209870000000 1.0
C      1  0.4946760000000  0.4274560000000  0.4516060000000 1.0
C      1  0.4685320000000  0.4434280000000  0.4634310000000 1.0
C      1  0.5110420000000  0.5717940000000  0.5054990000000 1.0
C      1  0.5567050000000  0.4646990000000  0.4616820000000 1.0
C      1  0.4855930000000  0.5537020000000  0.4526870000000 1.0
C      1  0.4880100000000  0.4420080000000  0.5525130000000 1.0
C      1  0.5274990000000  0.4862110000000  0.4961400000000 1.0
C      1  0.5480670000000  0.4799030000000  0.4382350000000 1.0
C      1  0.5586400000000  0.4521180000000  0.5208590000000 1.0
C      1  0.5067550000000  0.4907820000000  0.4166860000000 1.0
C      1  0.5399210000000  0.4349800000000  0.4984230000000 1.0
C      1  0.5172610000000  0.5451250000000  0.5514660000000 1.0
C      1  0.4565950000000  0.5136840000000  0.5071510000000 1.0
C      1  0.5113230000000  0.4676510000000  0.5334650000000 1.0
C      1  0.4311660000000  0.4969710000000  0.5470420000000 1.0
C      1  0.5116380000000  0.4849800000000  0.5766680000000 1.0
C      1  0.4706370000000  0.5839600000000  0.4593430000000 1.0
C      1  0.4237820000000  0.5024880000000  0.4689370000000 1.0
C      1  0.5342440000000  0.5409480000000  0.4421780000000 1.0
C      1  0.5451720000000  0.5521540000000  0.4714460000000 1.0
C      1  0.4704410000000  0.5689590000000  0.4862770000000 1.0
C      1  0.5551420000000  0.4881280000000  0.5635490000000 1.0
C      1  0.4200320000000  0.4734660000000  0.5357880000000 1.0
C      1  0.5600150000000  0.4843190000000  0.4851900000000 1.0
C      1  0.4711410000000  0.5186690000000  0.5620440000000 1.0
C      1  0.4901400000000  0.5591240000000  0.5503530000000 1.0
C      1  0.5283170000000  0.4927660000000  0.4627590000000 1.0
C      1  0.4292400000000  0.5426490000000  0.5089150000000 1.0
C      1  0.4376230000000  0.4887580000000  0.4939310000000 1.0
C      1  0.4956960000000  0.5025110000000  0.5445800000000 1.0
C      1  0.4468760000000  0.5627490000000  0.5179190000000 1.0
C      1  0.5177380000000  0.5150360000000  0.5673590000000 1.0
C      1  0.4843790000000  0.5295930000000  0.5175090000000 1.0
C      1  0.5093960000000  0.4727720000000  0.4447720000000 1.0
C      1  0.4495330000000  0.4654060000000  0.4492710000000 1.0
C      1  0.5020960000000  0.5179250000000  0.4838170000000 1.0
C      1  0.5079120000000  0.5393930000000  0.4346700000000 1.0
C      1  0.4307890000000  0.5190460000000  0.5286300000000 1.0
C      1  0.5821690000000  0.5253280000000  0.4988670000000 1.0
C      1  0.5642060000000  0.5298190000000  0.4537790000000 1.0
C      1  0.4835650000000  0.4751240000000  0.5606950000000 1.0
END
