TITL C-2848508-1660-232 -0.00207014410095087 125000 -386.976657154128 0 0 72 (C1) n - 1
REM
REM in /home/bkarasulu/work/CARBON/AIRSS/Generating-Clusters/AIREBO/with-SteepDescent/Only-C1/SD-CG-opt/Try1-1.4A-POS3A/HFTN-CG
REM
REM
REM
REM
REM
REM ./C.cell (11c1c37f851c82e70ff6c80c92926a4b)
REM
REM compiler GCC version 9.2.1 20190827 (Red Hat 9.2.1-1)
REM options -cpp -mtune=generic -march=x86-64 -g -O0 -fpre-include=/usr/include/finclude/math-vector-fortran.h
REM seed 1400599494 -426268571 -842612971 -874097901 723167248 1512557907 -1225311093 2020977589 4620377 105331566 -1599590512 836196994 180213379 756612396 1377308824 539570666 681774682 1009947529 -601024387 -1625888587 -1230799247 1332730304 -2009931348 451623896 15611966 51989933 -1805445632 -1513462121 -599449608 726154776 -999454125 -1902391681 1014319056
REM
CELL 1.54180   50.00000   50.00000   50.00000   90.00000   90.00000   90.00000
LATT -1
SFAC C  
C      1  0.5571380000000  0.4976730000000  0.5030100000000 1.0
C      1  0.5268170000000  0.4853860000000  0.5494860000000 1.0
C      1  0.5579920000000  0.5448710000000  0.5141800000000 1.0
C      1  0.4856940000000  0.4937880000000  0.5807380000000 1.0
C      1  0.5293590000000  0.5559680000000  0.4992060000000 1.0
C      1  0.4848350000000  0.5612270000000  0.4672520000000 1.0
C      1  0.4643860000000  0.4306680000000  0.4590020000000 1.0
C      1  0.4874570000000  0.4463550000000  0.4987370000000 1.0
C      1  0.4273840000000  0.4999760000000  0.5141020000000 1.0
C      1  0.4735350000000  0.5250200000000  0.5757510000000 1.0
C      1  0.5092560000000  0.4275900000000  0.4808050000000 1.0
C      1  0.5234280000000  0.4771330000000  0.5105300000000 1.0
C      1  0.4978880000000  0.4659170000000  0.4729420000000 1.0
C      1  0.4900640000000  0.5498860000000  0.5251020000000 1.0
C      1  0.5358540000000  0.4599790000000  0.5443630000000 1.0
C      1  0.4381360000000  0.5439310000000  0.4542020000000 1.0
C      1  0.4894570000000  0.5012840000000  0.5296650000000 1.0
C      1  0.4361830000000  0.4691720000000  0.5213590000000 1.0
C      1  0.4552440000000  0.5134200000000  0.4738860000000 1.0
C      1  0.4610790000000  0.5438560000000  0.5143590000000 1.0
C      1  0.5554650000000  0.5243470000000  0.5416500000000 1.0
C      1  0.5679960000000  0.5186050000000  0.4601620000000 1.0
C      1  0.4652670000000  0.5081180000000  0.5495050000000 1.0
C      1  0.5814400000000  0.4747200000000  0.4812960000000 1.0
C      1  0.5320650000000  0.5071830000000  0.5239140000000 1.0
C      1  0.4494390000000  0.4847510000000  0.4317870000000 1.0
C      1  0.4444110000000  0.5215600000000  0.5327890000000 1.0
C      1  0.4807870000000  0.5664730000000  0.5533010000000 1.0
C      1  0.4811830000000  0.5172920000000  0.4377340000000 1.0
C      1  0.5219270000000  0.4899790000000  0.4676380000000 1.0
C      1  0.5197680000000  0.4406120000000  0.4511740000000 1.0
C      1  0.4555230000000  0.5652390000000  0.4542910000000 1.0
C      1  0.4937750000000  0.4873380000000  0.4990260000000 1.0
C      1  0.4937560000000  0.4959000000000  0.4272670000000 1.0
C      1  0.5782100000000  0.4865830000000  0.5264330000000 1.0
C      1  0.5005350000000  0.5273540000000  0.5463520000000 1.0
C      1  0.4549000000000  0.4571580000000  0.5458220000000 1.0
C      1  0.5887220000000  0.5016670000000  0.4775060000000 1.0
C      1  0.5380870000000  0.5590740000000  0.5379130000000 1.0
C      1  0.5749540000000  0.4625690000000  0.5087250000000 1.0
C      1  0.4734220000000  0.4458140000000  0.5703710000000 1.0
C      1  0.5088090000000  0.4597080000000  0.4338790000000 1.0
C      1  0.4500780000000  0.5177060000000  0.4405530000000 1.0
C      1  0.5257540000000  0.5395930000000  0.4492750000000 1.0
C      1  0.4841780000000  0.4618140000000  0.5870340000000 1.0
C      1  0.5457490000000  0.4526340000000  0.5138070000000 1.0
C      1  0.5427570000000  0.4460290000000  0.4706880000000 1.0
C      1  0.5121850000000  0.5299820000000  0.5082180000000 1.0
C      1  0.5186560000000  0.5621190000000  0.4713470000000 1.0
C      1  0.5484390000000  0.4747020000000  0.4794800000000 1.0
C      1  0.4728100000000  0.5514850000000  0.5749600000000 1.0
C      1  0.5294350000000  0.5344150000000  0.5597010000000 1.0
C      1  0.4774890000000  0.4197930000000  0.4806390000000 1.0
C      1  0.4276170000000  0.4760980000000  0.4896760000000 1.0
C      1  0.4962020000000  0.5322560000000  0.4579480000000 1.0
C      1  0.5383180000000  0.4280870000000  0.4959360000000 1.0
C      1  0.4667540000000  0.5390840000000  0.4839210000000 1.0
C      1  0.4743380000000  0.4554250000000  0.4531110000000 1.0
C      1  0.4382720000000  0.4865790000000  0.4617120000000 1.0
C      1  0.5240750000000  0.4890360000000  0.4337000000000 1.0
C      1  0.4574830000000  0.4820210000000  0.5653410000000 1.0
C      1  0.4215380000000  0.5409530000000  0.4758720000000 1.0
C      1  0.5688370000000  0.5254360000000  0.4927230000000 1.0
C      1  0.4773470000000  0.4688070000000  0.4245400000000 1.0
C      1  0.4683960000000  0.4610880000000  0.5151190000000 1.0
C      1  0.4323930000000  0.5304140000000  0.5019530000000 1.0
C      1  0.5403870000000  0.5133820000000  0.4512070000000 1.0
C      1  0.4600250000000  0.4871120000000  0.4948960000000 1.0
C      1  0.5791740000000  0.5050770000000  0.5462740000000 1.0
C      1  0.5118190000000  0.5055670000000  0.5675370000000 1.0
C      1  0.5035030000000  0.5145540000000  0.4822350000000 1.0
C      1  0.5143670000000  0.5736040000000  0.5233860000000 1.0
END
