TITL C-2848508-1660-521 0.00377272335582967 125000 -709.934928404532 0 0 130 (C1) n - 1
REM
REM in /home/bkarasulu/work/CARBON/AIRSS/Generating-Clusters/AIREBO/with-SteepDescent/Only-C1/SD-CG-opt/Try1-1.4A-POS3A/HFTN-CG
REM
REM
REM
REM
REM
REM ./C.cell (11c1c37f851c82e70ff6c80c92926a4b)
REM
REM compiler GCC version 9.2.1 20190827 (Red Hat 9.2.1-1)
REM options -cpp -mtune=generic -march=x86-64 -g -O0 -fpre-include=/usr/include/finclude/math-vector-fortran.h
REM seed 1390830999 314837818 502836383 -345078784 1962424358 584764829 -1441272815 -1267047236 -1534444728 1737466281 -1264493759 -318828614 1775175385 1562574317 680010074 -255076428 -1075067101 -1245053082 -1189863304 1333969132 1940765821 -1013144950 569934316 614823807 -1689286082 1691205431 -154534684 1769260343 -983918946 -570224627 2019403406 -160692140 174229885
REM
CELL 1.54180   50.00000   50.00000   50.00000   90.00000   90.00000   90.00000
LATT -1
SFAC C  
C      1  0.5666580000000  0.5677700000000  0.5125480000000 1.0
C      1  0.5331870000000  0.5118350000000  0.5193670000000 1.0
C      1  0.5134960000000  0.5640980000000  0.4448830000000 1.0
C      1  0.5035830000000  0.4337970000000  0.5146570000000 1.0
C      1  0.5356880000000  0.4423810000000  0.5797630000000 1.0
C      1  0.4280580000000  0.5459960000000  0.5609960000000 1.0
C      1  0.5200010000000  0.4443140000000  0.4730560000000 1.0
C      1  0.5539030000000  0.5344530000000  0.5563020000000 1.0
C      1  0.4855480000000  0.4488450000000  0.5796220000000 1.0
C      1  0.5816890000000  0.5087820000000  0.6006860000000 1.0
C      1  0.5308130000000  0.5099340000000  0.5516410000000 1.0
C      1  0.5541170000000  0.4563660000000  0.4337160000000 1.0
C      1  0.4520590000000  0.5596350000000  0.5627540000000 1.0
C      1  0.5125690000000  0.4885770000000  0.4487400000000 1.0
C      1  0.5607330000000  0.5420470000000  0.4911140000000 1.0
C      1  0.4859010000000  0.4146600000000  0.5365090000000 1.0
C      1  0.5868470000000  0.5705730000000  0.5383360000000 1.0
C      1  0.4371700000000  0.4997100000000  0.4554020000000 1.0
C      1  0.5185730000000  0.5874290000000  0.5164820000000 1.0
C      1  0.5358480000000  0.5551520000000  0.5759030000000 1.0
C      1  0.5120780000000  0.4585230000000  0.5812090000000 1.0
C      1  0.5307070000000  0.5482620000000  0.5356240000000 1.0
C      1  0.4000120000000  0.4567960000000  0.5133560000000 1.0
C      1  0.5073300000000  0.5451060000000  0.4015590000000 1.0
C      1  0.4426290000000  0.4677170000000  0.5327830000000 1.0
C      1  0.5805310000000  0.5416280000000  0.5393210000000 1.0
C      1  0.4802180000000  0.5502840000000  0.5058030000000 1.0
C      1  0.5631600000000  0.4189590000000  0.5085190000000 1.0
C      1  0.5085620000000  0.5396350000000  0.5866460000000 1.0
C      1  0.4929800000000  0.5432140000000  0.6092610000000 1.0
C      1  0.4273660000000  0.5752510000000  0.4981080000000 1.0
C      1  0.5308500000000  0.4716510000000  0.5244740000000 1.0
C      1  0.4784120000000  0.4106640000000  0.4543400000000 1.0
C      1  0.4571050000000  0.5208060000000  0.5708640000000 1.0
C      1  0.4331200000000  0.4465590000000  0.4672020000000 1.0
C      1  0.5075880000000  0.5652400000000  0.5633840000000 1.0
C      1  0.4671450000000  0.5672160000000  0.4721140000000 1.0
C      1  0.5332190000000  0.4683910000000  0.4210810000000 1.0
C      1  0.5499180000000  0.5211870000000  0.4203130000000 1.0
C      1  0.5061910000000  0.5006240000000  0.4781510000000 1.0
C      1  0.4578210000000  0.5711400000000  0.4432040000000 1.0
C      1  0.4096250000000  0.5017890000000  0.5353340000000 1.0
C      1  0.5909730000000  0.4576380000000  0.4808150000000 1.0
C      1  0.5568510000000  0.4720080000000  0.5464500000000 1.0
C      1  0.4506110000000  0.4423410000000  0.5513150000000 1.0
C      1  0.5048270000000  0.4594800000000  0.4330620000000 1.0
C      1  0.4195030000000  0.4800610000000  0.4701320000000 1.0
C      1  0.5464960000000  0.4378800000000  0.4583520000000 1.0
C      1  0.4935140000000  0.5832470000000  0.5381400000000 1.0
C      1  0.4575220000000  0.5158060000000  0.4751670000000 1.0
C      1  0.5149920000000  0.5097680000000  0.5791360000000 1.0
C      1  0.5850370000000  0.5009460000000  0.5071010000000 1.0
C      1  0.5391160000000  0.4188120000000  0.5635410000000 1.0
C      1  0.5837370000000  0.4829460000000  0.5302320000000 1.0
C      1  0.5108960000000  0.5321730000000  0.4876430000000 1.0
C      1  0.4840950000000  0.3912210000000  0.4350350000000 1.0
C      1  0.5560390000000  0.5123050000000  0.4991170000000 1.0
C      1  0.5329780000000  0.4954790000000  0.4078950000000 1.0
C      1  0.5752640000000  0.5107710000000  0.4414990000000 1.0
C      1  0.4967870000000  0.5576870000000  0.4738130000000 1.0
C      1  0.5121290000000  0.4829070000000  0.5496670000000 1.0
C      1  0.4822870000000  0.4779240000000  0.5461180000000 1.0
C      1  0.4841860000000  0.4007230000000  0.4863420000000 1.0
C      1  0.4169300000000  0.4961790000000  0.4998240000000 1.0
C      1  0.4075670000000  0.5246430000000  0.5102280000000 1.0
C      1  0.5896810000000  0.5299900000000  0.5159430000000 1.0
C      1  0.4713330000000  0.5063130000000  0.4150440000000 1.0
C      1  0.4812830000000  0.4533500000000  0.5277630000000 1.0
C      1  0.4904860000000  0.6088070000000  0.5544590000000 1.0
C      1  0.4196740000000  0.5454240000000  0.4900740000000 1.0
C      1  0.4196180000000  0.5234880000000  0.4450770000000 1.0
C      1  0.4468360000000  0.4925480000000  0.5787800000000 1.0
C      1  0.4520530000000  0.5425910000000  0.4883740000000 1.0
C      1  0.4691860000000  0.5911070000000  0.5157230000000 1.0
C      1  0.4099770000000  0.5407660000000  0.4607440000000 1.0
C      1  0.4133570000000  0.4720680000000  0.5312900000000 1.0
C      1  0.5691120000000  0.5210370000000  0.5821610000000 1.0
C      1  0.4753700000000  0.4647220000000  0.4605850000000 1.0
C      1  0.4743250000000  0.4307890000000  0.5599190000000 1.0
C      1  0.5392450000000  0.5711840000000  0.5234790000000 1.0
C      1  0.4899670000000  0.5033740000000  0.5146840000000 1.0
C      1  0.4961390000000  0.3947380000000  0.5108940000000 1.0
C      1  0.5059370000000  0.5321770000000  0.5187680000000 1.0
C      1  0.4255350000000  0.5380430000000  0.5311960000000 1.0
C      1  0.4080830000000  0.4549350000000  0.4880230000000 1.0
C      1  0.4911810000000  0.4525350000000  0.4891250000000 1.0
C      1  0.4470520000000  0.4229960000000  0.4543340000000 1.0
C      1  0.4539430000000  0.4712230000000  0.4089460000000 1.0
C      1  0.4482000000000  0.4933210000000  0.4951390000000 1.0
C      1  0.5721640000000  0.4548600000000  0.5232950000000 1.0
C      1  0.4602740000000  0.4848020000000  0.4394670000000 1.0
C      1  0.4608860000000  0.4957440000000  0.5265980000000 1.0
C      1  0.4553800000000  0.5269370000000  0.5389940000000 1.0
C      1  0.4536970000000  0.5817740000000  0.4961790000000 1.0
C      1  0.5474950000000  0.4189880000000  0.5370060000000 1.0
C      1  0.5929490000000  0.5505310000000  0.4933180000000 1.0
C      1  0.5668740000000  0.4637170000000  0.4633790000000 1.0
C      1  0.5194840000000  0.5949350000000  0.4903870000000 1.0
C      1  0.5149440000000  0.4853780000000  0.5911110000000 1.0
C      1  0.5846230000000  0.4401290000000  0.5023630000000 1.0
C      1  0.5018640000000  0.4957000000000  0.4172550000000 1.0
C      1  0.4980920000000  0.5339380000000  0.4417160000000 1.0
C      1  0.4589860000000  0.5575700000000  0.4223010000000 1.0
C      1  0.5433390000000  0.5000090000000  0.4461190000000 1.0
C      1  0.5502580000000  0.4886740000000  0.4774210000000 1.0
C      1  0.4938960000000  0.4374080000000  0.4523940000000 1.0
C      1  0.5945430000000  0.5019840000000  0.4577830000000 1.0
C      1  0.4660840000000  0.4732690000000  0.5743870000000 1.0
C      1  0.5971430000000  0.4871320000000  0.4822690000000 1.0
C      1  0.4491730000000  0.4064120000000  0.5048210000000 1.0
C      1  0.5299120000000  0.5487750000000  0.4193190000000 1.0
C      1  0.4798800000000  0.5358740000000  0.4161080000000 1.0
C      1  0.5575780000000  0.5937360000000  0.4544180000000 1.0
C      1  0.5284900000000  0.5281170000000  0.4528170000000 1.0
C      1  0.4674410000000  0.4282050000000  0.4882320000000 1.0
C      1  0.4556430000000  0.4474540000000  0.5118390000000 1.0
C      1  0.4484170000000  0.4957750000000  0.3922180000000 1.0
C      1  0.4250500000000  0.5117200000000  0.5610280000000 1.0
C      1  0.5574340000000  0.4603260000000  0.5746630000000 1.0
C      1  0.4840810000000  0.5169010000000  0.4625440000000 1.0
C      1  0.4534950000000  0.4652880000000  0.4850160000000 1.0
C      1  0.4990750000000  0.5864110000000  0.4317910000000 1.0
C      1  0.4745260000000  0.5550280000000  0.5380980000000 1.0
C      1  0.5408740000000  0.4619700000000  0.4936770000000 1.0
C      1  0.5327270000000  0.4340330000000  0.5113290000000 1.0
C      1  0.5370510000000  0.5485430000000  0.4746350000000 1.0
C      1  0.4831320000000  0.4676970000000  0.4114800000000 1.0
C      1  0.5062660000000  0.4799340000000  0.5024700000000 1.0
C      1  0.5343460000000  0.5790780000000  0.4671750000000 1.0
C      1  0.4595150000000  0.3977740000000  0.5263010000000 1.0
END
