TITL C-2848506-1665-83 0.00594901984961562 125000 -580.116323397604 0 0 106 (C1) n - 1
REM
REM in /home/bkarasulu/work/CARBON/AIRSS/Generating-Clusters/AIREBO/with-SteepDescent/Only-C1/SD-CG-opt/Try1-1.4A-POS3A/HFTN-CG
REM
REM
REM
REM
REM
REM ./C.cell (11c1c37f851c82e70ff6c80c92926a4b)
REM
REM compiler GCC version 9.2.1 20190827 (Red Hat 9.2.1-1)
REM options -cpp -mtune=generic -march=x86-64 -g -O0 -fpre-include=/usr/include/finclude/math-vector-fortran.h
REM seed 478091040 -497488304 1982169840 -147050131 -1015981508 -1010122883 -240161497 -1739766082 1162448263 770114692 -84363658 1586500584 516230572 -1093544105 -2010731437 -586296981 -2060224044 1325468052 699019990 -114962003 101153265 -1440811822 927322146 700679540 502375600 -1187650514 383260720 -993464962 -1786210810 759284968 934203078 2066369270 -1884641058
REM
CELL 1.54180   50.00000   50.00000   50.00000   90.00000   90.00000   90.00000
LATT -1
SFAC C  
C      1  0.5522930000000  0.5991660000000  0.4953120000000 1.0
C      1  0.4346810000000  0.4714910000000  0.4442390000000 1.0
C      1  0.5070030000000  0.5777350000000  0.4679780000000 1.0
C      1  0.5708420000000  0.4898540000000  0.4405500000000 1.0
C      1  0.4799460000000  0.4636300000000  0.4659370000000 1.0
C      1  0.4305210000000  0.5368030000000  0.4924460000000 1.0
C      1  0.5606860000000  0.4339270000000  0.4975320000000 1.0
C      1  0.5159400000000  0.4610170000000  0.4848170000000 1.0
C      1  0.5343820000000  0.5678890000000  0.4503170000000 1.0
C      1  0.4570790000000  0.4309120000000  0.4587860000000 1.0
C      1  0.5310790000000  0.4264120000000  0.4720840000000 1.0
C      1  0.5020800000000  0.5160250000000  0.4093130000000 1.0
C      1  0.5755160000000  0.4808200000000  0.5050000000000 1.0
C      1  0.5571620000000  0.4434000000000  0.4650310000000 1.0
C      1  0.4719690000000  0.5038830000000  0.4527920000000 1.0
C      1  0.5570460000000  0.5270970000000  0.5625070000000 1.0
C      1  0.4757010000000  0.5813630000000  0.5550300000000 1.0
C      1  0.4894420000000  0.5248630000000  0.4928690000000 1.0
C      1  0.5454510000000  0.4999550000000  0.4696800000000 1.0
C      1  0.5248560000000  0.5551750000000  0.5041650000000 1.0
C      1  0.4991060000000  0.4783310000000  0.5444110000000 1.0
C      1  0.5403940000000  0.4578900000000  0.5532520000000 1.0
C      1  0.5828030000000  0.5213500000000  0.5013590000000 1.0
C      1  0.5676030000000  0.4959540000000  0.5711570000000 1.0
C      1  0.5178540000000  0.5062980000000  0.4953430000000 1.0
C      1  0.4026020000000  0.4937120000000  0.5238850000000 1.0
C      1  0.4990030000000  0.4942940000000  0.4426940000000 1.0
C      1  0.5012390000000  0.4306920000000  0.5558520000000 1.0
C      1  0.5009760000000  0.5135650000000  0.5642160000000 1.0
C      1  0.4725600000000  0.4646100000000  0.4117820000000 1.0
C      1  0.5867090000000  0.4749360000000  0.5530890000000 1.0
C      1  0.5059430000000  0.5427260000000  0.4272180000000 1.0
C      1  0.4230040000000  0.5084400000000  0.5669160000000 1.0
C      1  0.4528960000000  0.4897650000000  0.5092260000000 1.0
C      1  0.5341150000000  0.4163160000000  0.5031330000000 1.0
C      1  0.5598210000000  0.5745830000000  0.5358400000000 1.0
C      1  0.4202920000000  0.5190580000000  0.5378200000000 1.0
C      1  0.4426010000000  0.4983320000000  0.4401210000000 1.0
C      1  0.4960910000000  0.4852720000000  0.4118170000000 1.0
C      1  0.4913390000000  0.5512100000000  0.5094880000000 1.0
C      1  0.4746840000000  0.5311820000000  0.5766390000000 1.0
C      1  0.4308800000000  0.5078400000000  0.4823590000000 1.0
C      1  0.4596920000000  0.5554520000000  0.4586680000000 1.0
C      1  0.4609570000000  0.4555760000000  0.4389060000000 1.0
C      1  0.4936280000000  0.4857510000000  0.4861190000000 1.0
C      1  0.5596640000000  0.4629840000000  0.4446200000000 1.0
C      1  0.4205010000000  0.4689740000000  0.5209460000000 1.0
C      1  0.4771940000000  0.5114200000000  0.5421930000000 1.0
C      1  0.4395960000000  0.4395880000000  0.4787470000000 1.0
C      1  0.5003660000000  0.4527270000000  0.5138910000000 1.0
C      1  0.5015130000000  0.4371370000000  0.4657960000000 1.0
C      1  0.4494290000000  0.5200680000000  0.5243540000000 1.0
C      1  0.5168590000000  0.4822740000000  0.5184780000000 1.0
C      1  0.5473360000000  0.5472150000000  0.4444350000000 1.0
C      1  0.5116460000000  0.4265450000000  0.5265140000000 1.0
C      1  0.5349650000000  0.5363140000000  0.5305870000000 1.0
C      1  0.4307950000000  0.5157440000000  0.4226180000000 1.0
C      1  0.4467140000000  0.4569860000000  0.5029130000000 1.0
C      1  0.5949530000000  0.4958340000000  0.4554250000000 1.0
C      1  0.4433440000000  0.4846880000000  0.5688480000000 1.0
C      1  0.5650550000000  0.5265350000000  0.5233990000000 1.0
C      1  0.3885770000000  0.5167790000000  0.5137300000000 1.0
C      1  0.4640690000000  0.5783860000000  0.4988650000000 1.0
C      1  0.5240860000000  0.5152890000000  0.4497160000000 1.0
C      1  0.4714750000000  0.4568020000000  0.5221870000000 1.0
C      1  0.5138750000000  0.3937320000000  0.5173640000000 1.0
C      1  0.5730790000000  0.5004970000000  0.4790120000000 1.0
C      1  0.5690470000000  0.5511860000000  0.5451190000000 1.0
C      1  0.4873600000000  0.5922180000000  0.5312490000000 1.0
C      1  0.5587010000000  0.4995880000000  0.5389700000000 1.0
C      1  0.4552360000000  0.4850540000000  0.4756310000000 1.0
C      1  0.5860150000000  0.4629790000000  0.5287150000000 1.0
C      1  0.4729500000000  0.5779980000000  0.4689110000000 1.0
C      1  0.5112780000000  0.4582390000000  0.5654680000000 1.0
C      1  0.4820900000000  0.5546440000000  0.5598350000000 1.0
C      1  0.5833820000000  0.4369220000000  0.5192610000000 1.0
C      1  0.4230780000000  0.4620780000000  0.4688570000000 1.0
C      1  0.4570880000000  0.5489680000000  0.5098700000000 1.0
C      1  0.5255420000000  0.5307230000000  0.5611970000000 1.0
C      1  0.5013210000000  0.5467570000000  0.4570250000000 1.0
C      1  0.4724540000000  0.4085100000000  0.4570820000000 1.0
C      1  0.4761880000000  0.5301400000000  0.4656180000000 1.0
C      1  0.5016310000000  0.4854800000000  0.5834190000000 1.0
C      1  0.4602460000000  0.5961230000000  0.5713990000000 1.0
C      1  0.4179300000000  0.4810200000000  0.4892200000000 1.0
C      1  0.4698740000000  0.4979230000000  0.5818390000000 1.0
C      1  0.4746460000000  0.4256190000000  0.5600230000000 1.0
C      1  0.4821120000000  0.5008740000000  0.5121820000000 1.0
C      1  0.4336040000000  0.4599710000000  0.5494860000000 1.0
C      1  0.5349210000000  0.4625940000000  0.4285970000000 1.0
C      1  0.5343870000000  0.4903330000000  0.5757000000000 1.0
C      1  0.5250760000000  0.5342110000000  0.4779540000000 1.0
C      1  0.6045470000000  0.4988770000000  0.5034320000000 1.0
C      1  0.4565280000000  0.4421700000000  0.5465250000000 1.0
C      1  0.4674080000000  0.4806560000000  0.5458820000000 1.0
C      1  0.5470090000000  0.4633610000000  0.4986450000000 1.0
C      1  0.5035700000000  0.5456440000000  0.5397270000000 1.0
C      1  0.4968600000000  0.5834050000000  0.5000290000000 1.0
C      1  0.5313560000000  0.5286840000000  0.4129200000000 1.0
C      1  0.5450580000000  0.4756100000000  0.5302600000000 1.0
C      1  0.4334580000000  0.5531550000000  0.4659170000000 1.0
C      1  0.4076140000000  0.5389140000000  0.5128430000000 1.0
C      1  0.5456760000000  0.5780270000000  0.5115670000000 1.0
C      1  0.5213460000000  0.4682540000000  0.4064610000000 1.0
C      1  0.5535720000000  0.5154940000000  0.4337780000000 1.0
C      1  0.5242890000000  0.4765290000000  0.4570540000000 1.0
END
