TITL C-2848509-3138-621 0.00140065984297932 125000 -794.900128416993 0 0 146 (C1) n - 1
REM
REM in /home/bkarasulu/work/CARBON/AIRSS/Generating-Clusters/AIREBO/with-SteepDescent/Only-C1/SD-CG-opt/Try1-1.4A-POS3A/HFTN-CG
REM
REM
REM
REM
REM
REM ./C.cell (11c1c37f851c82e70ff6c80c92926a4b)
REM
REM compiler GCC version 9.2.1 20190827 (Red Hat 9.2.1-1)
REM options -cpp -mtune=generic -march=x86-64 -g -O0 -fpre-include=/usr/include/finclude/math-vector-fortran.h
REM seed -224073543 436491813 39101628 785835759 2076856352 948781514 1997416411 1256931896 854807698 -228315938 1536936085 -122028668 -930354513 -1630869913 -147591649 -1457661613 932706019 -1130831287 1602770116 1633387419 -254928040 -1428482908 -1223896273 -949388075 359220211 -1448130920 -1313798439 2109063249 -483426851 992843109 1728349323 194889207 313925552
REM
CELL 1.54180   50.00000   50.00000   50.00000   90.00000   90.00000   90.00000
LATT -1
SFAC C  
C      1  0.4783560000000  0.5245960000000  0.5312600000000 1.0
C      1  0.5484600000000  0.5441570000000  0.4636700000000 1.0
C      1  0.4077960000000  0.5490200000000  0.4992840000000 1.0
C      1  0.4961270000000  0.5996170000000  0.5062440000000 1.0
C      1  0.5502690000000  0.4933390000000  0.4063240000000 1.0
C      1  0.5032730000000  0.5433850000000  0.4844250000000 1.0
C      1  0.5564230000000  0.5735080000000  0.4535840000000 1.0
C      1  0.4746180000000  0.4587920000000  0.4713760000000 1.0
C      1  0.5350890000000  0.4559830000000  0.5048510000000 1.0
C      1  0.5346850000000  0.5578550000000  0.5608870000000 1.0
C      1  0.4863630000000  0.5438770000000  0.4121970000000 1.0
C      1  0.4679910000000  0.5947890000000  0.5076170000000 1.0
C      1  0.5487460000000  0.5117470000000  0.5643220000000 1.0
C      1  0.5611640000000  0.5438370000000  0.4928860000000 1.0
C      1  0.5304150000000  0.4778310000000  0.5444240000000 1.0
C      1  0.4537280000000  0.4894990000000  0.5219710000000 1.0
C      1  0.5198480000000  0.5130040000000  0.6044770000000 1.0
C      1  0.4184780000000  0.5574000000000  0.4505660000000 1.0
C      1  0.5056840000000  0.5910550000000  0.4480630000000 1.0
C      1  0.5806340000000  0.5500340000000  0.5530100000000 1.0
C      1  0.4632130000000  0.5020180000000  0.5507510000000 1.0
C      1  0.4515670000000  0.4365280000000  0.4808330000000 1.0
C      1  0.4992890000000  0.5252360000000  0.5918800000000 1.0
C      1  0.4049580000000  0.5256450000000  0.5494120000000 1.0
C      1  0.4569280000000  0.4379270000000  0.5104030000000 1.0
C      1  0.4558010000000  0.5586370000000  0.5588850000000 1.0
C      1  0.5828620000000  0.4415750000000  0.5297710000000 1.0
C      1  0.5555910000000  0.5697730000000  0.5112210000000 1.0
C      1  0.5983410000000  0.4531930000000  0.4575650000000 1.0
C      1  0.4368180000000  0.4467590000000  0.5526980000000 1.0
C      1  0.4213270000000  0.5216440000000  0.5732460000000 1.0
C      1  0.4558670000000  0.5087610000000  0.4871350000000 1.0
C      1  0.4947020000000  0.5124350000000  0.4169340000000 1.0
C      1  0.4221850000000  0.4533050000000  0.5227120000000 1.0
C      1  0.5831550000000  0.5050230000000  0.4708010000000 1.0
C      1  0.4552170000000  0.4168320000000  0.4462330000000 1.0
C      1  0.4993980000000  0.4604520000000  0.4144400000000 1.0
C      1  0.5593990000000  0.5573360000000  0.4276070000000 1.0
C      1  0.4835530000000  0.5875670000000  0.5541650000000 1.0
C      1  0.5783460000000  0.4657640000000  0.4362250000000 1.0
C      1  0.5939960000000  0.5397260000000  0.4542420000000 1.0
C      1  0.4363400000000  0.4738460000000  0.4265330000000 1.0
C      1  0.4740340000000  0.4441950000000  0.4406600000000 1.0
C      1  0.5504270000000  0.4736930000000  0.4308660000000 1.0
C      1  0.4826370000000  0.5012330000000  0.4748560000000 1.0
C      1  0.4767390000000  0.4179840000000  0.5523070000000 1.0
C      1  0.4951990000000  0.5676160000000  0.5306770000000 1.0
C      1  0.4745030000000  0.5141590000000  0.5871120000000 1.0
C      1  0.5249670000000  0.5141420000000  0.4015220000000 1.0
C      1  0.4663850000000  0.4096670000000  0.5242060000000 1.0
C      1  0.5123030000000  0.4091640000000  0.4591080000000 1.0
C      1  0.5582630000000  0.4953860000000  0.5358700000000 1.0
C      1  0.4774490000000  0.4965510000000  0.4415800000000 1.0
C      1  0.5539250000000  0.4307280000000  0.5432810000000 1.0
C      1  0.5567360000000  0.5408850000000  0.5646220000000 1.0
C      1  0.4897200000000  0.5756610000000  0.5795040000000 1.0
C      1  0.5666320000000  0.5236850000000  0.4476410000000 1.0
C      1  0.5219270000000  0.4711470000000  0.4775840000000 1.0
C      1  0.5978990000000  0.5385740000000  0.5073560000000 1.0
C      1  0.5070420000000  0.4131580000000  0.5566350000000 1.0
C      1  0.5131580000000  0.4507110000000  0.5680500000000 1.0
C      1  0.4438460000000  0.4991120000000  0.4462490000000 1.0
C      1  0.5974410000000  0.4847930000000  0.4534070000000 1.0
C      1  0.4115930000000  0.4727480000000  0.4695870000000 1.0
C      1  0.4105980000000  0.5017770000000  0.4619790000000 1.0
C      1  0.5264190000000  0.4451440000000  0.5359060000000 1.0
C      1  0.5612580000000  0.4642220000000  0.5231540000000 1.0
C      1  0.4074510000000  0.5483200000000  0.5311120000000 1.0
C      1  0.4344980000000  0.4222430000000  0.5290370000000 1.0
C      1  0.4822020000000  0.4607320000000  0.5786690000000 1.0
C      1  0.4564610000000  0.5838960000000  0.4830640000000 1.0
C      1  0.5237910000000  0.5162480000000  0.4850030000000 1.0
C      1  0.5101720000000  0.5978340000000  0.5350100000000 1.0
C      1  0.4732940000000  0.4627950000000  0.5268510000000 1.0
C      1  0.5341200000000  0.5740770000000  0.5346490000000 1.0
C      1  0.4527810000000  0.5290920000000  0.5686360000000 1.0
C      1  0.5069020000000  0.5496710000000  0.5752030000000 1.0
C      1  0.5178340000000  0.4215990000000  0.5846380000000 1.0
C      1  0.4200850000000  0.4797440000000  0.4043090000000 1.0
C      1  0.5131850000000  0.5893250000000  0.4802740000000 1.0
C      1  0.5349380000000  0.4727720000000  0.5773520000000 1.0
C      1  0.4380230000000  0.5588110000000  0.5232200000000 1.0
C      1  0.5826560000000  0.5547170000000  0.5252580000000 1.0
C      1  0.4978890000000  0.4841440000000  0.5367840000000 1.0
C      1  0.4409720000000  0.5267290000000  0.4658980000000 1.0
C      1  0.5323230000000  0.4181240000000  0.4924750000000 1.0
C      1  0.5528060000000  0.5251850000000  0.4180320000000 1.0
C      1  0.4676790000000  0.4471300000000  0.5556580000000 1.0
C      1  0.5169720000000  0.5129340000000  0.4426300000000 1.0
C      1  0.4240910000000  0.4667570000000  0.4953410000000 1.0
C      1  0.5046240000000  0.4216350000000  0.5241800000000 1.0
C      1  0.6001950000000  0.4690770000000  0.5345720000000 1.0
C      1  0.5901930000000  0.4927940000000  0.5249930000000 1.0
C      1  0.4577610000000  0.5811560000000  0.5334750000000 1.0
C      1  0.4324860000000  0.4327160000000  0.4582930000000 1.0
C      1  0.5913270000000  0.4297490000000  0.5025880000000 1.0
C      1  0.4758210000000  0.5311630000000  0.5003320000000 1.0
C      1  0.4533930000000  0.4776310000000  0.4901110000000 1.0
C      1  0.5183540000000  0.4814860000000  0.4083150000000 1.0
C      1  0.4177330000000  0.4738310000000  0.5499380000000 1.0
C      1  0.4063080000000  0.4999670000000  0.5355550000000 1.0
C      1  0.5168750000000  0.5077780000000  0.5531490000000 1.0
C      1  0.5483480000000  0.4337690000000  0.4745760000000 1.0
C      1  0.4217840000000  0.4566770000000  0.4489350000000 1.0
C      1  0.5311490000000  0.4293300000000  0.4522590000000 1.0
C      1  0.4044320000000  0.5334610000000  0.4515190000000 1.0
C      1  0.5073770000000  0.5629300000000  0.4312830000000 1.0
C      1  0.5553410000000  0.5165550000000  0.5094230000000 1.0
C      1  0.4835900000000  0.4205530000000  0.4630910000000 1.0
C      1  0.5292560000000  0.5292930000000  0.5219270000000 1.0
C      1  0.4262030000000  0.5689760000000  0.4785830000000 1.0
C      1  0.4921680000000  0.4575190000000  0.5004750000000 1.0
C      1  0.4167530000000  0.5210750000000  0.4890670000000 1.0
C      1  0.5178990000000  0.5565300000000  0.5104150000000 1.0
C      1  0.4349570000000  0.5662310000000  0.4292550000000 1.0
C      1  0.4815630000000  0.5276500000000  0.4547720000000 1.0
C      1  0.5941980000000  0.5099530000000  0.5026260000000 1.0
C      1  0.5134920000000  0.3921750000000  0.4870490000000 1.0
C      1  0.5003680000000  0.4294760000000  0.4913540000000 1.0
C      1  0.4668080000000  0.4855840000000  0.5868440000000 1.0
C      1  0.5191030000000  0.5413730000000  0.4543970000000 1.0
C      1  0.5434890000000  0.5817740000000  0.4817860000000 1.0
C      1  0.4921120000000  0.3943800000000  0.5081410000000 1.0
C      1  0.4657330000000  0.4641200000000  0.4176630000000 1.0
C      1  0.5043020000000  0.5374970000000  0.5435600000000 1.0
C      1  0.5603530000000  0.4641130000000  0.4835970000000 1.0
C      1  0.4469900000000  0.5469750000000  0.4926200000000 1.0
C      1  0.4850630000000  0.5707580000000  0.4756820000000 1.0
C      1  0.4819950000000  0.5555310000000  0.4498590000000 1.0
C      1  0.4465020000000  0.5283820000000  0.5273060000000 1.0
C      1  0.5374550000000  0.4071840000000  0.5969910000000 1.0
C      1  0.4267390000000  0.5069300000000  0.5142700000000 1.0
C      1  0.5860170000000  0.4451590000000  0.4810960000000 1.0
C      1  0.4944320000000  0.4391280000000  0.6007810000000 1.0
C      1  0.4988110000000  0.4862170000000  0.4916300000000 1.0
C      1  0.4617340000000  0.5609730000000  0.4245370000000 1.0
C      1  0.5922620000000  0.5486300000000  0.4796750000000 1.0
C      1  0.5235960000000  0.4544890000000  0.4372290000000 1.0
C      1  0.5349730000000  0.4902130000000  0.4529440000000 1.0
C      1  0.5518500000000  0.4973080000000  0.4815990000000 1.0
C      1  0.5446060000000  0.4973340000000  0.5929870000000 1.0
C      1  0.4778450000000  0.4894280000000  0.3984240000000 1.0
C      1  0.5105100000000  0.5041310000000  0.5138730000000 1.0
C      1  0.4991640000000  0.4726950000000  0.4523760000000 1.0
C      1  0.4378570000000  0.4920830000000  0.5702340000000 1.0
C      1  0.5665250000000  0.4941520000000  0.6098350000000 1.0
END
