TITL C-2848498-1409-266 0.000993208084562262 125000 -1057.75331340969 0 0 194 (C1) n - 1
REM
REM in /home/bkarasulu/work/CARBON/AIRSS/Generating-Clusters/AIREBO/with-SteepDescent/Only-C1/SD-CG-opt/Try1-1.4A-POS3A/HFTN-CG
REM
REM
REM
REM
REM
REM ./C.cell (11c1c37f851c82e70ff6c80c92926a4b)
REM
REM compiler GCC version 9.2.1 20190827 (Red Hat 9.2.1-1)
REM options -cpp -mtune=generic -march=x86-64 -g -O0 -fpre-include=/usr/include/finclude/math-vector-fortran.h
REM seed 881050372 -1487215679 -861928507 -6106113 -1747060908 -1814262990 799566854 1316239042 1464346261 2016778967 1860654657 -582403711 -2127096087 941224593 -1202844399 1448667856 -1924014728 946741601 -22984717 -525641161 277268128 116698171 -2038801476 967103512 687456567 -444322823 1905034588 -701344945 252704141 -174883152 596025232 -1027034238 -833765129
REM
CELL 1.54180   50.00000   50.00000   50.00000   90.00000   90.00000   90.00000
LATT -1
SFAC C  
C      1  0.5566820000000  0.4475740000000  0.5849150000000 1.0
C      1  0.5124410000000  0.5722780000000  0.4974910000000 1.0
C      1  0.4971160000000  0.5364030000000  0.5659390000000 1.0
C      1  0.4972640000000  0.4571180000000  0.6098860000000 1.0
C      1  0.4547370000000  0.4040430000000  0.4951270000000 1.0
C      1  0.5948010000000  0.5105250000000  0.4448610000000 1.0
C      1  0.4021860000000  0.5348850000000  0.5131660000000 1.0
C      1  0.5190190000000  0.5954300000000  0.4578950000000 1.0
C      1  0.4371900000000  0.5880420000000  0.5113090000000 1.0
C      1  0.5472510000000  0.4677670000000  0.6021260000000 1.0
C      1  0.4544330000000  0.4835920000000  0.6037970000000 1.0
C      1  0.4207850000000  0.4691510000000  0.4997490000000 1.0
C      1  0.4298280000000  0.5025210000000  0.4007070000000 1.0
C      1  0.6148450000000  0.4628270000000  0.4886160000000 1.0
C      1  0.4993340000000  0.4176360000000  0.4715170000000 1.0
C      1  0.4274360000000  0.4092660000000  0.5238690000000 1.0
C      1  0.3989790000000  0.4540840000000  0.4487040000000 1.0
C      1  0.4931230000000  0.4314460000000  0.5188910000000 1.0
C      1  0.4794650000000  0.5418210000000  0.4336290000000 1.0
C      1  0.5217800000000  0.5043220000000  0.5428040000000 1.0
C      1  0.5307640000000  0.4434020000000  0.4102550000000 1.0
C      1  0.5892420000000  0.4173720000000  0.5243610000000 1.0
C      1  0.4875210000000  0.3922210000000  0.4259580000000 1.0
C      1  0.6013990000000  0.5205880000000  0.4909860000000 1.0
C      1  0.5109800000000  0.4486480000000  0.5798800000000 1.0
C      1  0.4179920000000  0.5020340000000  0.4971370000000 1.0
C      1  0.4272310000000  0.5773000000000  0.4582440000000 1.0
C      1  0.4975310000000  0.5263570000000  0.4791510000000 1.0
C      1  0.4533850000000  0.4477970000000  0.4640510000000 1.0
C      1  0.5388290000000  0.4829330000000  0.4471870000000 1.0
C      1  0.4605600000000  0.5756320000000  0.4648070000000 1.0
C      1  0.5010850000000  0.3903330000000  0.5156910000000 1.0
C      1  0.5240120000000  0.3794590000000  0.5259240000000 1.0
C      1  0.4976650000000  0.4522360000000  0.4922430000000 1.0
C      1  0.4989630000000  0.4671540000000  0.4088090000000 1.0
C      1  0.4498390000000  0.4281530000000  0.4178480000000 1.0
C      1  0.4679840000000  0.4462900000000  0.5356810000000 1.0
C      1  0.5398270000000  0.5820420000000  0.4812210000000 1.0
C      1  0.5669670000000  0.4826970000000  0.4904360000000 1.0
C      1  0.5623510000000  0.5459050000000  0.4058460000000 1.0
C      1  0.4336830000000  0.4305220000000  0.4985980000000 1.0
C      1  0.5568630000000  0.4227950000000  0.4834040000000 1.0
C      1  0.3825170000000  0.4789210000000  0.5320100000000 1.0
C      1  0.4797850000000  0.5394110000000  0.3939340000000 1.0
C      1  0.5490660000000  0.4871940000000  0.4163600000000 1.0
C      1  0.5765980000000  0.5325620000000  0.5335170000000 1.0
C      1  0.5085010000000  0.5064780000000  0.5740340000000 1.0
C      1  0.5191580000000  0.4647960000000  0.5411140000000 1.0
C      1  0.4611700000000  0.4698640000000  0.5669930000000 1.0
C      1  0.4362940000000  0.4978150000000  0.5810570000000 1.0
C      1  0.4748340000000  0.4402510000000  0.5940590000000 1.0
C      1  0.5521580000000  0.4634200000000  0.5370160000000 1.0
C      1  0.4762090000000  0.4772200000000  0.5007710000000 1.0
C      1  0.5831030000000  0.5405910000000  0.4577600000000 1.0
C      1  0.5434890000000  0.5241740000000  0.4931160000000 1.0
C      1  0.4213420000000  0.4703700000000  0.5676750000000 1.0
C      1  0.5267690000000  0.5482720000000  0.6027160000000 1.0
C      1  0.5419130000000  0.4244130000000  0.4538450000000 1.0
C      1  0.5671730000000  0.4071040000000  0.5095080000000 1.0
C      1  0.4556010000000  0.5576410000000  0.5451880000000 1.0
C      1  0.4632010000000  0.5327020000000  0.5127130000000 1.0
C      1  0.4474510000000  0.5504370000000  0.4368470000000 1.0
C      1  0.5157120000000  0.6160680000000  0.5160690000000 1.0
C      1  0.5802470000000  0.4504470000000  0.5702190000000 1.0
C      1  0.4499400000000  0.4843140000000  0.5394930000000 1.0
C      1  0.5774230000000  0.5227990000000  0.4225940000000 1.0
C      1  0.5180730000000  0.4454560000000  0.4658980000000 1.0
C      1  0.5539550000000  0.5299400000000  0.5772710000000 1.0
C      1  0.5349410000000  0.4292990000000  0.5683290000000 1.0
C      1  0.4813320000000  0.5844040000000  0.4902740000000 1.0
C      1  0.4869090000000  0.6107740000000  0.5243680000000 1.0
C      1  0.5165570000000  0.3964960000000  0.4158550000000 1.0
C      1  0.4163110000000  0.4808580000000  0.4431550000000 1.0
C      1  0.5155790000000  0.5042240000000  0.4344430000000 1.0
C      1  0.4486280000000  0.5431570000000  0.4848570000000 1.0
C      1  0.4491190000000  0.4549850000000  0.5950940000000 1.0
C      1  0.3888770000000  0.4658960000000  0.5110400000000 1.0
C      1  0.4875790000000  0.5950590000000  0.5478710000000 1.0
C      1  0.4219700000000  0.4726400000000  0.5335530000000 1.0
C      1  0.4476220000000  0.4134170000000  0.5452070000000 1.0
C      1  0.5927560000000  0.5401420000000  0.5106170000000 1.0
C      1  0.5871700000000  0.4803500000000  0.5656180000000 1.0
C      1  0.4985690000000  0.5068850000000  0.6064250000000 1.0
C      1  0.4919830000000  0.4863030000000  0.4440680000000 1.0
C      1  0.4724730000000  0.4414680000000  0.4377860000000 1.0
C      1  0.4817260000000  0.4839700000000  0.6133520000000 1.0
C      1  0.4407850000000  0.4449450000000  0.5560450000000 1.0
C      1  0.5474580000000  0.5179490000000  0.5263080000000 1.0
C      1  0.4764570000000  0.5312450000000  0.5430320000000 1.0
C      1  0.5151480000000  0.5695010000000  0.5791860000000 1.0
C      1  0.5278880000000  0.5205760000000  0.6060130000000 1.0
C      1  0.5465610000000  0.5178340000000  0.4310880000000 1.0
C      1  0.5133240000000  0.5887690000000  0.4107290000000 1.0
C      1  0.4028230000000  0.5548590000000  0.4981510000000 1.0
C      1  0.5711670000000  0.4678710000000  0.4292500000000 1.0
C      1  0.5287420000000  0.4935120000000  0.4946380000000 1.0
C      1  0.5578270000000  0.5816770000000  0.4523760000000 1.0
C      1  0.5006050000000  0.4571630000000  0.4394140000000 1.0
C      1  0.4779080000000  0.5487300000000  0.4728950000000 1.0
C      1  0.4870770000000  0.5792260000000  0.5728500000000 1.0
C      1  0.5405750000000  0.4698860000000  0.4732280000000 1.0
C      1  0.5407680000000  0.6101640000000  0.5003100000000 1.0
C      1  0.5099810000000  0.4144010000000  0.4986270000000 1.0
C      1  0.5797600000000  0.5046230000000  0.4747780000000 1.0
C      1  0.3866440000000  0.5038310000000  0.4936070000000 1.0
C      1  0.4888400000000  0.4122840000000  0.5463190000000 1.0
C      1  0.4992760000000  0.5597250000000  0.4125570000000 1.0
C      1  0.5460030000000  0.3969480000000  0.5284550000000 1.0
C      1  0.5370150000000  0.5265570000000  0.3932670000000 1.0
C      1  0.4910390000000  0.4695100000000  0.5303840000000 1.0
C      1  0.4240590000000  0.5792640000000  0.5340570000000 1.0
C      1  0.5112300000000  0.4081460000000  0.5689930000000 1.0
C      1  0.5223960000000  0.4764140000000  0.5714360000000 1.0
C      1  0.4609420000000  0.4951140000000  0.4422350000000 1.0
C      1  0.5497660000000  0.4294910000000  0.5376360000000 1.0
C      1  0.5255800000000  0.6015630000000  0.4286290000000 1.0
C      1  0.4611510000000  0.6037770000000  0.5084540000000 1.0
C      1  0.5243940000000  0.5849570000000  0.5267010000000 1.0
C      1  0.5302370000000  0.5525800000000  0.4108570000000 1.0
C      1  0.5166930000000  0.5049470000000  0.4005360000000 1.0
C      1  0.4286800000000  0.5174700000000  0.5254950000000 1.0
C      1  0.5705700000000  0.5998910000000  0.5002160000000 1.0
C      1  0.4177450000000  0.5567750000000  0.4375000000000 1.0
C      1  0.4775640000000  0.4570680000000  0.3843860000000 1.0
C      1  0.4721140000000  0.4865150000000  0.4004880000000 1.0
C      1  0.4821250000000  0.4918590000000  0.5619150000000 1.0
C      1  0.5587340000000  0.5753780000000  0.5486370000000 1.0
C      1  0.4635860000000  0.5789900000000  0.4310910000000 1.0
C      1  0.5289970000000  0.5428660000000  0.5632220000000 1.0
C      1  0.5525770000000  0.5004030000000  0.5941830000000 1.0
C      1  0.4999860000000  0.5682920000000  0.4588060000000 1.0
C      1  0.4950010000000  0.4183420000000  0.4411010000000 1.0
C      1  0.5596590000000  0.5547930000000  0.4385620000000 1.0
C      1  0.5682630000000  0.4507500000000  0.4781040000000 1.0
C      1  0.4568120000000  0.5437200000000  0.5910500000000 1.0
C      1  0.5356990000000  0.4325360000000  0.5068230000000 1.0
C      1  0.5336360000000  0.5860090000000  0.5597930000000 1.0
C      1  0.5559150000000  0.5774930000000  0.5175490000000 1.0
C      1  0.4559340000000  0.5233670000000  0.4508740000000 1.0
C      1  0.5232180000000  0.5418170000000  0.5302490000000 1.0
C      1  0.4037850000000  0.4947010000000  0.5519690000000 1.0
C      1  0.5273980000000  0.4605630000000  0.6192550000000 1.0
C      1  0.5571800000000  0.5553470000000  0.4932180000000 1.0
C      1  0.5241360000000  0.4627410000000  0.5087140000000 1.0
C      1  0.4907820000000  0.6063610000000  0.4662460000000 1.0
C      1  0.4584650000000  0.4041310000000  0.4368300000000 1.0
C      1  0.4688980000000  0.3990510000000  0.5226930000000 1.0
C      1  0.4844550000000  0.4374600000000  0.5645350000000 1.0
C      1  0.4654680000000  0.4161970000000  0.4678430000000 1.0
C      1  0.4243820000000  0.4589670000000  0.4683920000000 1.0
C      1  0.4507630000000  0.4552250000000  0.5077520000000 1.0
C      1  0.5713920000000  0.5098580000000  0.5572710000000 1.0
C      1  0.5552530000000  0.5222530000000  0.4612540000000 1.0
C      1  0.5644690000000  0.4888220000000  0.5203840000000 1.0
C      1  0.5934590000000  0.4853230000000  0.5348060000000 1.0
C      1  0.4212200000000  0.3985460000000  0.4935710000000 1.0
C      1  0.5907670000000  0.4787550000000  0.4458310000000 1.0
C      1  0.4295050000000  0.5681520000000  0.4887150000000 1.0
C      1  0.5911730000000  0.5890520000000  0.4860460000000 1.0
C      1  0.4626470000000  0.5655700000000  0.5736450000000 1.0
C      1  0.4612670000000  0.5623210000000  0.4015170000000 1.0
C      1  0.6171940000000  0.4736330000000  0.5134520000000 1.0
C      1  0.5104410000000  0.3883420000000  0.5860480000000 1.0
C      1  0.4696310000000  0.4751000000000  0.4674780000000 1.0
C      1  0.5818230000000  0.4331180000000  0.5483700000000 1.0
C      1  0.5322760000000  0.4195160000000  0.4226950000000 1.0
C      1  0.4322860000000  0.5295050000000  0.5865030000000 1.0
C      1  0.4395930000000  0.4837940000000  0.4234540000000 1.0
C      1  0.4992390000000  0.5648210000000  0.5375770000000 1.0
C      1  0.6255790000000  0.4967210000000  0.5324910000000 1.0
C      1  0.5626850000000  0.4425210000000  0.4343400000000 1.0
C      1  0.4497360000000  0.5132070000000  0.5538450000000 1.0
C      1  0.5259360000000  0.5534610000000  0.4429000000000 1.0
C      1  0.4727790000000  0.6077800000000  0.4446510000000 1.0
C      1  0.4812580000000  0.5293560000000  0.5924230000000 1.0
C      1  0.5883270000000  0.5574720000000  0.4829670000000 1.0
C      1  0.4989130000000  0.5023300000000  0.4975260000000 1.0
C      1  0.4727920000000  0.5645410000000  0.5165250000000 1.0
C      1  0.5700030000000  0.5514580000000  0.5577530000000 1.0
C      1  0.4552850000000  0.5020220000000  0.5109640000000 1.0
C      1  0.5532140000000  0.4822840000000  0.5654000000000 1.0
C      1  0.4311350000000  0.5179400000000  0.4720150000000 1.0
C      1  0.4014990000000  0.5355870000000  0.4339830000000 1.0
C      1  0.4530260000000  0.4589770000000  0.4076350000000 1.0
C      1  0.4057270000000  0.5091760000000  0.4511870000000 1.0
C      1  0.4901000000000  0.5027000000000  0.5305620000000 1.0
C      1  0.5048110000000  0.5301630000000  0.4485940000000 1.0
C      1  0.4261640000000  0.5467090000000  0.5427070000000 1.0
C      1  0.3803140000000  0.5062660000000  0.4690780000000 1.0
C      1  0.5285760000000  0.4734000000000  0.3962020000000 1.0
C      1  0.5951000000000  0.4640440000000  0.4690030000000 1.0
C      1  0.5161330000000  0.5414280000000  0.4982890000000 1.0
C      1  0.4872850000000  0.5122580000000  0.3919140000000 1.0
C      1  0.4121940000000  0.5230200000000  0.5614900000000 1.0
END
