TITL C-2847948-6138-147 5966.3994454444 125000 -625.647958271608 0 0 118 (C1) n - 1
REM
REM in /home/bkarasulu/work/CARBON/AIRSS/Generating-Clusters/AIREBO/with-SteepDescent/Only-C1/SD-CG-opt/Try1-1.4A-POS3A/HFTN-CG
REM
REM
REM
REM
REM
REM ./C.cell (11c1c37f851c82e70ff6c80c92926a4b)
REM
REM compiler GCC version 9.2.1 20190827 (Red Hat 9.2.1-1)
REM options -cpp -mtune=generic -march=x86-64 -g -O0 -fpre-include=/usr/include/finclude/math-vector-fortran.h
REM seed -1808792713 -236212352 -1894102219 1847394682 2024703650 1647546931 167881055 -2077371370 -2020631122 -1206767298 729225315 -1189281125 850398636 -274663245 348881640 -632976204 2078461199 -1668619213 1580513680 565122045 1255613551 1209300534 -994421046 1092215461 1699138703 -739210141 2036451289 322807299 1836696088 -816709216 157194709 969394378 451238633
REM
CELL 1.54180   50.00000   50.00000   50.00000   90.00000   90.00000   90.00000
LATT -1
SFAC C  
C      1  0.5205530000000  0.5259640000000  0.4153540000000 1.0
C      1  0.4273810000000  0.5492140000000  0.4604100000000 1.0
C      1  0.5487930000000  0.5304260000000  0.4464280000000 1.0
C      1  0.5516650000000  0.5885240000000  0.5271410000000 1.0
C      1  0.5022830000000  0.5445030000000  0.5126090000000 1.0
C      1  0.5127370000000  0.4529230000000  0.5877150000000 1.0
C      1  0.4797890000000  0.4469550000000  0.4337310000000 1.0
C      1  0.5101920000000  0.4791550000000  0.5800200000000 1.0
C      1  0.4210330000000  0.4842570000000  0.4729280000000 1.0
C      1  0.4981520000000  0.4150060000000  0.5365890000000 1.0
C      1  0.5132980000000  0.4282650000000  0.5642690000000 1.0
C      1  0.5353250000000  0.5649550000000  0.5459830000000 1.0
C      1  0.4760880000000  0.5081820000000  0.4150930000000 1.0
C      1  0.5445940000000  0.4226650000000  0.5177510000000 1.0
C      1  0.5033580000000  0.5541730000000  0.5495540000000 1.0
C      1  0.5341750000000  0.4649150000000  0.4405240000000 1.0
C      1  0.5136760000000  0.4485260000000  0.4830890000000 1.0
C      1  0.5216360000000  0.5609760000000  0.4631470000000 1.0
C      1  0.5167160000000  0.4786460000000  0.5179120000000 1.0
C      1  0.5369480000000  0.5219930000000  0.5270820000000 1.0
C      1  0.4739540000000  0.5408650000000  0.4379310000000 1.0
C      1  0.5144610000000  0.4015440000000  0.4823870000000 1.0
C      1  0.5663410000000  0.4440810000000  0.5274490000000 1.0
C      1  0.4339370000000  0.4381670000000  0.4615500000000 1.0
C      1  0.5926720000000  0.4620210000000  0.5187350000000 1.0
C      1  0.4066210000000  0.4740430000000  0.5182780000000 1.0
C      1  0.5761040000000  0.5078330000000  0.5395940000000 1.0
C      1  0.5058740000000  0.5309590000000  0.5934060000000 1.0
C      1  0.4732510000000  0.5494910000000  0.4989940000000 1.0
C      1  0.4544500000000  0.4650170000000  0.4408930000000 1.0
C      1  0.5553410000000  0.4852050000000  0.4255180000000 1.0
C      1  0.5528190000000  0.5533660000000  0.5081230000000 1.0
C      1  0.4935900000000  0.4947850000000  0.4366000000000 1.0
C      1  0.5527590000000  0.4058060000000  0.4927720000000 1.0
C      1  0.4634030000000  0.4279490000000  0.4567560000000 1.0
C      1  0.4540690000000  0.5621650000000  0.4437510000000 1.0
C      1  0.5881980000000  0.4838780000000  0.4348720000000 1.0
C      1  0.4608940000000  0.5676610000000  0.5321340000000 1.0
C      1  0.4222170000000  0.4658840000000  0.4516820000000 1.0
C      1  0.5123280000000  0.4245100000000  0.5071560000000 1.0
C      1  0.4823150000000  0.4404970000000  0.5065330000000 1.0
C      1  0.4937270000000  0.4509490000000  0.5531350000000 1.0
C      1  0.5310780000000  0.4961190000000  0.5712590000000 1.0
C      1  0.5764090000000  0.4864050000000  0.5131830000000 1.0
C      1  0.4874140000000  0.4993760000000  0.4681180000000 1.0
C      1  0.5106910000000  0.4823510000000  0.4861300000000 1.0
C      1  0.5495810000000  0.5881360000000  0.4706060000000 1.0
C      1  0.5723640000000  0.5691450000000  0.4722330000000 1.0
C      1  0.5477150000000  0.5459240000000  0.4753440000000 1.0
C      1  0.4355190000000  0.5212890000000  0.4721920000000 1.0
C      1  0.5188840000000  0.4144150000000  0.4571360000000 1.0
C      1  0.5106480000000  0.5033010000000  0.5378810000000 1.0
C      1  0.4871030000000  0.5305240000000  0.4781040000000 1.0
C      1  0.5835450000000  0.4986520000000  0.4653450000000 1.0
C      1  0.5725570000000  0.5224690000000  0.5675030000000 1.0
C      1  0.4016760000000  0.4882970000000  0.4943120000000 1.0
C      1  0.4993820000000  0.4573360000000  0.5255720000000 1.0
C      1  0.4710730000000  0.5454280000000  0.5557790000000 1.0
C      1  0.5258500000000  0.4924190000000  0.4132080000000 1.0
C      1  0.5449730000000  0.4902730000000  0.5223930000000 1.0
C      1  0.4618200000000  0.5139040000000  0.4519490000000 1.0
C      1  0.5051180000000  0.4682320000000  0.4265410000000 1.0
C      1  0.4185180000000  0.4530030000000  0.5500430000000 1.0
C      1  0.4382020000000  0.5386930000000  0.5594420000000 1.0
C      1  0.5018460000000  0.5946890000000  0.5034970000000 1.0
C      1  0.5198220000000  0.5131160000000  0.4468810000000 1.0
C      1  0.4300930000000  0.5159960000000  0.5354610000000 1.0
C      1  0.4765080000000  0.5045120000000  0.5065810000000 1.0
C      1  0.4535670000000  0.4931360000000  0.4293230000000 1.0
C      1  0.4313220000000  0.4705560000000  0.5661680000000 1.0
C      1  0.4602820000000  0.4686600000000  0.5784750000000 1.0
C      1  0.5346820000000  0.5902330000000  0.4977350000000 1.0
C      1  0.5440760000000  0.4353640000000  0.4800370000000 1.0
C      1  0.5772400000000  0.5319270000000  0.5181420000000 1.0
C      1  0.4637010000000  0.4442120000000  0.5561750000000 1.0
C      1  0.4617720000000  0.4246360000000  0.4866080000000 1.0
C      1  0.4788270000000  0.5006990000000  0.5403140000000 1.0
C      1  0.5349460000000  0.4881370000000  0.4648070000000 1.0
C      1  0.5235270000000  0.5633830000000  0.5153680000000 1.0
C      1  0.5082880000000  0.5139380000000  0.4988940000000 1.0
C      1  0.5576130000000  0.4549240000000  0.5541240000000 1.0
C      1  0.4477210000000  0.5832880000000  0.4631070000000 1.0
C      1  0.4485600000000  0.4956580000000  0.5516300000000 1.0
C      1  0.4544270000000  0.5284040000000  0.5152150000000 1.0
C      1  0.5890920000000  0.5492800000000  0.4841360000000 1.0
C      1  0.4904860000000  0.5335860000000  0.4091850000000 1.0
C      1  0.4824230000000  0.5790680000000  0.5130440000000 1.0
C      1  0.4488790000000  0.4207880000000  0.5156350000000 1.0
C      1  0.5539470000000  0.4856580000000  0.5532880000000 1.0
C      1  0.4366660000000  0.5575710000000  0.5128900000000 1.0
C      1  0.4341050000000  0.5708240000000  0.4860640000000 1.0
C      1  0.4816360000000  0.5221680000000  0.5780680000000 1.0
C      1  0.4075260000000  0.4916570000000  0.5390330000000 1.0
C      1  0.4117180000000  0.5168290000000  0.4941150000000 1.0
C      1  0.5752480000000  0.5200610000000  0.4879420000000 1.0
C      1  0.5615610000000  0.4830950000000  0.4827580000000 1.0
C      1  0.4256920000000  0.4458700000000  0.5181410000000 1.0
C      1  0.5417070000000  0.5178760000000  0.4936420000000 1.0
C      1  0.5617050000000  0.4539300000000  0.4953090000000 1.0
C      1  0.5179860000000  0.5261070000000  0.5620080000000 1.0
C      1  0.5694000000000  0.5119630000000  0.4385970000000 1.0
C      1  0.5021320000000  0.5412140000000  0.4542240000000 1.0
C      1  0.4543160000000  0.4588960000000  0.5057280000000 1.0
C      1  0.5339190000000  0.5811000000000  0.4429850000000 1.0
C      1  0.4115240000000  0.5366270000000  0.5168910000000 1.0
C      1  0.5729730000000  0.5626290000000  0.5328680000000 1.0
C      1  0.4027400000000  0.5506940000000  0.4474800000000 1.0
C      1  0.4568460000000  0.4679830000000  0.5357430000000 1.0
C      1  0.5405340000000  0.4368070000000  0.4484490000000 1.0
C      1  0.4864610000000  0.5735660000000  0.5717930000000 1.0
C      1  0.4820410000000  0.4904560000000  0.5726190000000 1.0
C      1  0.5441700000000  0.4367540000000  0.5696730000000 1.0
C      1  0.4540110000000  0.4620960000000  0.4750130000000 1.0
C      1  0.4680340000000  0.4193970000000  0.5373480000000 1.0
C      1  0.5365410000000  0.5537050000000  0.4268150000000 1.0
C      1  0.5542100000000  0.5397190000000  0.5495890000000 1.0
C      1  0.4517970000000  0.4944620000000  0.4853360000000 1.0
C      1  0.5013210000000  0.4395060000000  0.4551990000000 1.0
END
