TITL C-2848504-8560-648 -1063.12454567357 125000 -721.537871782424 0 0 130 (C1) n - 1
REM
REM in /home/bkarasulu/work/CARBON/AIRSS/Generating-Clusters/AIREBO/with-SteepDescent/Only-C1/SD-CG-opt/Try1-1.4A-POS3A/HFTN-CG
REM
REM
REM
REM
REM
REM ./C.cell (11c1c37f851c82e70ff6c80c92926a4b)
REM
REM compiler GCC version 9.2.1 20190827 (Red Hat 9.2.1-1)
REM options -cpp -mtune=generic -march=x86-64 -g -O0 -fpre-include=/usr/include/finclude/math-vector-fortran.h
REM seed -1630451157 363998821 -598614530 678647877 -1192852412 -1999792833 2039138659 189972730 -205099801 -1152945536 -1112499184 1425715584 1974424370 1716458307 117449102 1573380758 -177693796 1982577262 -1347926498 -2086026623 -126634458 -664912328 1965096522 211634307 -1591149711 -766209749 659398490 549815194 1729483308 -1378757331 -1625368509 -911072803 420002134
REM
CELL 1.54180   50.00000   50.00000   50.00000   90.00000   90.00000   90.00000
LATT -1
SFAC C  
C      1  0.5703150000000  0.5614520000000  0.4767460000000 1.0
C      1  0.5228660000000  0.5520580000000  0.5730480000000 1.0
C      1  0.5140750000000  0.4761330000000  0.4191020000000 1.0
C      1  0.5530980000000  0.5112480000000  0.5413810000000 1.0
C      1  0.4897760000000  0.5460050000000  0.5331950000000 1.0
C      1  0.5356480000000  0.4512950000000  0.4107820000000 1.0
C      1  0.4572070000000  0.4624320000000  0.4211580000000 1.0
C      1  0.5235650000000  0.4749640000000  0.4711710000000 1.0
C      1  0.5233130000000  0.6255890000000  0.4617080000000 1.0
C      1  0.4647990000000  0.5246480000000  0.5419350000000 1.0
C      1  0.5724530000000  0.4687130000000  0.5231800000000 1.0
C      1  0.5147240000000  0.5062090000000  0.4053830000000 1.0
C      1  0.5446760000000  0.5542900000000  0.4557740000000 1.0
C      1  0.4210280000000  0.4577690000000  0.5226260000000 1.0
C      1  0.5164620000000  0.3779270000000  0.4550130000000 1.0
C      1  0.4975840000000  0.5577710000000  0.5950720000000 1.0
C      1  0.5699620000000  0.5221660000000  0.4380910000000 1.0
C      1  0.5769660000000  0.5292840000000  0.4676430000000 1.0
C      1  0.4488610000000  0.5000620000000  0.5246730000000 1.0
C      1  0.5020940000000  0.4751320000000  0.4484830000000 1.0
C      1  0.4503620000000  0.4954260000000  0.4260910000000 1.0
C      1  0.4644990000000  0.5769820000000  0.5716940000000 1.0
C      1  0.5204580000000  0.5607160000000  0.5341280000000 1.0
C      1  0.5480450000000  0.4644030000000  0.5007070000000 1.0
C      1  0.5346980000000  0.5873940000000  0.5081610000000 1.0
C      1  0.4826980000000  0.5004420000000  0.4173670000000 1.0
C      1  0.4753620000000  0.4273290000000  0.4659970000000 1.0
C      1  0.5071530000000  0.4013880000000  0.4643450000000 1.0
C      1  0.4373720000000  0.5424760000000  0.5307010000000 1.0
C      1  0.5247870000000  0.4991690000000  0.5486680000000 1.0
C      1  0.5527660000000  0.5508430000000  0.5602800000000 1.0
C      1  0.5593220000000  0.4445740000000  0.4326290000000 1.0
C      1  0.4093870000000  0.4713270000000  0.4936800000000 1.0
C      1  0.4352730000000  0.4804100000000  0.5663400000000 1.0
C      1  0.4554340000000  0.4923140000000  0.5810200000000 1.0
C      1  0.4308030000000  0.4053240000000  0.4705980000000 1.0
C      1  0.5306990000000  0.4933950000000  0.4976150000000 1.0
C      1  0.5008350000000  0.5887350000000  0.4865080000000 1.0
C      1  0.5247210000000  0.4659780000000  0.5539810000000 1.0
C      1  0.5803500000000  0.5001590000000  0.5551890000000 1.0
C      1  0.4736340000000  0.4745770000000  0.5927530000000 1.0
C      1  0.4927490000000  0.4104490000000  0.5162830000000 1.0
C      1  0.5710450000000  0.4873840000000  0.4946830000000 1.0
C      1  0.5621990000000  0.4412290000000  0.4595200000000 1.0
C      1  0.5288100000000  0.4206080000000  0.5304900000000 1.0
C      1  0.4555970000000  0.5290800000000  0.4281580000000 1.0
C      1  0.4872550000000  0.4406560000000  0.5607950000000 1.0
C      1  0.4405320000000  0.4480310000000  0.4997550000000 1.0
C      1  0.5466290000000  0.4611860000000  0.5795400000000 1.0
C      1  0.5260740000000  0.4328950000000  0.5620760000000 1.0
C      1  0.5123190000000  0.4272600000000  0.4511100000000 1.0
C      1  0.5688640000000  0.5270090000000  0.5670090000000 1.0
C      1  0.4641760000000  0.5501110000000  0.5112200000000 1.0
C      1  0.5700840000000  0.3921760000000  0.5082210000000 1.0
C      1  0.5577270000000  0.4966820000000  0.4359030000000 1.0
C      1  0.3937810000000  0.5092170000000  0.5275170000000 1.0
C      1  0.4369310000000  0.4561000000000  0.5489690000000 1.0
C      1  0.4955420000000  0.5382520000000  0.4667280000000 1.0
C      1  0.4140190000000  0.5273780000000  0.5111140000000 1.0
C      1  0.4957980000000  0.5633190000000  0.4164350000000 1.0
C      1  0.4395850000000  0.5256180000000  0.4739020000000 1.0
C      1  0.5159900000000  0.5818910000000  0.5582060000000 1.0
C      1  0.5329680000000  0.5000980000000  0.4527850000000 1.0
C      1  0.5938170000000  0.4769640000000  0.4783250000000 1.0
C      1  0.5526630000000  0.5149850000000  0.4857680000000 1.0
C      1  0.4261680000000  0.5642180000000  0.5484960000000 1.0
C      1  0.4520210000000  0.4692580000000  0.4757760000000 1.0
C      1  0.4932280000000  0.4564330000000  0.5847360000000 1.0
C      1  0.4861180000000  0.5917420000000  0.5621730000000 1.0
C      1  0.5515530000000  0.5416910000000  0.4275480000000 1.0
C      1  0.5517160000000  0.4057750000000  0.5195810000000 1.0
C      1  0.4724990000000  0.4316920000000  0.5248020000000 1.0
C      1  0.5041640000000  0.5348040000000  0.4979350000000 1.0
C      1  0.4587760000000  0.4403920000000  0.5490450000000 1.0
C      1  0.5556740000000  0.5271180000000  0.5157480000000 1.0
C      1  0.5813260000000  0.4730500000000  0.5488480000000 1.0
C      1  0.5084150000000  0.4477930000000  0.5317070000000 1.0
C      1  0.4713730000000  0.4641260000000  0.4511080000000 1.0
C      1  0.4160320000000  0.5570520000000  0.4665040000000 1.0
C      1  0.4679040000000  0.5548860000000  0.4775710000000 1.0
C      1  0.5164650000000  0.5570430000000  0.3994930000000 1.0
C      1  0.6024620000000  0.5415480000000  0.5053510000000 1.0
C      1  0.5140340000000  0.5091670000000  0.5179970000000 1.0
C      1  0.4768270000000  0.4369640000000  0.4334020000000 1.0
C      1  0.4808450000000  0.5128370000000  0.4966290000000 1.0
C      1  0.6132260000000  0.4974730000000  0.4771610000000 1.0
C      1  0.4227230000000  0.4566770000000  0.4657040000000 1.0
C      1  0.4450220000000  0.5514940000000  0.4526330000000 1.0
C      1  0.4438440000000  0.4302750000000  0.4722310000000 1.0
C      1  0.5029820000000  0.4408070000000  0.4808660000000 1.0
C      1  0.4238690000000  0.4930330000000  0.5410350000000 1.0
C      1  0.4918430000000  0.4522100000000  0.5068980000000 1.0
C      1  0.4754080000000  0.5853190000000  0.4783710000000 1.0
C      1  0.5323610000000  0.5351430000000  0.4078910000000 1.0
C      1  0.4182690000000  0.5070750000000  0.4669080000000 1.0
C      1  0.3957230000000  0.4768800000000  0.5308190000000 1.0
C      1  0.5214970000000  0.6009740000000  0.4730550000000 1.0
C      1  0.5337190000000  0.5982430000000  0.5340840000000 1.0
C      1  0.5531860000000  0.5558870000000  0.5280090000000 1.0
C      1  0.5184920000000  0.5240860000000  0.5919020000000 1.0
C      1  0.3716160000000  0.4643540000000  0.5353430000000 1.0
C      1  0.4858710000000  0.5002560000000  0.4593630000000 1.0
C      1  0.4943130000000  0.5159150000000  0.5921760000000 1.0
C      1  0.5014590000000  0.4128520000000  0.5491380000000 1.0
C      1  0.4632110000000  0.5169810000000  0.4569100000000 1.0
C      1  0.5073010000000  0.4432440000000  0.4250310000000 1.0
C      1  0.4721400000000  0.5532830000000  0.5852640000000 1.0
C      1  0.5794750000000  0.5575530000000  0.5065040000000 1.0
C      1  0.5727880000000  0.4570160000000  0.5706000000000 1.0
C      1  0.5589610000000  0.4738730000000  0.4215690000000 1.0
C      1  0.4069320000000  0.5001360000000  0.4919230000000 1.0
C      1  0.4737640000000  0.4785160000000  0.5170550000000 1.0
C      1  0.5200140000000  0.4577100000000  0.5928050000000 1.0
C      1  0.4867590000000  0.5407600000000  0.4351520000000 1.0
C      1  0.4522480000000  0.5220720000000  0.5002360000000 1.0
C      1  0.4272990000000  0.4861180000000  0.4493180000000 1.0
C      1  0.5870220000000  0.4506820000000  0.4700740000000 1.0
C      1  0.4912590000000  0.4037300000000  0.4892680000000 1.0
C      1  0.5285620000000  0.5300320000000  0.4670550000000 1.0
C      1  0.5363680000000  0.4461070000000  0.4768340000000 1.0
C      1  0.5067390000000  0.5133500000000  0.4376600000000 1.0
C      1  0.5104040000000  0.5639590000000  0.5040830000000 1.0
C      1  0.4877450000000  0.5005130000000  0.5338670000000 1.0
C      1  0.6036610000000  0.5236640000000  0.4823600000000 1.0
C      1  0.4791650000000  0.4828410000000  0.4852920000000 1.0
C      1  0.5450770000000  0.5815470000000  0.4762410000000 1.0
C      1  0.5088080000000  0.5281490000000  0.5533700000000 1.0
C      1  0.4062740000000  0.5484550000000  0.4877950000000 1.0
C      1  0.4655880000000  0.5223020000000  0.5751190000000 1.0
C      1  0.4161300000000  0.5837790000000  0.5614560000000 1.0
END
