TITL C-2847947-6848-615 -0.000824538771271966 125000 -594.234925676409 0 0 116 (C1) n - 1
REM
REM in /home/bkarasulu/work/CARBON/AIRSS/Generating-Clusters/AIREBO/with-SteepDescent/Only-C1/SD-CG-opt/Try1-1.4A-POS3A/HFTN-CG
REM
REM
REM
REM
REM
REM ./C.cell (11c1c37f851c82e70ff6c80c92926a4b)
REM
REM compiler GCC version 9.2.1 20190827 (Red Hat 9.2.1-1)
REM options -cpp -mtune=generic -march=x86-64 -g -O0 -fpre-include=/usr/include/finclude/math-vector-fortran.h
REM seed 981252908 905887815 -2133160250 43104120 96310075 2091754903 -1792004977 727227157 732535159 1402751386 666352498 39135541 -1193465736 -676250011 -2114969661 371561353 -1895662447 -1598926023 1661724518 1658441607 1533972606 1674301377 -1713154249 2080163342 -536015813 -2104344263 -936813867 -2050663075 -1314610502 -1911740237 848309704 1886606909 1005003736
REM
CELL 1.54180   50.00000   50.00000   50.00000   90.00000   90.00000   90.00000
LATT -1
SFAC C  
C      1  0.5036770000000  0.5357420000000  0.4185680000000 1.0
C      1  0.4832820000000  0.4480650000000  0.4370150000000 1.0
C      1  0.4761980000000  0.5479310000000  0.5132220000000 1.0
C      1  0.4504130000000  0.5411910000000  0.5343430000000 1.0
C      1  0.4304880000000  0.4967910000000  0.5894130000000 1.0
C      1  0.3997500000000  0.4833250000000  0.4686860000000 1.0
C      1  0.4874560000000  0.4436420000000  0.5417490000000 1.0
C      1  0.4925200000000  0.4894830000000  0.5523310000000 1.0
C      1  0.5001520000000  0.4671480000000  0.5338160000000 1.0
C      1  0.5388590000000  0.4673900000000  0.4244550000000 1.0
C      1  0.5861950000000  0.4535010000000  0.4872010000000 1.0
C      1  0.4676290000000  0.4598930000000  0.5110870000000 1.0
C      1  0.4299070000000  0.5309440000000  0.4474070000000 1.0
C      1  0.4684180000000  0.4667620000000  0.4777960000000 1.0
C      1  0.5247030000000  0.4603910000000  0.5883000000000 1.0
C      1  0.5250070000000  0.4378810000000  0.4219880000000 1.0
C      1  0.4370580000000  0.4530170000000  0.4572640000000 1.0
C      1  0.4704480000000  0.5390180000000  0.4628480000000 1.0
C      1  0.5206530000000  0.5215230000000  0.5341990000000 1.0
C      1  0.4767280000000  0.4702940000000  0.5869750000000 1.0
C      1  0.4122760000000  0.5121510000000  0.5456670000000 1.0
C      1  0.4189420000000  0.4640650000000  0.4774700000000 1.0
C      1  0.5657810000000  0.4946040000000  0.4767100000000 1.0
C      1  0.5294340000000  0.5407780000000  0.4282060000000 1.0
C      1  0.5715890000000  0.4664750000000  0.4261670000000 1.0
C      1  0.4834000000000  0.4202120000000  0.4222560000000 1.0
C      1  0.5383840000000  0.5469920000000  0.5741980000000 1.0
C      1  0.5317500000000  0.5169420000000  0.5620040000000 1.0
C      1  0.4260700000000  0.4543320000000  0.5084270000000 1.0
C      1  0.4692340000000  0.5129940000000  0.6168640000000 1.0
C      1  0.4609530000000  0.4997390000000  0.5903580000000 1.0
C      1  0.5372480000000  0.4227830000000  0.4873790000000 1.0
C      1  0.5464290000000  0.5188700000000  0.4226090000000 1.0
C      1  0.4891120000000  0.5823830000000  0.5667130000000 1.0
C      1  0.5468550000000  0.4578110000000  0.4559490000000 1.0
C      1  0.5137950000000  0.4513020000000  0.4517080000000 1.0
C      1  0.4675770000000  0.5074860000000  0.4652540000000 1.0
C      1  0.5172480000000  0.5666810000000  0.5635000000000 1.0
C      1  0.5033660000000  0.5325460000000  0.4996120000000 1.0
C      1  0.5230860000000  0.4865050000000  0.5669530000000 1.0
C      1  0.5412220000000  0.4651770000000  0.5201450000000 1.0
C      1  0.5007890000000  0.5227410000000  0.5937340000000 1.0
C      1  0.5624660000000  0.5285930000000  0.5612060000000 1.0
C      1  0.5559490000000  0.5004680000000  0.4477060000000 1.0
C      1  0.4590560000000  0.4130400000000  0.4854930000000 1.0
C      1  0.5160750000000  0.5761330000000  0.4761680000000 1.0
C      1  0.5492490000000  0.4686580000000  0.4866550000000 1.0
C      1  0.5930140000000  0.4812460000000  0.5624420000000 1.0
C      1  0.5796610000000  0.5339210000000  0.5069780000000 1.0
C      1  0.4768970000000  0.5852750000000  0.5423460000000 1.0
C      1  0.4759750000000  0.4035140000000  0.5052900000000 1.0
C      1  0.5129490000000  0.5574650000000  0.5187940000000 1.0
C      1  0.4278640000000  0.4225130000000  0.4949510000000 1.0
C      1  0.4375560000000  0.5615740000000  0.4601640000000 1.0
C      1  0.4576090000000  0.5425530000000  0.4315540000000 1.0
C      1  0.5729410000000  0.5193020000000  0.5336520000000 1.0
C      1  0.5830570000000  0.4753590000000  0.5069490000000 1.0
C      1  0.4326840000000  0.5875960000000  0.5243820000000 1.0
C      1  0.3904010000000  0.5083880000000  0.4989150000000 1.0
C      1  0.4449580000000  0.5072000000000  0.5374880000000 1.0
C      1  0.4408200000000  0.5156350000000  0.5051850000000 1.0
C      1  0.5791350000000  0.4609420000000  0.4594730000000 1.0
C      1  0.4114230000000  0.5103030000000  0.5160880000000 1.0
C      1  0.5461260000000  0.4772350000000  0.5462460000000 1.0
C      1  0.4405910000000  0.4564050000000  0.5401300000000 1.0
C      1  0.5416730000000  0.5426160000000  0.5177890000000 1.0
C      1  0.4556920000000  0.5390040000000  0.4921710000000 1.0
C      1  0.5858110000000  0.5528720000000  0.4543150000000 1.0
C      1  0.4614260000000  0.4734520000000  0.4451780000000 1.0
C      1  0.4662330000000  0.4507290000000  0.5617800000000 1.0
C      1  0.4929520000000  0.5721480000000  0.4515010000000 1.0
C      1  0.4408420000000  0.4997420000000  0.4526950000000 1.0
C      1  0.5096800000000  0.4178230000000  0.4125670000000 1.0
C      1  0.4494950000000  0.4322590000000  0.5190580000000 1.0
C      1  0.4097400000000  0.5043320000000  0.4547140000000 1.0
C      1  0.5680140000000  0.5502510000000  0.4723880000000 1.0
C      1  0.5136680000000  0.4772400000000  0.5042900000000 1.0
C      1  0.5593590000000  0.4996110000000  0.5097250000000 1.0
C      1  0.5790100000000  0.4074380000000  0.5451270000000 1.0
C      1  0.4536030000000  0.5729610000000  0.5347400000000 1.0
C      1  0.5593440000000  0.4412760000000  0.5041160000000 1.0
C      1  0.4651230000000  0.5725020000000  0.4654330000000 1.0
C      1  0.4879360000000  0.4920510000000  0.4876960000000 1.0
C      1  0.4640050000000  0.4917640000000  0.4166290000000 1.0
C      1  0.5287790000000  0.5509170000000  0.4572140000000 1.0
C      1  0.5282270000000  0.5820930000000  0.5350090000000 1.0
C      1  0.4955080000000  0.5405530000000  0.5652200000000 1.0
C      1  0.4401990000000  0.4251140000000  0.4632770000000 1.0
C      1  0.4951600000000  0.5038970000000  0.4099790000000 1.0
C      1  0.5884160000000  0.5158720000000  0.4876090000000 1.0
C      1  0.4736520000000  0.5082200000000  0.5101250000000 1.0
C      1  0.5271130000000  0.5084780000000  0.5034720000000 1.0
C      1  0.4245470000000  0.5374460000000  0.5537460000000 1.0
C      1  0.5880680000000  0.4899200000000  0.4440870000000 1.0
C      1  0.4978100000000  0.5871420000000  0.5214280000000 1.0
C      1  0.4885980000000  0.4937290000000  0.4478140000000 1.0
C      1  0.5025720000000  0.4555880000000  0.6000320000000 1.0
C      1  0.5712220000000  0.4904880000000  0.5487110000000 1.0
C      1  0.5108450000000  0.4820370000000  0.4643750000000 1.0
C      1  0.5403660000000  0.5346660000000  0.4847570000000 1.0
C      1  0.4970800000000  0.4480490000000  0.4988720000000 1.0
C      1  0.5035550000000  0.5336320000000  0.4685500000000 1.0
C      1  0.5629420000000  0.5625110000000  0.5021780000000 1.0
C      1  0.5024570000000  0.6001180000000  0.4938040000000 1.0
C      1  0.5241660000000  0.5104280000000  0.4545680000000 1.0
C      1  0.5376350000000  0.5829890000000  0.5016550000000 1.0
C      1  0.4630620000000  0.4816030000000  0.5372640000000 1.0
C      1  0.4880480000000  0.5253590000000  0.5357250000000 1.0
C      1  0.4880410000000  0.4710640000000  0.4152550000000 1.0
C      1  0.5135580000000  0.4340050000000  0.4781590000000 1.0
C      1  0.5240650000000  0.4939460000000  0.4247180000000 1.0
C      1  0.4744030000000  0.5138770000000  0.5654420000000 1.0
C      1  0.4853110000000  0.5537170000000  0.4288290000000 1.0
C      1  0.5004480000000  0.4944620000000  0.5910450000000 1.0
C      1  0.5714120000000  0.4228800000000  0.5262830000000 1.0
C      1  0.4885960000000  0.4243080000000  0.5200820000000 1.0
END
