TITL C-2848494-1720-185 -0.00994672432305053 125000 -767.170252693938 0 0 147 (C1) n - 1
REM
REM in /home/bkarasulu/work/CARBON/AIRSS/Generating-Clusters/AIREBO/with-SteepDescent/Only-C1/SD-CG-opt/Try1-1.4A-POS3A/HFTN-CG
REM
REM
REM
REM
REM
REM ./C.cell (11c1c37f851c82e70ff6c80c92926a4b)
REM
REM compiler GCC version 9.2.1 20190827 (Red Hat 9.2.1-1)
REM options -cpp -mtune=generic -march=x86-64 -g -O0 -fpre-include=/usr/include/finclude/math-vector-fortran.h
REM seed 150897548 928446946 -2036553628 -1721530388 -1024663589 1908826034 -563018067 -1751600950 1732137222 1485848583 -1642716154 -980571846 632819530 -126607288 -292484423 -13389979 1614858526 1004873214 -256176643 -1884972488 -1701671834 1351189488 -1575266105 1389366513 -580061515 -416937969 -1579553609 1015075617 -1729901131 815793448 -1941362186 817973098 -718739289
REM
CELL 1.54180   50.00000   50.00000   50.00000   90.00000   90.00000   90.00000
LATT -1
SFAC C  
C      1  0.4294240000000  0.4815530000000  0.4374310000000 1.0
C      1  0.5980890000000  0.5040840000000  0.4532090000000 1.0
C      1  0.5126510000000  0.4445570000000  0.4949040000000 1.0
C      1  0.4067220000000  0.5495150000000  0.5238630000000 1.0
C      1  0.5758730000000  0.5625530000000  0.5539640000000 1.0
C      1  0.4712550000000  0.5397530000000  0.4020660000000 1.0
C      1  0.4868650000000  0.4082610000000  0.4957420000000 1.0
C      1  0.4409640000000  0.4325270000000  0.5411680000000 1.0
C      1  0.4183880000000  0.4806910000000  0.5527230000000 1.0
C      1  0.5555480000000  0.4931310000000  0.5270250000000 1.0
C      1  0.4405950000000  0.5632250000000  0.4696300000000 1.0
C      1  0.4780360000000  0.5569840000000  0.5775980000000 1.0
C      1  0.4359410000000  0.5344960000000  0.5150800000000 1.0
C      1  0.5048540000000  0.4247690000000  0.5599090000000 1.0
C      1  0.4562990000000  0.4772230000000  0.5629310000000 1.0
C      1  0.6027700000000  0.5143800000000  0.5188830000000 1.0
C      1  0.4250640000000  0.5043750000000  0.5219910000000 1.0
C      1  0.5303230000000  0.4666250000000  0.5047880000000 1.0
C      1  0.5357510000000  0.4139050000000  0.4660550000000 1.0
C      1  0.4857840000000  0.4815040000000  0.4802270000000 1.0
C      1  0.5121360000000  0.5632530000000  0.4230060000000 1.0
C      1  0.4380940000000  0.4428870000000  0.4709260000000 1.0
C      1  0.5110050000000  0.4150040000000  0.4122830000000 1.0
C      1  0.3803770000000  0.5248270000000  0.4670240000000 1.0
C      1  0.5470820000000  0.5792240000000  0.5052620000000 1.0
C      1  0.5754400000000  0.5206250000000  0.5041310000000 1.0
C      1  0.4412990000000  0.5632040000000  0.4976590000000 1.0
C      1  0.5065680000000  0.5415230000000  0.5674460000000 1.0
C      1  0.5176100000000  0.4423680000000  0.4613330000000 1.0
C      1  0.5374920000000  0.4657660000000  0.5363220000000 1.0
C      1  0.5550110000000  0.5380070000000  0.5216420000000 1.0
C      1  0.4956310000000  0.4539600000000  0.5699610000000 1.0
C      1  0.4639860000000  0.4150110000000  0.4409530000000 1.0
C      1  0.5331960000000  0.5253650000000  0.5701310000000 1.0
C      1  0.4937790000000  0.4170040000000  0.4416250000000 1.0
C      1  0.4042420000000  0.5127070000000  0.4645110000000 1.0
C      1  0.5009400000000  0.5738470000000  0.4722220000000 1.0
C      1  0.5290710000000  0.5035000000000  0.5444220000000 1.0
C      1  0.4854590000000  0.5922410000000  0.5356040000000 1.0
C      1  0.4460240000000  0.4924960000000  0.4824690000000 1.0
C      1  0.5534710000000  0.4121190000000  0.4942240000000 1.0
C      1  0.4675010000000  0.5654730000000  0.4525660000000 1.0
C      1  0.5523510000000  0.4473430000000  0.5694230000000 1.0
C      1  0.4712460000000  0.4656380000000  0.4301500000000 1.0
C      1  0.4073880000000  0.4670400000000  0.4793320000000 1.0
C      1  0.4213650000000  0.4571390000000  0.5281370000000 1.0
C      1  0.4416940000000  0.5402750000000  0.4445380000000 1.0
C      1  0.4823810000000  0.4936180000000  0.5302320000000 1.0
C      1  0.4493540000000  0.4133740000000  0.4715390000000 1.0
C      1  0.4761410000000  0.4313930000000  0.4751950000000 1.0
C      1  0.5100610000000  0.4767010000000  0.5531770000000 1.0
C      1  0.4730140000000  0.6575450000000  0.4896280000000 1.0
C      1  0.4845930000000  0.4555280000000  0.4966480000000 1.0
C      1  0.4923240000000  0.5050410000000  0.5593660000000 1.0
C      1  0.4071200000000  0.4853430000000  0.4581070000000 1.0
C      1  0.5019530000000  0.4754450000000  0.4193000000000 1.0
C      1  0.3941860000000  0.4924630000000  0.5141940000000 1.0
C      1  0.5140280000000  0.4913140000000  0.5164690000000 1.0
C      1  0.5287860000000  0.5384950000000  0.5101340000000 1.0
C      1  0.5252130000000  0.4961940000000  0.4328980000000 1.0
C      1  0.6067470000000  0.4849810000000  0.4975240000000 1.0
C      1  0.4357080000000  0.4522890000000  0.4448580000000 1.0
C      1  0.5168180000000  0.4239170000000  0.5167860000000 1.0
C      1  0.4992730000000  0.5292290000000  0.4723520000000 1.0
C      1  0.5032660000000  0.5477850000000  0.5281950000000 1.0
C      1  0.5703250000000  0.5812430000000  0.5317440000000 1.0
C      1  0.4808750000000  0.5724280000000  0.5082780000000 1.0
C      1  0.4807500000000  0.5346910000000  0.5971410000000 1.0
C      1  0.5072020000000  0.5179690000000  0.5019020000000 1.0
C      1  0.5140530000000  0.5731660000000  0.5719980000000 1.0
C      1  0.3970480000000  0.4657060000000  0.5069510000000 1.0
C      1  0.4834630000000  0.5026820000000  0.4106560000000 1.0
C      1  0.4052370000000  0.5337670000000  0.5603980000000 1.0
C      1  0.5144530000000  0.5752200000000  0.5129330000000 1.0
C      1  0.5105860000000  0.4432770000000  0.4280640000000 1.0
C      1  0.4893610000000  0.5056300000000  0.5899810000000 1.0
C      1  0.4844110000000  0.5103620000000  0.4529100000000 1.0
C      1  0.5868930000000  0.5286550000000  0.4506650000000 1.0
C      1  0.5632340000000  0.5397560000000  0.4321910000000 1.0
C      1  0.5440090000000  0.4181540000000  0.5194010000000 1.0
C      1  0.4287110000000  0.5254590000000  0.4681180000000 1.0
C      1  0.5638650000000  0.4716590000000  0.4762900000000 1.0
C      1  0.4768110000000  0.5512010000000  0.4819970000000 1.0
C      1  0.5791380000000  0.5416790000000  0.4776900000000 1.0
C      1  0.5049380000000  0.4049350000000  0.4671320000000 1.0
C      1  0.5298830000000  0.5380140000000  0.4764300000000 1.0
C      1  0.4621390000000  0.4713640000000  0.3978770000000 1.0
C      1  0.4513340000000  0.5299980000000  0.5452930000000 1.0
C      1  0.4439170000000  0.4022620000000  0.5005490000000 1.0
C      1  0.5535420000000  0.5091540000000  0.4408050000000 1.0
C      1  0.4692590000000  0.6123320000000  0.5148310000000 1.0
C      1  0.5281900000000  0.4785230000000  0.3972390000000 1.0
C      1  0.5739620000000  0.4391930000000  0.4770740000000 1.0
C      1  0.4288920000000  0.5539140000000  0.5492650000000 1.0
C      1  0.6064040000000  0.4273250000000  0.4418940000000 1.0
C      1  0.5557610000000  0.5372760000000  0.5517440000000 1.0
C      1  0.5825940000000  0.4261830000000  0.4540060000000 1.0
C      1  0.5137710000000  0.4828260000000  0.5966890000000 1.0
C      1  0.5325910000000  0.5692880000000  0.4761530000000 1.0
C      1  0.5569560000000  0.4969960000000  0.4947490000000 1.0
C      1  0.4586460000000  0.4885980000000  0.4518530000000 1.0
C      1  0.5932580000000  0.4528010000000  0.5396860000000 1.0
C      1  0.4988110000000  0.5321820000000  0.4178110000000 1.0
C      1  0.5437330000000  0.5377450000000  0.5988480000000 1.0
C      1  0.5600040000000  0.4104350000000  0.4456130000000 1.0
C      1  0.4623810000000  0.5215380000000  0.4295470000000 1.0
C      1  0.4492080000000  0.4946710000000  0.4137960000000 1.0
C      1  0.5067450000000  0.5931550000000  0.5589640000000 1.0
C      1  0.5616340000000  0.4550320000000  0.5058740000000 1.0
C      1  0.4925620000000  0.5791410000000  0.4396920000000 1.0
C      1  0.5754160000000  0.5603930000000  0.5056050000000 1.0
C      1  0.5519830000000  0.4887360000000  0.4135160000000 1.0
C      1  0.5535000000000  0.5202460000000  0.4708540000000 1.0
C      1  0.4958230000000  0.4198170000000  0.5343230000000 1.0
C      1  0.4816300000000  0.5326550000000  0.5460860000000 1.0
C      1  0.4507620000000  0.5852870000000  0.5174490000000 1.0
C      1  0.5087770000000  0.4881390000000  0.4581690000000 1.0
C      1  0.4655020000000  0.4210270000000  0.5189460000000 1.0
C      1  0.4960490000000  0.6045260000000  0.4601030000000 1.0
C      1  0.5941550000000  0.4838510000000  0.4727880000000 1.0
C      1  0.5392380000000  0.5607070000000  0.4440830000000 1.0
C      1  0.5316730000000  0.4205560000000  0.5658930000000 1.0
C      1  0.4528900000000  0.4371680000000  0.4272220000000 1.0
C      1  0.5612880000000  0.4414920000000  0.5371280000000 1.0
C      1  0.4798940000000  0.5034010000000  0.4997560000000 1.0
C      1  0.4864100000000  0.4552930000000  0.4572830000000 1.0
C      1  0.4554670000000  0.5245130000000  0.4890920000000 1.0
C      1  0.4812400000000  0.4733380000000  0.5939100000000 1.0
C      1  0.4357810000000  0.4636550000000  0.4977480000000 1.0
C      1  0.5246430000000  0.4524910000000  0.5884850000000 1.0
C      1  0.4406150000000  0.5049610000000  0.5615030000000 1.0
C      1  0.5781830000000  0.4997530000000  0.5513530000000 1.0
C      1  0.4038040000000  0.5097080000000  0.5480070000000 1.0
C      1  0.4627600000000  0.4548440000000  0.5165060000000 1.0
C      1  0.5964120000000  0.4828240000000  0.5298490000000 1.0
C      1  0.4510410000000  0.4838280000000  0.5298880000000 1.0
C      1  0.4521110000000  0.4668520000000  0.5948590000000 1.0
C      1  0.6043280000000  0.5456470000000  0.5157640000000 1.0
C      1  0.5316890000000  0.5360380000000  0.4209500000000 1.0
C      1  0.5589900000000  0.4805780000000  0.5704340000000 1.0
C      1  0.5385560000000  0.4942870000000  0.5821630000000 1.0
C      1  0.5367010000000  0.4695070000000  0.4603040000000 1.0
C      1  0.4449500000000  0.5784000000000  0.5463030000000 1.0
C      1  0.5859360000000  0.5309610000000  0.5624100000000 1.0
C      1  0.4697760000000  0.5782660000000  0.5623630000000 1.0
C      1  0.4705030000000  0.6353250000000  0.5032960000000 1.0
C      1  0.4683620000000  0.4507320000000  0.5497960000000 1.0
END
