TITL C-2847951-7423-321 -0.00633579016960579 125000 -714.031704774171 0 0 134 (C1) n - 1
REM
REM in /home/bkarasulu/work/CARBON/AIRSS/Generating-Clusters/AIREBO/with-SteepDescent/Only-C1/SD-CG-opt/Try1-1.4A-POS3A/HFTN-CG
REM
REM
REM
REM
REM
REM ./C.cell (11c1c37f851c82e70ff6c80c92926a4b)
REM
REM compiler GCC version 9.2.1 20190827 (Red Hat 9.2.1-1)
REM options -cpp -mtune=generic -march=x86-64 -g -O0 -fpre-include=/usr/include/finclude/math-vector-fortran.h
REM seed -2111931489 -2081070131 -1873521184 852833458 -2120281698 1388526147 -602566959 -319844605 -822411910 -1751103206 -229459803 847308739 1181637706 1715304523 1258477719 1986042141 1087926351 -264861950 117116928 1062467589 87468387 -299312879 -258640597 -1551641217 -1787385462 -1187923630 809759515 -761955837 2012510025 1990585183 1282837236 766628774 -880469451
REM
CELL 1.54180   50.00000   50.00000   50.00000   90.00000   90.00000   90.00000
LATT -1
SFAC C  
C      1  0.4632890000000  0.5588560000000  0.4657030000000 1.0
C      1  0.4690480000000  0.5397940000000  0.5295160000000 1.0
C      1  0.3963740000000  0.5160270000000  0.4995110000000 1.0
C      1  0.5854350000000  0.4966600000000  0.5460510000000 1.0
C      1  0.5000930000000  0.4260070000000  0.5188420000000 1.0
C      1  0.4379490000000  0.5487650000000  0.5066250000000 1.0
C      1  0.5302390000000  0.4795040000000  0.4216660000000 1.0
C      1  0.5568230000000  0.5684590000000  0.5042800000000 1.0
C      1  0.4344780000000  0.5685680000000  0.5305520000000 1.0
C      1  0.5829400000000  0.5048220000000  0.4504900000000 1.0
C      1  0.4741400000000  0.4400630000000  0.5355560000000 1.0
C      1  0.5815620000000  0.4474780000000  0.5809020000000 1.0
C      1  0.5559040000000  0.4992610000000  0.4686510000000 1.0
C      1  0.5788310000000  0.4638230000000  0.5527380000000 1.0
C      1  0.4633570000000  0.5188430000000  0.5557910000000 1.0
C      1  0.5579630000000  0.4525470000000  0.5283710000000 1.0
C      1  0.4810010000000  0.4928970000000  0.4864370000000 1.0
C      1  0.4649110000000  0.5214760000000  0.5897630000000 1.0
C      1  0.4668350000000  0.4795960000000  0.4235430000000 1.0
C      1  0.4445770000000  0.5047430000000  0.4150860000000 1.0
C      1  0.5276430000000  0.5800310000000  0.4516400000000 1.0
C      1  0.4456870000000  0.4798790000000  0.4461150000000 1.0
C      1  0.4952920000000  0.4112750000000  0.4803580000000 1.0
C      1  0.4664530000000  0.4879870000000  0.5817300000000 1.0
C      1  0.5561200000000  0.4419200000000  0.4981400000000 1.0
C      1  0.5273130000000  0.4391140000000  0.5346040000000 1.0
C      1  0.5420080000000  0.5161480000000  0.5496430000000 1.0
C      1  0.5937630000000  0.5295570000000  0.4556220000000 1.0
C      1  0.4804810000000  0.5698350000000  0.5628040000000 1.0
C      1  0.5045590000000  0.5550880000000  0.4958490000000 1.0
C      1  0.4899700000000  0.4520830000000  0.4684240000000 1.0
C      1  0.5669540000000  0.4952530000000  0.4983640000000 1.0
C      1  0.4770800000000  0.5801510000000  0.4244540000000 1.0
C      1  0.4426090000000  0.4299400000000  0.5138930000000 1.0
C      1  0.4005730000000  0.4863040000000  0.5155100000000 1.0
C      1  0.4097250000000  0.4904080000000  0.5672280000000 1.0
C      1  0.5027820000000  0.4709850000000  0.4913190000000 1.0
C      1  0.4593930000000  0.4084780000000  0.5729770000000 1.0
C      1  0.4383860000000  0.4914810000000  0.5267080000000 1.0
C      1  0.4943480000000  0.4762580000000  0.5858450000000 1.0
C      1  0.5262840000000  0.4482580000000  0.5664770000000 1.0
C      1  0.5618840000000  0.4232400000000  0.4636730000000 1.0
C      1  0.5378320000000  0.5153390000000  0.5168960000000 1.0
C      1  0.5986900000000  0.4821190000000  0.5186990000000 1.0
C      1  0.4239690000000  0.5185320000000  0.5192180000000 1.0
C      1  0.5899970000000  0.4505080000000  0.5171100000000 1.0
C      1  0.4413400000000  0.4931650000000  0.5593820000000 1.0
C      1  0.5107850000000  0.4864140000000  0.4460750000000 1.0
C      1  0.5422520000000  0.5607720000000  0.4388140000000 1.0
C      1  0.4401190000000  0.5375010000000  0.4375520000000 1.0
C      1  0.4863300000000  0.4809770000000  0.5263320000000 1.0
C      1  0.5089960000000  0.5333400000000  0.4700870000000 1.0
C      1  0.5273740000000  0.4766760000000  0.5478350000000 1.0
C      1  0.5482500000000  0.4846940000000  0.5230440000000 1.0
C      1  0.5198800000000  0.4922610000000  0.5771350000000 1.0
C      1  0.4962480000000  0.5917420000000  0.4458120000000 1.0
C      1  0.4319520000000  0.4475070000000  0.5415220000000 1.0
C      1  0.5534950000000  0.5466390000000  0.5527230000000 1.0
C      1  0.4567230000000  0.5856240000000  0.4803370000000 1.0
C      1  0.5271080000000  0.4841350000000  0.4737590000000 1.0
C      1  0.5057920000000  0.5548100000000  0.5583300000000 1.0
C      1  0.4785060000000  0.5903330000000  0.5391990000000 1.0
C      1  0.4733110000000  0.4378970000000  0.5690670000000 1.0
C      1  0.4286500000000  0.5063850000000  0.4450890000000 1.0
C      1  0.4772660000000  0.5862050000000  0.5065720000000 1.0
C      1  0.5094110000000  0.5957720000000  0.5280040000000 1.0
C      1  0.4720310000000  0.5231170000000  0.4813790000000 1.0
C      1  0.4675270000000  0.5289880000000  0.4512090000000 1.0
C      1  0.4774510000000  0.5057210000000  0.4066230000000 1.0
C      1  0.4645380000000  0.4313210000000  0.4654720000000 1.0
C      1  0.5438480000000  0.5130230000000  0.5894060000000 1.0
C      1  0.4551100000000  0.5570240000000  0.4189740000000 1.0
C      1  0.4322320000000  0.4543470000000  0.4580270000000 1.0
C      1  0.4373930000000  0.4355940000000  0.4829530000000 1.0
C      1  0.5533250000000  0.4629910000000  0.5749440000000 1.0
C      1  0.4906030000000  0.4353420000000  0.4230820000000 1.0
C      1  0.4725810000000  0.4249400000000  0.4986290000000 1.0
C      1  0.4160940000000  0.5314790000000  0.5479060000000 1.0
C      1  0.5113550000000  0.4558940000000  0.4056610000000 1.0
C      1  0.4936280000000  0.5591540000000  0.4541590000000 1.0
C      1  0.5173000000000  0.4321400000000  0.4649690000000 1.0
C      1  0.4601900000000  0.4670840000000  0.5212680000000 1.0
C      1  0.5592470000000  0.5360990000000  0.4225260000000 1.0
C      1  0.5737840000000  0.5516990000000  0.4477400000000 1.0
C      1  0.4980920000000  0.5266170000000  0.4165080000000 1.0
C      1  0.5404510000000  0.5268020000000  0.4598310000000 1.0
C      1  0.6039200000000  0.5311570000000  0.4809240000000 1.0
C      1  0.4414740000000  0.4653410000000  0.4953180000000 1.0
C      1  0.5237780000000  0.4045150000000  0.5071630000000 1.0
C      1  0.4602780000000  0.4751950000000  0.4736060000000 1.0
C      1  0.5835300000000  0.4696860000000  0.4903850000000 1.0
C      1  0.5164170000000  0.5099890000000  0.4931070000000 1.0
C      1  0.5788950000000  0.5290650000000  0.5415970000000 1.0
C      1  0.5199820000000  0.4292430000000  0.4340840000000 1.0
C      1  0.4951850000000  0.5129430000000  0.4466500000000 1.0
C      1  0.5366880000000  0.4105800000000  0.4827250000000 1.0
C      1  0.4471980000000  0.5925220000000  0.5320450000000 1.0
C      1  0.4671510000000  0.4208800000000  0.4384600000000 1.0
C      1  0.5511780000000  0.5311830000000  0.4918480000000 1.0
C      1  0.4861410000000  0.6012380000000  0.4772130000000 1.0
C      1  0.5742150000000  0.4188790000000  0.4929060000000 1.0
C      1  0.4183500000000  0.4836430000000  0.4929940000000 1.0
C      1  0.5716090000000  0.4777940000000  0.4391080000000 1.0
C      1  0.5529720000000  0.5023170000000  0.4245690000000 1.0
C      1  0.4547780000000  0.3905110000000  0.5904600000000 1.0
C      1  0.4905200000000  0.4989330000000  0.5511110000000 1.0
C      1  0.4497030000000  0.4611520000000  0.5672520000000 1.0
C      1  0.4986770000000  0.5296200000000  0.5404330000000 1.0
C      1  0.4310930000000  0.5536560000000  0.5540570000000 1.0
C      1  0.4201990000000  0.5515800000000  0.4587350000000 1.0
C      1  0.4908320000000  0.5110150000000  0.5134770000000 1.0
C      1  0.5583350000000  0.4945460000000  0.5667650000000 1.0
C      1  0.5734800000000  0.5507190000000  0.5186690000000 1.0
C      1  0.4860920000000  0.5530000000000  0.4113650000000 1.0
C      1  0.4574550000000  0.5490860000000  0.5701950000000 1.0
C      1  0.4157060000000  0.5079110000000  0.4718230000000 1.0
C      1  0.5222710000000  0.5317440000000  0.5726030000000 1.0
C      1  0.5281020000000  0.5252260000000  0.4281670000000 1.0
C      1  0.5324890000000  0.5644440000000  0.5460220000000 1.0
C      1  0.5274060000000  0.5713120000000  0.5151770000000 1.0
C      1  0.5827280000000  0.5238810000000  0.5022240000000 1.0
C      1  0.4984850000000  0.4496950000000  0.5792180000000 1.0
C      1  0.5398900000000  0.4470460000000  0.4191650000000 1.0
C      1  0.4493460000000  0.4184110000000  0.5441860000000 1.0
C      1  0.4103920000000  0.4720120000000  0.5403300000000 1.0
C      1  0.4177880000000  0.5381020000000  0.4850060000000 1.0
C      1  0.5712650000000  0.4562090000000  0.4625360000000 1.0
C      1  0.5129790000000  0.5824820000000  0.4801540000000 1.0
C      1  0.4888280000000  0.4650090000000  0.4372720000000 1.0
C      1  0.5395200000000  0.4543150000000  0.4745730000000 1.0
C      1  0.4706980000000  0.5527670000000  0.4983300000000 1.0
C      1  0.4952330000000  0.5155770000000  0.5795340000000 1.0
C      1  0.5114850000000  0.4642590000000  0.5202370000000 1.0
C      1  0.5591550000000  0.5590260000000  0.4749140000000 1.0
END
