TITL C-2848502-4955-37 -0.000553608972057739 125000 -284.361988221386 0 0 53 (C1) n - 1
REM
REM in /home/bkarasulu/work/CARBON/AIRSS/Generating-Clusters/AIREBO/with-SteepDescent/Only-C1/SD-CG-opt/Try1-1.4A-POS3A/HFTN-CG
REM
REM
REM
REM
REM
REM ./C.cell (11c1c37f851c82e70ff6c80c92926a4b)
REM
REM compiler GCC version 9.2.1 20190827 (Red Hat 9.2.1-1)
REM options -cpp -mtune=generic -march=x86-64 -g -O0 -fpre-include=/usr/include/finclude/math-vector-fortran.h
REM seed 779707854 1730748864 -2102254831 -28725527 -1319427952 -222123126 -1261415652 1108185309 2133500867 -930040626 -1436836457 1928202987 -1992618502 3357355 1382718299 -1148740741 -975995118 62146273 8008240 -247023459 -1732591876 799435329 -504997938 1383639658 1727230383 2072537830 1348415730 2144539150 -836463772 -2000851074 742803988 1318353382 1813885175
REM
CELL 1.54180   50.00000   50.00000   50.00000   90.00000   90.00000   90.00000
LATT -1
SFAC C  
C      1  0.4709920000000  0.4813770000000  0.5648340000000 1.0
C      1  0.4748230000000  0.4337780000000  0.5238170000000 1.0
C      1  0.4822620000000  0.5094940000000  0.5493790000000 1.0
C      1  0.4629010000000  0.5455020000000  0.4920340000000 1.0
C      1  0.5414880000000  0.4464890000000  0.5012130000000 1.0
C      1  0.4959430000000  0.5533740000000  0.5230460000000 1.0
C      1  0.4552180000000  0.4969990000000  0.5003440000000 1.0
C      1  0.4801180000000  0.4320260000000  0.4925810000000 1.0
C      1  0.4776300000000  0.5027600000000  0.5182810000000 1.0
C      1  0.4613720000000  0.4702900000000  0.4831010000000 1.0
C      1  0.5340740000000  0.5364800000000  0.5656470000000 1.0
C      1  0.5667360000000  0.4853550000000  0.5017390000000 1.0
C      1  0.5783070000000  0.5080200000000  0.4840420000000 1.0
C      1  0.4655480000000  0.4879890000000  0.4429720000000 1.0
C      1  0.5130150000000  0.4690140000000  0.5179810000000 1.0
C      1  0.4185660000000  0.5117520000000  0.5033720000000 1.0
C      1  0.5180270000000  0.4628980000000  0.4858540000000 1.0
C      1  0.4558740000000  0.4628480000000  0.5467310000000 1.0
C      1  0.4442980000000  0.5224800000000  0.4838740000000 1.0
C      1  0.4993860000000  0.4849550000000  0.4444370000000 1.0
C      1  0.4374580000000  0.4618170000000  0.5260540000000 1.0
C      1  0.4601280000000  0.5347160000000  0.5438800000000 1.0
C      1  0.4882280000000  0.4585060000000  0.5369580000000 1.0
C      1  0.5021000000000  0.5264550000000  0.4289350000000 1.0
C      1  0.5409700000000  0.5395460000000  0.5161180000000 1.0
C      1  0.5204920000000  0.5166670000000  0.4562670000000 1.0
C      1  0.4876390000000  0.4907570000000  0.4759140000000 1.0
C      1  0.4688230000000  0.5185930000000  0.4297060000000 1.0
C      1  0.5505960000000  0.4924290000000  0.4475640000000 1.0
C      1  0.4283800000000  0.4860920000000  0.5155280000000 1.0
C      1  0.5038680000000  0.4835900000000  0.5537620000000 1.0
C      1  0.5585240000000  0.5187070000000  0.5541200000000 1.0
C      1  0.5043030000000  0.4964170000000  0.5042620000000 1.0
C      1  0.4503880000000  0.4448430000000  0.5028970000000 1.0
C      1  0.5546080000000  0.5481820000000  0.5429360000000 1.0
C      1  0.4933640000000  0.4480550000000  0.4742950000000 1.0
C      1  0.4467290000000  0.5135770000000  0.4551040000000 1.0
C      1  0.5135620000000  0.5546190000000  0.4788960000000 1.0
C      1  0.5378020000000  0.5418670000000  0.4646120000000 1.0
C      1  0.5117150000000  0.5232610000000  0.5223160000000 1.0
C      1  0.5510530000000  0.4997000000000  0.5352320000000 1.0
C      1  0.5555390000000  0.4643640000000  0.5172100000000 1.0
C      1  0.4859620000000  0.5455950000000  0.4752260000000 1.0
C      1  0.5189870000000  0.5587780000000  0.5057920000000 1.0
C      1  0.5346930000000  0.4743730000000  0.5424540000000 1.0
C      1  0.5598350000000  0.5175350000000  0.4633120000000 1.0
C      1  0.5320910000000  0.4918260000000  0.4760890000000 1.0
C      1  0.4728070000000  0.4578250000000  0.4536060000000 1.0
C      1  0.4867340000000  0.5200130000000  0.4585900000000 1.0
C      1  0.5435180000000  0.5088050000000  0.5033380000000 1.0
C      1  0.5093570000000  0.5289900000000  0.5551660000000 1.0
C      1  0.5248800000000  0.4799560000000  0.4386010000000 1.0
C      1  0.4682880000000  0.5496640000000  0.5199800000000 1.0
END
