TITL C-2848501-3133-198 0.00249485443444437 125000 -1034.49953422949 0 0 185 (C1) n - 1
REM
REM in /home/bkarasulu/work/CARBON/AIRSS/Generating-Clusters/AIREBO/with-SteepDescent/Only-C1/SD-CG-opt/Try1-1.4A-POS3A/HFTN-CG
REM
REM
REM
REM
REM
REM ./C.cell (11c1c37f851c82e70ff6c80c92926a4b)
REM
REM compiler GCC version 9.2.1 20190827 (Red Hat 9.2.1-1)
REM options -cpp -mtune=generic -march=x86-64 -g -O0 -fpre-include=/usr/include/finclude/math-vector-fortran.h
REM seed -1324446691 -496076945 1399517855 -996281048 1306494770 -100877112 406425164 -13824372 1011524722 1362191749 -888658551 -721678115 1104220626 349340091 1866983769 -2139814070 -332501235 -1389959240 1589465489 -1399217356 271130094 215556964 -1509349998 -849392315 -1595143288 -9524814 1047629363 421651494 -2001006295 -1492788295 -837057009 -752275876 -2092135581
REM
CELL 1.54180   50.00000   50.00000   50.00000   90.00000   90.00000   90.00000
LATT -1
SFAC C  
C      1  0.5591340000000  0.5506230000000  0.5749280000000 1.0
C      1  0.5647510000000  0.4322720000000  0.4289030000000 1.0
C      1  0.4597070000000  0.4110860000000  0.4896380000000 1.0
C      1  0.5222620000000  0.5091280000000  0.6020420000000 1.0
C      1  0.4165640000000  0.5734400000000  0.5278750000000 1.0
C      1  0.5359770000000  0.4205150000000  0.4286580000000 1.0
C      1  0.4808720000000  0.5595320000000  0.5069690000000 1.0
C      1  0.4219630000000  0.5113570000000  0.5475940000000 1.0
C      1  0.5386620000000  0.4916260000000  0.4507770000000 1.0
C      1  0.4343500000000  0.5004390000000  0.4793300000000 1.0
C      1  0.5736360000000  0.4384910000000  0.4976540000000 1.0
C      1  0.4729340000000  0.5450560000000  0.4302700000000 1.0
C      1  0.5654000000000  0.5318500000000  0.5194570000000 1.0
C      1  0.4921460000000  0.4953120000000  0.5729610000000 1.0
C      1  0.4891160000000  0.5296000000000  0.4818950000000 1.0
C      1  0.5178220000000  0.4703200000000  0.6273560000000 1.0
C      1  0.3961980000000  0.5074370000000  0.4217790000000 1.0
C      1  0.5168310000000  0.6015580000000  0.5196630000000 1.0
C      1  0.4058370000000  0.4318020000000  0.4989300000000 1.0
C      1  0.5299910000000  0.4517030000000  0.4295500000000 1.0
C      1  0.5025400000000  0.3883930000000  0.5178170000000 1.0
C      1  0.4904290000000  0.5994550000000  0.4518410000000 1.0
C      1  0.5366530000000  0.4633480000000  0.5929450000000 1.0
C      1  0.5405520000000  0.5313290000000  0.3925560000000 1.0
C      1  0.5340650000000  0.4372750000000  0.5092800000000 1.0
C      1  0.5758110000000  0.4571010000000  0.4376860000000 1.0
C      1  0.5978470000000  0.4598280000000  0.4594570000000 1.0
C      1  0.5108980000000  0.4724990000000  0.4782290000000 1.0
C      1  0.4258490000000  0.4793190000000  0.5008580000000 1.0
C      1  0.5998900000000  0.4852210000000  0.4795710000000 1.0
C      1  0.5039660000000  0.4942160000000  0.6246260000000 1.0
C      1  0.5241380000000  0.5763700000000  0.3974560000000 1.0
C      1  0.5245510000000  0.4879730000000  0.5755000000000 1.0
C      1  0.4945520000000  0.4328710000000  0.4671160000000 1.0
C      1  0.4322810000000  0.5760180000000  0.4809990000000 1.0
C      1  0.5812130000000  0.4801230000000  0.5329650000000 1.0
C      1  0.4506410000000  0.5689230000000  0.4316100000000 1.0
C      1  0.4686590000000  0.6098590000000  0.5055900000000 1.0
C      1  0.4587480000000  0.5133420000000  0.5322820000000 1.0
C      1  0.3802890000000  0.4865490000000  0.4907510000000 1.0
C      1  0.5104110000000  0.5691130000000  0.5204570000000 1.0
C      1  0.5650730000000  0.5186100000000  0.4638410000000 1.0
C      1  0.5060130000000  0.5654670000000  0.5499100000000 1.0
C      1  0.4108260000000  0.5731190000000  0.5001170000000 1.0
C      1  0.5295050000000  0.4039890000000  0.5038830000000 1.0
C      1  0.5812380000000  0.5611350000000  0.5168330000000 1.0
C      1  0.4558170000000  0.4680800000000  0.4699720000000 1.0
C      1  0.4864890000000  0.4380370000000  0.5521130000000 1.0
C      1  0.5806670000000  0.4873060000000  0.5645890000000 1.0
C      1  0.5562350000000  0.5775350000000  0.5543510000000 1.0
C      1  0.4067100000000  0.5273710000000  0.5145010000000 1.0
C      1  0.6208970000000  0.4453680000000  0.4551840000000 1.0
C      1  0.4647940000000  0.5980170000000  0.5375560000000 1.0
C      1  0.4495510000000  0.4578550000000  0.5012770000000 1.0
C      1  0.4126760000000  0.5437510000000  0.5427660000000 1.0
C      1  0.5647970000000  0.5204990000000  0.5799910000000 1.0
C      1  0.5785960000000  0.4948870000000  0.5975980000000 1.0
C      1  0.4782430000000  0.4972030000000  0.4550750000000 1.0
C      1  0.4886520000000  0.4434650000000  0.5851630000000 1.0
C      1  0.4887320000000  0.4650230000000  0.3955280000000 1.0
C      1  0.5346120000000  0.5122240000000  0.4775390000000 1.0
C      1  0.4994690000000  0.5157210000000  0.4417590000000 1.0
C      1  0.4303330000000  0.4421680000000  0.5655440000000 1.0
C      1  0.5257510000000  0.5542080000000  0.4500090000000 1.0
C      1  0.5149460000000  0.5411260000000  0.5008560000000 1.0
C      1  0.5732210000000  0.3995230000000  0.5813140000000 1.0
C      1  0.4905750000000  0.4792310000000  0.5300090000000 1.0
C      1  0.5180660000000  0.4334110000000  0.5456510000000 1.0
C      1  0.5449590000000  0.5042130000000  0.5579230000000 1.0
C      1  0.5649830000000  0.4668710000000  0.5871760000000 1.0
C      1  0.5321370000000  0.4955600000000  0.5276320000000 1.0
C      1  0.4099580000000  0.4690450000000  0.4479980000000 1.0
C      1  0.5023100000000  0.4605880000000  0.5056530000000 1.0
C      1  0.4879660000000  0.4933950000000  0.3903300000000 1.0
C      1  0.4642570000000  0.5414410000000  0.4629510000000 1.0
C      1  0.4616190000000  0.5902720000000  0.4462040000000 1.0
C      1  0.5965580000000  0.5222670000000  0.5273710000000 1.0
C      1  0.4832240000000  0.5016780000000  0.6041090000000 1.0
C      1  0.5449980000000  0.5888170000000  0.4450740000000 1.0
C      1  0.4565900000000  0.5478500000000  0.4954530000000 1.0
C      1  0.5002220000000  0.5632140000000  0.4353380000000 1.0
C      1  0.5689450000000  0.4935290000000  0.4857620000000 1.0
C      1  0.5497860000000  0.5350940000000  0.5461230000000 1.0
C      1  0.4258100000000  0.5494840000000  0.4320230000000 1.0
C      1  0.5379480000000  0.4603280000000  0.4615880000000 1.0
C      1  0.5636840000000  0.5299210000000  0.4121260000000 1.0
C      1  0.5521970000000  0.5119420000000  0.6094000000000 1.0
C      1  0.6012320000000  0.5094830000000  0.5511080000000 1.0
C      1  0.5518020000000  0.4359560000000  0.5448680000000 1.0
C      1  0.4401470000000  0.4342910000000  0.4785590000000 1.0
C      1  0.4567490000000  0.5128710000000  0.5909640000000 1.0
C      1  0.4631710000000  0.4304340000000  0.4542500000000 1.0
C      1  0.4184210000000  0.5269320000000  0.4763650000000 1.0
C      1  0.4920470000000  0.5828930000000  0.4879850000000 1.0
C      1  0.5177050000000  0.4941940000000  0.4248060000000 1.0
C      1  0.4886460000000  0.5345450000000  0.5680920000000 1.0
C      1  0.5451930000000  0.5392110000000  0.4953230000000 1.0
C      1  0.3891260000000  0.4877410000000  0.4422360000000 1.0
C      1  0.5240370000000  0.4343320000000  0.4785220000000 1.0
C      1  0.4750950000000  0.4699020000000  0.5730650000000 1.0
C      1  0.5369390000000  0.4742650000000  0.4050780000000 1.0
C      1  0.4337490000000  0.5507450000000  0.4629760000000 1.0
C      1  0.6089200000000  0.4855000000000  0.5181200000000 1.0
C      1  0.5634570000000  0.4171400000000  0.5656400000000 1.0
C      1  0.5544590000000  0.5389870000000  0.4398740000000 1.0
C      1  0.3962440000000  0.5475850000000  0.4921010000000 1.0
C      1  0.6036520000000  0.4403300000000  0.5131160000000 1.0
C      1  0.4757630000000  0.5403140000000  0.5975030000000 1.0
C      1  0.5369300000000  0.5563360000000  0.3820830000000 1.0
C      1  0.4943450000000  0.4695320000000  0.4262750000000 1.0
C      1  0.5158690000000  0.4521930000000  0.3976380000000 1.0
C      1  0.5179900000000  0.4438360000000  0.5955450000000 1.0
C      1  0.4885730000000  0.3876760000000  0.5489460000000 1.0
C      1  0.4758730000000  0.5746250000000  0.5562430000000 1.0
C      1  0.4829680000000  0.4010570000000  0.4722110000000 1.0
C      1  0.5797670000000  0.5464680000000  0.4695350000000 1.0
C      1  0.4175520000000  0.4178830000000  0.5195040000000 1.0
C      1  0.5625840000000  0.4988860000000  0.5147410000000 1.0
C      1  0.4485560000000  0.4999410000000  0.5618380000000 1.0
C      1  0.4356690000000  0.4842170000000  0.4518050000000 1.0
C      1  0.3777580000000  0.4997690000000  0.4657570000000 1.0
C      1  0.4399870000000  0.4278440000000  0.5879440000000 1.0
C      1  0.5756980000000  0.4490840000000  0.5287600000000 1.0
C      1  0.5044190000000  0.5072300000000  0.5435380000000 1.0
C      1  0.4989070000000  0.5672590000000  0.4065490000000 1.0
C      1  0.4159460000000  0.4286510000000  0.5456060000000 1.0
C      1  0.4691820000000  0.5681150000000  0.5851230000000 1.0
C      1  0.4830500000000  0.4072440000000  0.4391430000000 1.0
C      1  0.3832060000000  0.5046570000000  0.5116530000000 1.0
C      1  0.5127910000000  0.4985220000000  0.4997890000000 1.0
C      1  0.4542300000000  0.4179070000000  0.4251530000000 1.0
C      1  0.4668120000000  0.4199450000000  0.5901100000000 1.0
C      1  0.4380000000000  0.5456820000000  0.5602360000000 1.0
C      1  0.5138640000000  0.5301740000000  0.4624040000000 1.0
C      1  0.5642380000000  0.5812500000000  0.5279290000000 1.0
C      1  0.4930640000000  0.5338010000000  0.5255810000000 1.0
C      1  0.5857920000000  0.5453690000000  0.4029350000000 1.0
C      1  0.5383020000000  0.4623640000000  0.5280380000000 1.0
C      1  0.4210460000000  0.5223260000000  0.4235940000000 1.0
C      1  0.4860570000000  0.4642490000000  0.4571290000000 1.0
C      1  0.4598000000000  0.5902090000000  0.4792950000000 1.0
C      1  0.5290810000000  0.5754800000000  0.5676090000000 1.0
C      1  0.4880020000000  0.5238840000000  0.3852590000000 1.0
C      1  0.5599640000000  0.4101860000000  0.4961710000000 1.0
C      1  0.5641290000000  0.4821510000000  0.4330490000000 1.0
C      1  0.5382820000000  0.5921400000000  0.4171580000000 1.0
C      1  0.4422480000000  0.5046660000000  0.4304460000000 1.0
C      1  0.4661140000000  0.4556250000000  0.5313190000000 1.0
C      1  0.5723110000000  0.5004110000000  0.4153130000000 1.0
C      1  0.4668880000000  0.5438970000000  0.5447920000000 1.0
C      1  0.3860810000000  0.5262500000000  0.4687760000000 1.0
C      1  0.5177190000000  0.5837860000000  0.4647510000000 1.0
C      1  0.5024070000000  0.3810100000000  0.4866350000000 1.0
C      1  0.4385830000000  0.4003630000000  0.5134720000000 1.0
C      1  0.4900970000000  0.6158610000000  0.4798850000000 1.0
C      1  0.6070220000000  0.5128940000000  0.4980450000000 1.0
C      1  0.4789380000000  0.5468770000000  0.3966800000000 1.0
C      1  0.6212930000000  0.4613520000000  0.5133470000000 1.0
C      1  0.5378620000000  0.5717380000000  0.4893610000000 1.0
C      1  0.4647410000000  0.5058930000000  0.4808970000000 1.0
C      1  0.4930700000000  0.6140600000000  0.5275960000000 1.0
C      1  0.4400180000000  0.5342130000000  0.5157230000000 1.0
C      1  0.4332310000000  0.5922870000000  0.5383300000000 1.0
C      1  0.5017260000000  0.4298980000000  0.5160370000000 1.0
C      1  0.4716400000000  0.4251080000000  0.5173490000000 1.0
C      1  0.5306770000000  0.5578990000000  0.5922780000000 1.0
C      1  0.5158180000000  0.4053360000000  0.4412830000000 1.0
C      1  0.5194800000000  0.5349030000000  0.5563590000000 1.0
C      1  0.4792980000000  0.5011260000000  0.5080780000000 1.0
C      1  0.5642340000000  0.5686940000000  0.4513720000000 1.0
C      1  0.5231750000000  0.4018840000000  0.4705410000000 1.0
C      1  0.5936780000000  0.5440690000000  0.4939620000000 1.0
C      1  0.4720300000000  0.5116030000000  0.4242000000000 1.0
C      1  0.4002010000000  0.4641680000000  0.4920880000000 1.0
C      1  0.4375390000000  0.5377290000000  0.5862960000000 1.0
C      1  0.5684830000000  0.4607660000000  0.4766480000000 1.0
C      1  0.5171590000000  0.5132740000000  0.3966580000000 1.0
C      1  0.5431570000000  0.5894970000000  0.5105660000000 1.0
C      1  0.4471370000000  0.4662680000000  0.5573420000000 1.0
C      1  0.4693070000000  0.3927130000000  0.5235820000000 1.0
C      1  0.4098990000000  0.4436370000000  0.4671200000000 1.0
C      1  0.4831080000000  0.4084780000000  0.5669140000000 1.0
C      1  0.5095040000000  0.5358820000000  0.5949190000000 1.0
C      1  0.5142820000000  0.4667810000000  0.5509690000000 1.0
C      1  0.4162350000000  0.4912050000000  0.5286560000000 1.0
END
