TITL C-2848508-1660-43 -0.000144518722622425 125000 -1061.32259996384 0 0 198 (C1) n - 1
REM
REM in /home/bkarasulu/work/CARBON/AIRSS/Generating-Clusters/AIREBO/with-SteepDescent/Only-C1/SD-CG-opt/Try1-1.4A-POS3A/HFTN-CG
REM
REM
REM
REM
REM
REM ./C.cell (11c1c37f851c82e70ff6c80c92926a4b)
REM
REM compiler GCC version 9.2.1 20190827 (Red Hat 9.2.1-1)
REM options -cpp -mtune=generic -march=x86-64 -g -O0 -fpre-include=/usr/include/finclude/math-vector-fortran.h
REM seed -1800679452 1034550799 1390413958 613729029 -188666324 516724368 656903016 -1377824061 1013218949 1031111840 -1980441919 37151950 76916540 -1450156711 1222849224 -1357312371 -1180619135 1340042131 -1797010132 -1454933605 658869401 -467578650 -50196411 -85231178 -1078034829 -1884990169 410805060 294645895 1557005884 -632637857 -860310193 832209109 -1436123852
REM
CELL 1.54180   50.00000   50.00000   50.00000   90.00000   90.00000   90.00000
LATT -1
SFAC C  
C      1  0.4863360000000  0.6114940000000  0.4828630000000 1.0
C      1  0.4873140000000  0.4079570000000  0.4421520000000 1.0
C      1  0.4614890000000  0.4800330000000  0.5918920000000 1.0
C      1  0.5158090000000  0.5661780000000  0.5627060000000 1.0
C      1  0.5300040000000  0.5115520000000  0.6024310000000 1.0
C      1  0.5018620000000  0.5237570000000  0.4254840000000 1.0
C      1  0.5608760000000  0.4528260000000  0.5403200000000 1.0
C      1  0.5034490000000  0.5246060000000  0.3855520000000 1.0
C      1  0.4853340000000  0.4795240000000  0.6134480000000 1.0
C      1  0.4492150000000  0.4575230000000  0.5253750000000 1.0
C      1  0.4430020000000  0.5069370000000  0.4511220000000 1.0
C      1  0.5366600000000  0.4860040000000  0.5238520000000 1.0
C      1  0.4106490000000  0.5503580000000  0.5152120000000 1.0
C      1  0.4864210000000  0.4876000000000  0.5469840000000 1.0
C      1  0.5485290000000  0.5536890000000  0.4850740000000 1.0
C      1  0.4684350000000  0.4087760000000  0.5515470000000 1.0
C      1  0.5343450000000  0.5944520000000  0.4845750000000 1.0
C      1  0.4510460000000  0.5234520000000  0.4101600000000 1.0
C      1  0.6006360000000  0.4660860000000  0.4893530000000 1.0
C      1  0.4627400000000  0.4156890000000  0.4607230000000 1.0
C      1  0.4731010000000  0.5508690000000  0.5567580000000 1.0
C      1  0.4697500000000  0.4729210000000  0.3959690000000 1.0
C      1  0.4945830000000  0.5333940000000  0.5699030000000 1.0
C      1  0.4859770000000  0.4589860000000  0.4594200000000 1.0
C      1  0.4595920000000  0.5512700000000  0.4793120000000 1.0
C      1  0.4850890000000  0.5521130000000  0.5262150000000 1.0
C      1  0.5865070000000  0.4629130000000  0.5203560000000 1.0
C      1  0.4600230000000  0.4591960000000  0.4398800000000 1.0
C      1  0.4710260000000  0.4308100000000  0.4247390000000 1.0
C      1  0.5135360000000  0.4324140000000  0.5702290000000 1.0
C      1  0.5394150000000  0.5103370000000  0.4703020000000 1.0
C      1  0.4871210000000  0.4959190000000  0.4230730000000 1.0
C      1  0.4394250000000  0.5659030000000  0.4623100000000 1.0
C      1  0.5735470000000  0.4625370000000  0.4001160000000 1.0
C      1  0.4343050000000  0.4842160000000  0.5335760000000 1.0
C      1  0.4765270000000  0.5324960000000  0.6055610000000 1.0
C      1  0.5989150000000  0.5317630000000  0.4799270000000 1.0
C      1  0.4625640000000  0.5269080000000  0.4651070000000 1.0
C      1  0.5923450000000  0.4920820000000  0.5344020000000 1.0
C      1  0.5042160000000  0.3936630000000  0.4633380000000 1.0
C      1  0.5872400000000  0.5580490000000  0.4523520000000 1.0
C      1  0.4117950000000  0.5220070000000  0.5314810000000 1.0
C      1  0.5256140000000  0.5908840000000  0.4560960000000 1.0
C      1  0.4585880000000  0.6001950000000  0.4989870000000 1.0
C      1  0.4933840000000  0.5736300000000  0.5826380000000 1.0
C      1  0.5606910000000  0.4711920000000  0.4815270000000 1.0
C      1  0.6121620000000  0.5417620000000  0.5306740000000 1.0
C      1  0.5240160000000  0.5312020000000  0.4921680000000 1.0
C      1  0.5007000000000  0.5329710000000  0.4550590000000 1.0
C      1  0.5764590000000  0.4457490000000  0.4653760000000 1.0
C      1  0.4543810000000  0.5444900000000  0.5915060000000 1.0
C      1  0.4170080000000  0.4512190000000  0.5481150000000 1.0
C      1  0.5308150000000  0.4314830000000  0.4508570000000 1.0
C      1  0.5504700000000  0.4978810000000  0.4999860000000 1.0
C      1  0.4999860000000  0.4650640000000  0.3845260000000 1.0
C      1  0.4511040000000  0.5069000000000  0.5782820000000 1.0
C      1  0.4793930000000  0.5128600000000  0.3946210000000 1.0
C      1  0.5980420000000  0.4682590000000  0.4546350000000 1.0
C      1  0.3917660000000  0.4775910000000  0.5273670000000 1.0
C      1  0.5789370000000  0.5612480000000  0.5787090000000 1.0
C      1  0.5396380000000  0.4961640000000  0.4131240000000 1.0
C      1  0.5052010000000  0.5468290000000  0.5972040000000 1.0
C      1  0.4906820000000  0.3838550000000  0.4912520000000 1.0
C      1  0.5005510000000  0.4832040000000  0.5847020000000 1.0
C      1  0.5082090000000  0.5007570000000  0.4615430000000 1.0
C      1  0.4863130000000  0.4429790000000  0.5296290000000 1.0
C      1  0.3892250000000  0.4713750000000  0.4970440000000 1.0
C      1  0.4410700000000  0.6019320000000  0.5281250000000 1.0
C      1  0.5150050000000  0.4516560000000  0.4709550000000 1.0
C      1  0.5349550000000  0.5712360000000  0.5094560000000 1.0
C      1  0.5641780000000  0.5922270000000  0.4923030000000 1.0
C      1  0.5403970000000  0.5850410000000  0.5566000000000 1.0
C      1  0.5660090000000  0.5122420000000  0.5267890000000 1.0
C      1  0.5481870000000  0.5178100000000  0.5556590000000 1.0
C      1  0.4638490000000  0.4425410000000  0.4775370000000 1.0
C      1  0.5797470000000  0.4911230000000  0.4352320000000 1.0
C      1  0.5375340000000  0.5477850000000  0.4567900000000 1.0
C      1  0.5115230000000  0.4532950000000  0.5455070000000 1.0
C      1  0.5494910000000  0.5666330000000  0.5838510000000 1.0
C      1  0.5281040000000  0.4071710000000  0.5252300000000 1.0
C      1  0.5859250000000  0.4939920000000  0.4819830000000 1.0
C      1  0.4983150000000  0.5105250000000  0.6124580000000 1.0
C      1  0.4250040000000  0.4952850000000  0.4750120000000 1.0
C      1  0.4953780000000  0.5160150000000  0.5037380000000 1.0
C      1  0.5186690000000  0.5314800000000  0.5228520000000 1.0
C      1  0.5273110000000  0.6071980000000  0.5343420000000 1.0
C      1  0.4914570000000  0.4488240000000  0.6192780000000 1.0
C      1  0.5359240000000  0.5448630000000  0.5978470000000 1.0
C      1  0.4068120000000  0.4406390000000  0.5246210000000 1.0
C      1  0.4616360000000  0.3978710000000  0.4980310000000 1.0
C      1  0.4353320000000  0.5200070000000  0.5070110000000 1.0
C      1  0.4728520000000  0.5998490000000  0.5369630000000 1.0
C      1  0.3883190000000  0.5067700000000  0.5338740000000 1.0
C      1  0.4584760000000  0.4906820000000  0.4318330000000 1.0
C      1  0.5615610000000  0.4335100000000  0.4435560000000 1.0
C      1  0.5728800000000  0.4187480000000  0.4857340000000 1.0
C      1  0.4311300000000  0.5399960000000  0.4322480000000 1.0
C      1  0.4323370000000  0.4626450000000  0.4204260000000 1.0
C      1  0.4387240000000  0.3994790000000  0.4729290000000 1.0
C      1  0.4376830000000  0.4415300000000  0.4992350000000 1.0
C      1  0.5136570000000  0.5701650000000  0.5301730000000 1.0
C      1  0.4475740000000  0.5698150000000  0.4320840000000 1.0
C      1  0.5493200000000  0.4608990000000  0.5998640000000 1.0
C      1  0.5545570000000  0.4694550000000  0.4279640000000 1.0
C      1  0.4309690000000  0.5884030000000  0.4830150000000 1.0
C      1  0.4824950000000  0.3935700000000  0.5236120000000 1.0
C      1  0.5075150000000  0.4121210000000  0.4986400000000 1.0
C      1  0.4421710000000  0.4911740000000  0.4039170000000 1.0
C      1  0.5377020000000  0.4710920000000  0.4564450000000 1.0
C      1  0.4452670000000  0.4248500000000  0.5341860000000 1.0
C      1  0.5083400000000  0.4749560000000  0.4393930000000 1.0
C      1  0.5479510000000  0.4854520000000  0.6149200000000 1.0
C      1  0.4514170000000  0.5951640000000  0.5598660000000 1.0
C      1  0.5067520000000  0.4615220000000  0.5009290000000 1.0
C      1  0.4821430000000  0.5705020000000  0.4741420000000 1.0
C      1  0.4188960000000  0.5476280000000  0.5494590000000 1.0
C      1  0.5399820000000  0.4920900000000  0.5763520000000 1.0
C      1  0.5302580000000  0.4034450000000  0.4619310000000 1.0
C      1  0.4675440000000  0.5521620000000  0.4023500000000 1.0
C      1  0.4377770000000  0.4594640000000  0.4636230000000 1.0
C      1  0.4095190000000  0.4651250000000  0.4455810000000 1.0
C      1  0.4332340000000  0.4090130000000  0.5079530000000 1.0
C      1  0.4200220000000  0.4903510000000  0.5071480000000 1.0
C      1  0.4693520000000  0.4645800000000  0.5656150000000 1.0
C      1  0.4834610000000  0.5073060000000  0.5730440000000 1.0
C      1  0.5572600000000  0.4431290000000  0.5017120000000 1.0
C      1  0.5677230000000  0.4168060000000  0.5553030000000 1.0
C      1  0.4941000000000  0.4319630000000  0.5973910000000 1.0
C      1  0.4780770000000  0.4735320000000  0.5171760000000 1.0
C      1  0.4110790000000  0.5033070000000  0.5772180000000 1.0
C      1  0.5237390000000  0.4627390000000  0.5820550000000 1.0
C      1  0.4621030000000  0.5728920000000  0.5767670000000 1.0
C      1  0.6006360000000  0.5191730000000  0.5502060000000 1.0
C      1  0.5673190000000  0.4916110000000  0.3972770000000 1.0
C      1  0.5656620000000  0.5802550000000  0.5203470000000 1.0
C      1  0.5314760000000  0.3878870000000  0.4986740000000 1.0
C      1  0.4102880000000  0.4814810000000  0.5556170000000 1.0
C      1  0.4785870000000  0.4995450000000  0.4674570000000 1.0
C      1  0.3923780000000  0.5008340000000  0.4803460000000 1.0
C      1  0.5198560000000  0.4856200000000  0.5497120000000 1.0
C      1  0.5785400000000  0.5659560000000  0.4806430000000 1.0
C      1  0.4842980000000  0.5787620000000  0.5050280000000 1.0
C      1  0.5099510000000  0.6019430000000  0.5054970000000 1.0
C      1  0.5083810000000  0.5628390000000  0.4589260000000 1.0
C      1  0.5260640000000  0.5334070000000  0.4094210000000 1.0
C      1  0.5843260000000  0.5123150000000  0.4016850000000 1.0
C      1  0.5097140000000  0.4195170000000  0.4193200000000 1.0
C      1  0.4555980000000  0.4819800000000  0.4797080000000 1.0
C      1  0.4058920000000  0.4441080000000  0.4907980000000 1.0
C      1  0.6019660000000  0.4684620000000  0.5561850000000 1.0
C      1  0.5964000000000  0.4362240000000  0.5017500000000 1.0
C      1  0.4289460000000  0.5313060000000  0.5764710000000 1.0
C      1  0.4737760000000  0.4330750000000  0.5738620000000 1.0
C      1  0.4768610000000  0.5819370000000  0.4422480000000 1.0
C      1  0.4919240000000  0.4562150000000  0.4162240000000 1.0
C      1  0.5316450000000  0.4455200000000  0.4198930000000 1.0
C      1  0.4955790000000  0.6031950000000  0.4557140000000 1.0
C      1  0.5708710000000  0.5213060000000  0.4751840000000 1.0
C      1  0.4092680000000  0.5297820000000  0.4874620000000 1.0
C      1  0.4643600000000  0.5018220000000  0.5041630000000 1.0
C      1  0.5616880000000  0.5527020000000  0.4337310000000 1.0
C      1  0.5259520000000  0.4691530000000  0.4000620000000 1.0
C      1  0.4047100000000  0.4374540000000  0.4611890000000 1.0
C      1  0.5329880000000  0.4554450000000  0.5210240000000 1.0
C      1  0.6095420000000  0.5330520000000  0.4487750000000 1.0
C      1  0.3954110000000  0.4913680000000  0.4485360000000 1.0
C      1  0.5155290000000  0.5630380000000  0.4147910000000 1.0
C      1  0.5531110000000  0.4219180000000  0.5284570000000 1.0
C      1  0.5729940000000  0.4886740000000  0.5839740000000 1.0
C      1  0.4521820000000  0.5078450000000  0.5444840000000 1.0
C      1  0.5371530000000  0.5760500000000  0.4289660000000 1.0
C      1  0.5006690000000  0.4150670000000  0.5427160000000 1.0
C      1  0.5976320000000  0.5521090000000  0.5026560000000 1.0
C      1  0.5812510000000  0.5249750000000  0.4312020000000 1.0
C      1  0.4130110000000  0.5479850000000  0.4601070000000 1.0
C      1  0.4827230000000  0.5190650000000  0.5345520000000 1.0
C      1  0.5780170000000  0.5432360000000  0.5278830000000 1.0
C      1  0.4981910000000  0.5974820000000  0.5432420000000 1.0
C      1  0.5839040000000  0.4649830000000  0.5762500000000 1.0
C      1  0.5680670000000  0.5677210000000  0.5485490000000 1.0
C      1  0.5230000000000  0.5349680000000  0.5512870000000 1.0
C      1  0.4719360000000  0.5304340000000  0.4356170000000 1.0
C      1  0.5618750000000  0.4437350000000  0.5732910000000 1.0
C      1  0.5749740000000  0.5326440000000  0.5662420000000 1.0
C      1  0.4371460000000  0.4291470000000  0.4272830000000 1.0
C      1  0.5906280000000  0.5102240000000  0.5815210000000 1.0
C      1  0.4436660000000  0.4420800000000  0.5618410000000 1.0
C      1  0.4304640000000  0.5755200000000  0.5125840000000 1.0
C      1  0.5531080000000  0.3965830000000  0.4790360000000 1.0
C      1  0.5395290000000  0.5197790000000  0.4375970000000 1.0
C      1  0.4491330000000  0.5399160000000  0.5387990000000 1.0
C      1  0.4028900000000  0.5798020000000  0.4669130000000 1.0
C      1  0.4120690000000  0.5135110000000  0.4408580000000 1.0
C      1  0.6036350000000  0.5017150000000  0.4544850000000 1.0
C      1  0.4498030000000  0.5492460000000  0.5077400000000 1.0
C      1  0.4873350000000  0.5668900000000  0.4155460000000 1.0
C      1  0.4874600000000  0.4346510000000  0.4986730000000 1.0
C      1  0.4242420000000  0.4194870000000  0.4511220000000 1.0
END
