TITL C-2848509-3138-1 -0.000847443403146906 125000 -989.868921891479 0 0 188 (C1) n - 1
REM
REM in /home/bkarasulu/work/CARBON/AIRSS/Generating-Clusters/AIREBO/with-SteepDescent/Only-C1/SD-CG-opt/Try1-1.4A-POS3A/HFTN-CG
REM
REM
REM
REM
REM
REM ./C.cell (11c1c37f851c82e70ff6c80c92926a4b)
REM
REM compiler GCC version 9.2.1 20190827 (Red Hat 9.2.1-1)
REM options -cpp -mtune=generic -march=x86-64 -g -O0 -fpre-include=/usr/include/finclude/math-vector-fortran.h
REM seed -453148343 1075784089 -742558946 819389011 469076333 892091963 -1812511190 423631802 2125490869 1908626139 1680981480 -1570290428 -90408733 -1215244614 -132062760 -1818644483 -316572349 323386608 588825582 723524186 -1250368314 886936740 1804738018 971669098 1120118492 -403984962 -1109146048 1829522017 -2023594623 703642177 -2038525945 31167165 -738458102
REM
CELL 1.54180   50.00000   50.00000   50.00000   90.00000   90.00000   90.00000
LATT -1
SFAC C  
C      1  0.5252940000000  0.5381360000000  0.4821270000000 1.0
C      1  0.5341380000000  0.3911360000000  0.4917970000000 1.0
C      1  0.4552520000000  0.5092020000000  0.5074780000000 1.0
C      1  0.4858430000000  0.3835630000000  0.5174350000000 1.0
C      1  0.5228360000000  0.4664010000000  0.6149730000000 1.0
C      1  0.4655410000000  0.4667820000000  0.4507090000000 1.0
C      1  0.4278030000000  0.5123340000000  0.5218020000000 1.0
C      1  0.6085570000000  0.4712840000000  0.4763370000000 1.0
C      1  0.4721540000000  0.4050010000000  0.4721050000000 1.0
C      1  0.5055250000000  0.4540320000000  0.5062500000000 1.0
C      1  0.4765890000000  0.5810130000000  0.5652330000000 1.0
C      1  0.4678430000000  0.4635060000000  0.4817920000000 1.0
C      1  0.5709050000000  0.4940160000000  0.4929410000000 1.0
C      1  0.4712740000000  0.4072850000000  0.4212060000000 1.0
C      1  0.4213790000000  0.5565390000000  0.4572520000000 1.0
C      1  0.3940560000000  0.5086550000000  0.5237130000000 1.0
C      1  0.4975230000000  0.5503330000000  0.5290480000000 1.0
C      1  0.4148840000000  0.4837230000000  0.5348730000000 1.0
C      1  0.5163300000000  0.4252890000000  0.5208930000000 1.0
C      1  0.4797960000000  0.4924510000000  0.4389450000000 1.0
C      1  0.4174200000000  0.4476350000000  0.5595260000000 1.0
C      1  0.5109630000000  0.4605760000000  0.4090950000000 1.0
C      1  0.4929820000000  0.5294610000000  0.4476020000000 1.0
C      1  0.5773470000000  0.5615020000000  0.4689250000000 1.0
C      1  0.4522330000000  0.4565980000000  0.5178410000000 1.0
C      1  0.5850350000000  0.4328470000000  0.4703800000000 1.0
C      1  0.4368040000000  0.4934630000000  0.4225270000000 1.0
C      1  0.5425010000000  0.6051380000000  0.4636610000000 1.0
C      1  0.5317360000000  0.4692760000000  0.4876970000000 1.0
C      1  0.5650020000000  0.4897950000000  0.4620940000000 1.0
C      1  0.4497140000000  0.4358290000000  0.5630270000000 1.0
C      1  0.5961550000000  0.4761750000000  0.5275430000000 1.0
C      1  0.5733580000000  0.4543090000000  0.5639570000000 1.0
C      1  0.4915600000000  0.6000510000000  0.4439890000000 1.0
C      1  0.5407950000000  0.5077140000000  0.4481550000000 1.0
C      1  0.5949840000000  0.5556110000000  0.5130460000000 1.0
C      1  0.4922260000000  0.4323380000000  0.5809920000000 1.0
C      1  0.4335190000000  0.5701720000000  0.5337510000000 1.0
C      1  0.5480070000000  0.5575970000000  0.5180510000000 1.0
C      1  0.5000020000000  0.5841990000000  0.5332330000000 1.0
C      1  0.5029200000000  0.4365750000000  0.4282990000000 1.0
C      1  0.5322950000000  0.4682410000000  0.5216820000000 1.0
C      1  0.4244130000000  0.5078880000000  0.5807540000000 1.0
C      1  0.4344180000000  0.4080860000000  0.4935980000000 1.0
C      1  0.4388800000000  0.4840750000000  0.4592400000000 1.0
C      1  0.4588460000000  0.5335430000000  0.4871340000000 1.0
C      1  0.4725130000000  0.5983870000000  0.5078840000000 1.0
C      1  0.5253280000000  0.5592530000000  0.4552910000000 1.0
C      1  0.3899290000000  0.4667580000000  0.4410550000000 1.0
C      1  0.5376820000000  0.5958500000000  0.5431590000000 1.0
C      1  0.5398210000000  0.5868280000000  0.4427630000000 1.0
C      1  0.5340960000000  0.4271760000000  0.4350300000000 1.0
C      1  0.4589870000000  0.4121910000000  0.5246940000000 1.0
C      1  0.5000120000000  0.5214360000000  0.6152780000000 1.0
C      1  0.4386580000000  0.4385500000000  0.4924000000000 1.0
C      1  0.4502040000000  0.5061820000000  0.3928990000000 1.0
C      1  0.4116150000000  0.4525280000000  0.4838360000000 1.0
C      1  0.5359050000000  0.5654910000000  0.4175180000000 1.0
C      1  0.4919790000000  0.5331470000000  0.4163380000000 1.0
C      1  0.5668550000000  0.5882700000000  0.5490390000000 1.0
C      1  0.4877390000000  0.4815750000000  0.5437400000000 1.0
C      1  0.4726080000000  0.5799250000000  0.4637920000000 1.0
C      1  0.4540240000000  0.5105090000000  0.5936170000000 1.0
C      1  0.4459450000000  0.4825140000000  0.4967420000000 1.0
C      1  0.5237600000000  0.4555680000000  0.5682970000000 1.0
C      1  0.5063390000000  0.5100890000000  0.4034870000000 1.0
C      1  0.4696890000000  0.5656050000000  0.4126190000000 1.0
C      1  0.4968860000000  0.4527180000000  0.4733830000000 1.0
C      1  0.4544770000000  0.4754480000000  0.5472710000000 1.0
C      1  0.4886740000000  0.4833210000000  0.4979260000000 1.0
C      1  0.4344240000000  0.5833110000000  0.4528190000000 1.0
C      1  0.5465700000000  0.4510910000000  0.4644580000000 1.0
C      1  0.5002710000000  0.4629860000000  0.5917570000000 1.0
C      1  0.5909700000000  0.4742110000000  0.4513340000000 1.0
C      1  0.3917640000000  0.4954340000000  0.4391810000000 1.0
C      1  0.4453340000000  0.5933670000000  0.4790170000000 1.0
C      1  0.5549730000000  0.4332450000000  0.5270570000000 1.0
C      1  0.4143460000000  0.5323940000000  0.5737400000000 1.0
C      1  0.4781170000000  0.4298230000000  0.5556590000000 1.0
C      1  0.5649380000000  0.5716920000000  0.4921210000000 1.0
C      1  0.5772400000000  0.5346160000000  0.5580800000000 1.0
C      1  0.5334720000000  0.4163520000000  0.4792100000000 1.0
C      1  0.4527130000000  0.4280540000000  0.4642330000000 1.0
C      1  0.4923050000000  0.5305260000000  0.4815840000000 1.0
C      1  0.5999070000000  0.5201260000000  0.5414770000000 1.0
C      1  0.5359350000000  0.5008130000000  0.5624060000000 1.0
C      1  0.4580460000000  0.5525380000000  0.5640400000000 1.0
C      1  0.4704870000000  0.5531480000000  0.5089070000000 1.0
C      1  0.4631680000000  0.4784030000000  0.3970080000000 1.0
C      1  0.4299480000000  0.3977940000000  0.5350020000000 1.0
C      1  0.5115910000000  0.5030620000000  0.4607260000000 1.0
C      1  0.5425850000000  0.4443470000000  0.6130690000000 1.0
C      1  0.4578210000000  0.5804770000000  0.4330510000000 1.0
C      1  0.4333910000000  0.4329000000000  0.5333370000000 1.0
C      1  0.4876000000000  0.4183850000000  0.5073710000000 1.0
C      1  0.5817850000000  0.5280350000000  0.4648250000000 1.0
C      1  0.4406570000000  0.5398520000000  0.4394860000000 1.0
C      1  0.4014530000000  0.5260240000000  0.4954320000000 1.0
C      1  0.5753390000000  0.5034830000000  0.5682480000000 1.0
C      1  0.5107760000000  0.4068490000000  0.5559020000000 1.0
C      1  0.5800030000000  0.5209690000000  0.4315950000000 1.0
C      1  0.5171920000000  0.6072670000000  0.4844510000000 1.0
C      1  0.5167610000000  0.3923800000000  0.5130980000000 1.0
C      1  0.4148540000000  0.4853890000000  0.4832650000000 1.0
C      1  0.5092400000000  0.4706700000000  0.4546790000000 1.0
C      1  0.5541490000000  0.4377440000000  0.4948040000000 1.0
C      1  0.4276090000000  0.5449090000000  0.4856280000000 1.0
C      1  0.4857540000000  0.4891650000000  0.5756160000000 1.0
C      1  0.5975000000000  0.5045410000000  0.5113310000000 1.0
C      1  0.5014410000000  0.4217230000000  0.4764890000000 1.0
C      1  0.4081400000000  0.5056140000000  0.4190950000000 1.0
C      1  0.5787070000000  0.4130510000000  0.5142760000000 1.0
C      1  0.5179550000000  0.5269450000000  0.5381210000000 1.0
C      1  0.5534310000000  0.4712470000000  0.4379330000000 1.0
C      1  0.4759860000000  0.5581370000000  0.5904530000000 1.0
C      1  0.5581080000000  0.4818460000000  0.4059590000000 1.0
C      1  0.5364950000000  0.4911910000000  0.6134040000000 1.0
C      1  0.5481820000000  0.5170940000000  0.4959200000000 1.0
C      1  0.5246470000000  0.5664710000000  0.5812800000000 1.0
C      1  0.4688800000000  0.4380170000000  0.4355530000000 1.0
C      1  0.5286340000000  0.5176030000000  0.6169170000000 1.0
C      1  0.5468010000000  0.5243800000000  0.5252560000000 1.0
C      1  0.4478600000000  0.4644450000000  0.5787600000000 1.0
C      1  0.5091070000000  0.5023430000000  0.5171230000000 1.0
C      1  0.5552400000000  0.5521190000000  0.5738340000000 1.0
C      1  0.5531220000000  0.5370700000000  0.4183890000000 1.0
C      1  0.5173970000000  0.5610570000000  0.5036280000000 1.0
C      1  0.4554470000000  0.5408580000000  0.6038970000000 1.0
C      1  0.5196490000000  0.4783890000000  0.5473620000000 1.0
C      1  0.5757330000000  0.5597730000000  0.5376240000000 1.0
C      1  0.5028420000000  0.5732360000000  0.4384870000000 1.0
C      1  0.4786640000000  0.5093030000000  0.5262750000000 1.0
C      1  0.4204160000000  0.5450350000000  0.5176240000000 1.0
C      1  0.4824770000000  0.3995500000000  0.5457890000000 1.0
C      1  0.5380230000000  0.5092020000000  0.4081600000000 1.0
C      1  0.3935170000000  0.5414440000000  0.4598680000000 1.0
C      1  0.4957660000000  0.5817090000000  0.4886350000000 1.0
C      1  0.4080610000000  0.4492220000000  0.4523630000000 1.0
C      1  0.3900950000000  0.4855890000000  0.5037390000000 1.0
C      1  0.4601460000000  0.3911690000000  0.4978030000000 1.0
C      1  0.4940290000000  0.4088630000000  0.4458860000000 1.0
C      1  0.5778110000000  0.4611230000000  0.4867390000000 1.0
C      1  0.3976590000000  0.5090740000000  0.4659600000000 1.0
C      1  0.5643150000000  0.4654430000000  0.5327780000000 1.0
C      1  0.4123700000000  0.4546720000000  0.5178090000000 1.0
C      1  0.4272130000000  0.5519530000000  0.5604810000000 1.0
C      1  0.5922870000000  0.4781980000000  0.5581900000000 1.0
C      1  0.5760790000000  0.5548200000000  0.4361250000000 1.0
C      1  0.5254230000000  0.4846600000000  0.4282520000000 1.0
C      1  0.5014430000000  0.6120010000000  0.5136900000000 1.0
C      1  0.5902550000000  0.4134320000000  0.4890250000000 1.0
C      1  0.5028320000000  0.5441730000000  0.5916010000000 1.0
C      1  0.4824520000000  0.4977220000000  0.6072720000000 1.0
C      1  0.5851980000000  0.4904840000000  0.4232030000000 1.0
C      1  0.5856720000000  0.4556270000000  0.4243530000000 1.0
C      1  0.5033700000000  0.5636270000000  0.4079480000000 1.0
C      1  0.4349330000000  0.4391100000000  0.4374310000000 1.0
C      1  0.5551910000000  0.5980230000000  0.4906840000000 1.0
C      1  0.4440500000000  0.4625550000000  0.4166050000000 1.0
C      1  0.5360720000000  0.5628790000000  0.5494570000000 1.0
C      1  0.4397970000000  0.5915070000000  0.5084050000000 1.0
C      1  0.4520160000000  0.5110040000000  0.4453210000000 1.0
C      1  0.6140290000000  0.5173960000000  0.4667960000000 1.0
C      1  0.5917220000000  0.5338980000000  0.4968160000000 1.0
C      1  0.4900460000000  0.4846760000000  0.4099350000000 1.0
C      1  0.5371770000000  0.4638300000000  0.3931740000000 1.0
C      1  0.5665020000000  0.4342700000000  0.4426310000000 1.0
C      1  0.4271150000000  0.5306370000000  0.4119790000000 1.0
C      1  0.5243930000000  0.4989360000000  0.4896640000000 1.0
C      1  0.5295540000000  0.4303610000000  0.5495050000000 1.0
C      1  0.4796180000000  0.5004700000000  0.4719980000000 1.0
C      1  0.5525470000000  0.4897360000000  0.5878180000000 1.0
C      1  0.5230930000000  0.5287460000000  0.5689940000000 1.0
C      1  0.4662280000000  0.5472440000000  0.4569030000000 1.0
C      1  0.4204030000000  0.4806750000000  0.5669740000000 1.0
C      1  0.6167310000000  0.4968380000000  0.4858830000000 1.0
C      1  0.4600310000000  0.5354610000000  0.4048400000000 1.0
C      1  0.4675970000000  0.4673930000000  0.6032740000000 1.0
C      1  0.5590630000000  0.4984430000000  0.5391150000000 1.0
C      1  0.5409050000000  0.5338090000000  0.5974140000000 1.0
C      1  0.5492180000000  0.5352160000000  0.4581340000000 1.0
C      1  0.4670360000000  0.5758540000000  0.5329860000000 1.0
C      1  0.5342050000000  0.6076620000000  0.5156510000000 1.0
C      1  0.4735110000000  0.5336300000000  0.5464140000000 1.0
C      1  0.4828260000000  0.4503130000000  0.5312900000000 1.0
C      1  0.5513350000000  0.4582850000000  0.5839380000000 1.0
C      1  0.5098850000000  0.5896700000000  0.5631190000000 1.0
C      1  0.4614430000000  0.5057010000000  0.5617550000000 1.0
END
