TITL C-2848496-4490-549 -0.00168857044524918 125000 -379.046116269971 0 0 70 (C1) n - 1
REM
REM in /home/bkarasulu/work/CARBON/AIRSS/Generating-Clusters/AIREBO/with-SteepDescent/Only-C1/SD-CG-opt/Try1-1.4A-POS3A/HFTN-CG
REM
REM
REM
REM
REM
REM ./C.cell (11c1c37f851c82e70ff6c80c92926a4b)
REM
REM compiler GCC version 9.2.1 20190827 (Red Hat 9.2.1-1)
REM options -cpp -mtune=generic -march=x86-64 -g -O0 -fpre-include=/usr/include/finclude/math-vector-fortran.h
REM seed -1923161590 772379510 416476561 -2050275329 1460061107 1731550657 1087491934 512001129 -1258170266 -334281801 845682546 -58564777 -777464288 -713480663 1045840503 -1793533887 2056669861 497333656 849473124 1147633483 1486781703 -449798263 -1315918524 2121045791 -1004596254 -1414075186 -759076012 -1098090157 -419746844 34820092 815821693 -822624177 1521002222
REM
CELL 1.54180   50.00000   50.00000   50.00000   90.00000   90.00000   90.00000
LATT -1
SFAC C  
C      1  0.5853570000000  0.5469920000000  0.5701860000000 1.0
C      1  0.4608620000000  0.5489250000000  0.4684680000000 1.0
C      1  0.4688950000000  0.4819860000000  0.4892900000000 1.0
C      1  0.5401840000000  0.4857160000000  0.5101150000000 1.0
C      1  0.4062030000000  0.4810630000000  0.5160130000000 1.0
C      1  0.4958180000000  0.5767470000000  0.5398030000000 1.0
C      1  0.5713160000000  0.4657400000000  0.4799410000000 1.0
C      1  0.5319960000000  0.4626060000000  0.4371650000000 1.0
C      1  0.4788460000000  0.4936770000000  0.5363750000000 1.0
C      1  0.4251600000000  0.5308810000000  0.5257650000000 1.0
C      1  0.5356660000000  0.4626940000000  0.5316440000000 1.0
C      1  0.5005810000000  0.4223850000000  0.4436940000000 1.0
C      1  0.5351150000000  0.5502560000000  0.5543590000000 1.0
C      1  0.5618560000000  0.4930190000000  0.5528670000000 1.0
C      1  0.4843930000000  0.5418670000000  0.4504210000000 1.0
C      1  0.4944380000000  0.4941540000000  0.5662610000000 1.0
C      1  0.4742040000000  0.5202950000000  0.5655910000000 1.0
C      1  0.4937140000000  0.5035290000000  0.4805500000000 1.0
C      1  0.5426980000000  0.5380980000000  0.4447720000000 1.0
C      1  0.5325950000000  0.5064990000000  0.4722300000000 1.0
C      1  0.4921900000000  0.5969390000000  0.5151200000000 1.0
C      1  0.5139820000000  0.4471610000000  0.5848500000000 1.0
C      1  0.4942430000000  0.5239420000000  0.5397060000000 1.0
C      1  0.5086040000000  0.4973350000000  0.5970050000000 1.0
C      1  0.4935720000000  0.5334600000000  0.5070490000000 1.0
C      1  0.5495130000000  0.5059900000000  0.4427380000000 1.0
C      1  0.5183840000000  0.5105820000000  0.5028580000000 1.0
C      1  0.4421250000000  0.5469610000000  0.5155780000000 1.0
C      1  0.4138380000000  0.5036280000000  0.4524360000000 1.0
C      1  0.5094920000000  0.5509080000000  0.5442830000000 1.0
C      1  0.4474900000000  0.5052200000000  0.4914730000000 1.0
C      1  0.4847320000000  0.5121790000000  0.4425920000000 1.0
C      1  0.4638260000000  0.4945770000000  0.4393010000000 1.0
C      1  0.4986200000000  0.3969610000000  0.4447070000000 1.0
C      1  0.5607360000000  0.5496280000000  0.5616000000000 1.0
C      1  0.5124770000000  0.4687110000000  0.4713870000000 1.0
C      1  0.5543510000000  0.4594400000000  0.4540640000000 1.0
C      1  0.5765550000000  0.4697810000000  0.5055590000000 1.0
C      1  0.4948750000000  0.5654020000000  0.5100120000000 1.0
C      1  0.5041330000000  0.5360560000000  0.4748280000000 1.0
C      1  0.4901090000000  0.4795260000000  0.5120680000000 1.0
C      1  0.5188680000000  0.4730430000000  0.5755180000000 1.0
C      1  0.5096520000000  0.4962070000000  0.4515790000000 1.0
C      1  0.5010580000000  0.4529890000000  0.4447290000000 1.0
C      1  0.4918900000000  0.5608920000000  0.4315550000000 1.0
C      1  0.4498300000000  0.4637880000000  0.4592030000000 1.0
C      1  0.4497840000000  0.4864030000000  0.5376650000000 1.0
C      1  0.5320090000000  0.4362690000000  0.5260180000000 1.0
C      1  0.5329330000000  0.5460610000000  0.4701600000000 1.0
C      1  0.5355130000000  0.4862050000000  0.4229220000000 1.0
C      1  0.4387480000000  0.4952440000000  0.4613860000000 1.0
C      1  0.5739360000000  0.5179420000000  0.4988850000000 1.0
C      1  0.4618190000000  0.5334600000000  0.4945690000000 1.0
C      1  0.4304510000000  0.5013680000000  0.5178830000000 1.0
C      1  0.5892240000000  0.5073530000000  0.4782610000000 1.0
C      1  0.4400420000000  0.5624220000000  0.4603820000000 1.0
C      1  0.5136090000000  0.4712190000000  0.4994270000000 1.0
C      1  0.4542300000000  0.5310630000000  0.5771980000000 1.0
C      1  0.5733280000000  0.4889950000000  0.4564510000000 1.0
C      1  0.4732150000000  0.4648860000000  0.4385880000000 1.0
C      1  0.5507450000000  0.5296420000000  0.4892910000000 1.0
C      1  0.4558610000000  0.4529570000000  0.4869060000000 1.0
C      1  0.5684930000000  0.4974550000000  0.5219600000000 1.0
C      1  0.4591170000000  0.4197870000000  0.4939710000000 1.0
C      1  0.5259570000000  0.4112950000000  0.5208150000000 1.0
C      1  0.5411300000000  0.4751910000000  0.5562950000000 1.0
C      1  0.4891150000000  0.6211340000000  0.5058140000000 1.0
C      1  0.4138740000000  0.4559850000000  0.5246110000000 1.0
C      1  0.4414900000000  0.4591340000000  0.5401450000000 1.0
C      1  0.4403310000000  0.4400980000000  0.5130860000000 1.0
END
