TITL C-2848502-4955-614 0.00731979949894334 125000 -1023.11821403314 0 0 190 (C1) n - 1
REM
REM in /home/bkarasulu/work/CARBON/AIRSS/Generating-Clusters/AIREBO/with-SteepDescent/Only-C1/SD-CG-opt/Try1-1.4A-POS3A/HFTN-CG
REM
REM
REM
REM
REM
REM ./C.cell (11c1c37f851c82e70ff6c80c92926a4b)
REM
REM compiler GCC version 9.2.1 20190827 (Red Hat 9.2.1-1)
REM options -cpp -mtune=generic -march=x86-64 -g -O0 -fpre-include=/usr/include/finclude/math-vector-fortran.h
REM seed -34942977 1838969273 414314487 466749195 578454325 -1623321723 1831324769 1494268408 -1458708512 1609971223 -293326119 -2019225213 -1403692375 623994589 -59415120 387087457 -123756599 488114219 -2073765808 -1199850835 757294813 -1252500812 -632501024 -1241767985 1366367044 189143578 1268155283 -1644077517 -360797187 1017341596 2043488480 -561085053 -1963497379
REM
CELL 1.54180   50.00000   50.00000   50.00000   90.00000   90.00000   90.00000
LATT -1
SFAC C  
C      1  0.5389130000000  0.5047900000000  0.6048780000000 1.0
C      1  0.4045590000000  0.4992750000000  0.4539540000000 1.0
C      1  0.4949280000000  0.5451720000000  0.5977370000000 1.0
C      1  0.5499450000000  0.4356110000000  0.4668960000000 1.0
C      1  0.5394530000000  0.5552170000000  0.4173930000000 1.0
C      1  0.4381570000000  0.3812490000000  0.5199840000000 1.0
C      1  0.5562110000000  0.5660550000000  0.4419030000000 1.0
C      1  0.4530660000000  0.5453640000000  0.5361280000000 1.0
C      1  0.5229550000000  0.4345070000000  0.5098860000000 1.0
C      1  0.5999700000000  0.4578190000000  0.5286160000000 1.0
C      1  0.5985490000000  0.4516110000000  0.4634250000000 1.0
C      1  0.4955430000000  0.6014490000000  0.5055650000000 1.0
C      1  0.4238070000000  0.4290330000000  0.4620590000000 1.0
C      1  0.4589870000000  0.5926740000000  0.5460370000000 1.0
C      1  0.5829520000000  0.5676140000000  0.4935550000000 1.0
C      1  0.4486860000000  0.4558300000000  0.5352520000000 1.0
C      1  0.5284620000000  0.5156900000000  0.5510930000000 1.0
C      1  0.4975350000000  0.4256770000000  0.4253540000000 1.0
C      1  0.5515090000000  0.4910380000000  0.5469280000000 1.0
C      1  0.4497110000000  0.5379600000000  0.5778810000000 1.0
C      1  0.5364510000000  0.5673980000000  0.4701700000000 1.0
C      1  0.4075480000000  0.5454570000000  0.4776690000000 1.0
C      1  0.4309340000000  0.5895890000000  0.5299990000000 1.0
C      1  0.4945180000000  0.5978780000000  0.4547730000000 1.0
C      1  0.4395030000000  0.5122700000000  0.5580100000000 1.0
C      1  0.4827750000000  0.4461410000000  0.3943220000000 1.0
C      1  0.5727710000000  0.4710490000000  0.4264150000000 1.0
C      1  0.5136660000000  0.4050810000000  0.5402390000000 1.0
C      1  0.4791200000000  0.4936410000000  0.4576920000000 1.0
C      1  0.4595320000000  0.4048850000000  0.4709600000000 1.0
C      1  0.5572250000000  0.5065700000000  0.4259610000000 1.0
C      1  0.4956610000000  0.4431130000000  0.4929900000000 1.0
C      1  0.4095380000000  0.5152170000000  0.5462560000000 1.0
C      1  0.5387710000000  0.4986560000000  0.4822180000000 1.0
C      1  0.5090120000000  0.4072560000000  0.5706620000000 1.0
C      1  0.5318060000000  0.5372640000000  0.4551150000000 1.0
C      1  0.5067710000000  0.5574680000000  0.4139160000000 1.0
C      1  0.5019320000000  0.5417490000000  0.5139890000000 1.0
C      1  0.4292670000000  0.5371840000000  0.5025010000000 1.0
C      1  0.5006250000000  0.5917520000000  0.5677670000000 1.0
C      1  0.5296230000000  0.4785870000000  0.5080940000000 1.0
C      1  0.4068920000000  0.5414030000000  0.5251770000000 1.0
C      1  0.4786170000000  0.4449050000000  0.5841060000000 1.0
C      1  0.4989360000000  0.4987590000000  0.5511450000000 1.0
C      1  0.4338170000000  0.5235370000000  0.4421760000000 1.0
C      1  0.5399170000000  0.4820570000000  0.5839820000000 1.0
C      1  0.4022720000000  0.4924880000000  0.5242050000000 1.0
C      1  0.5707430000000  0.5269090000000  0.5772070000000 1.0
C      1  0.4234540000000  0.4728440000000  0.5200820000000 1.0
C      1  0.4506380000000  0.4882560000000  0.5119390000000 1.0
C      1  0.4067550000000  0.4489960000000  0.4836900000000 1.0
C      1  0.4823400000000  0.5639190000000  0.5066420000000 1.0
C      1  0.5514070000000  0.5574360000000  0.5302160000000 1.0
C      1  0.5114390000000  0.3964810000000  0.4738280000000 1.0
C      1  0.5169190000000  0.5141830000000  0.5830600000000 1.0
C      1  0.5941540000000  0.4469150000000  0.4968520000000 1.0
C      1  0.5153560000000  0.4537900000000  0.4323370000000 1.0
C      1  0.4740110000000  0.5823200000000  0.5725490000000 1.0
C      1  0.4600170000000  0.4928290000000  0.5443180000000 1.0
C      1  0.4937560000000  0.4799980000000  0.4303850000000 1.0
C      1  0.5867610000000  0.5497700000000  0.5470120000000 1.0
C      1  0.5450290000000  0.4807060000000  0.4396040000000 1.0
C      1  0.5789820000000  0.4429810000000  0.5509410000000 1.0
C      1  0.3915770000000  0.5158440000000  0.4724000000000 1.0
C      1  0.3842910000000  0.4975540000000  0.4962650000000 1.0
C      1  0.4829810000000  0.4729160000000  0.3823470000000 1.0
C      1  0.5563420000000  0.5351970000000  0.5514720000000 1.0
C      1  0.5157690000000  0.4745310000000  0.5681240000000 1.0
C      1  0.4275550000000  0.4671870000000  0.5889930000000 1.0
C      1  0.5482760000000  0.5300110000000  0.4073710000000 1.0
C      1  0.5960680000000  0.4746880000000  0.4437220000000 1.0
C      1  0.4663390000000  0.5201340000000  0.4496210000000 1.0
C      1  0.5906850000000  0.4840880000000  0.5481260000000 1.0
C      1  0.4795660000000  0.5753130000000  0.4752160000000 1.0
C      1  0.5139130000000  0.4544810000000  0.4666440000000 1.0
C      1  0.5149810000000  0.4559200000000  0.3991820000000 1.0
C      1  0.3568170000000  0.4561290000000  0.4857380000000 1.0
C      1  0.4318320000000  0.5509740000000  0.5549050000000 1.0
C      1  0.4536020000000  0.5204060000000  0.5169140000000 1.0
C      1  0.5634800000000  0.4143440000000  0.5452330000000 1.0
C      1  0.4969270000000  0.5277790000000  0.3998310000000 1.0
C      1  0.4276440000000  0.4964770000000  0.5893170000000 1.0
C      1  0.4536840000000  0.4943810000000  0.4080510000000 1.0
C      1  0.4570970000000  0.5584990000000  0.4559910000000 1.0
C      1  0.4903920000000  0.4468610000000  0.5331610000000 1.0
C      1  0.6125020000000  0.5351330000000  0.5301400000000 1.0
C      1  0.5148640000000  0.5219000000000  0.4348190000000 1.0
C      1  0.5620300000000  0.4472930000000  0.5228980000000 1.0
C      1  0.5532740000000  0.4456680000000  0.5740820000000 1.0
C      1  0.4425260000000  0.5844820000000  0.4630270000000 1.0
C      1  0.5475110000000  0.4408730000000  0.4333810000000 1.0
C      1  0.4439790000000  0.4269710000000  0.4916400000000 1.0
C      1  0.4871880000000  0.5407600000000  0.4361280000000 1.0
C      1  0.4894220000000  0.4003880000000  0.5206280000000 1.0
C      1  0.5958970000000  0.5573940000000  0.5151530000000 1.0
C      1  0.5605620000000  0.4792010000000  0.5183530000000 1.0
C      1  0.4441410000000  0.5201980000000  0.4127650000000 1.0
C      1  0.4850830000000  0.4961370000000  0.4041860000000 1.0
C      1  0.5233450000000  0.5837660000000  0.4971550000000 1.0
C      1  0.5302190000000  0.4455990000000  0.5992480000000 1.0
C      1  0.5173440000000  0.4928910000000  0.4458240000000 1.0
C      1  0.5832970000000  0.5455080000000  0.4433770000000 1.0
C      1  0.4798200000000  0.4986380000000  0.5792720000000 1.0
C      1  0.5447350000000  0.5355010000000  0.5073140000000 1.0
C      1  0.4571400000000  0.4265340000000  0.5649100000000 1.0
C      1  0.5237870000000  0.5098150000000  0.4043000000000 1.0
C      1  0.5698020000000  0.5932120000000  0.4847630000000 1.0
C      1  0.4432600000000  0.4556260000000  0.5688230000000 1.0
C      1  0.4644340000000  0.5680250000000  0.5269360000000 1.0
C      1  0.4932700000000  0.3972950000000  0.4299850000000 1.0
C      1  0.4289320000000  0.5679420000000  0.4293310000000 1.0
C      1  0.5771410000000  0.4016570000000  0.5252130000000 1.0
C      1  0.5872800000000  0.5002750000000  0.4829990000000 1.0
C      1  0.5207970000000  0.5844180000000  0.5843360000000 1.0
C      1  0.5052420000000  0.5022350000000  0.4776970000000 1.0
C      1  0.4870390000000  0.4103120000000  0.4904290000000 1.0
C      1  0.4797750000000  0.5227950000000  0.4869110000000 1.0
C      1  0.4858530000000  0.4783710000000  0.5275580000000 1.0
C      1  0.4141400000000  0.5693040000000  0.5405870000000 1.0
C      1  0.5187680000000  0.5662300000000  0.5265460000000 1.0
C      1  0.6019540000000  0.5007350000000  0.4558400000000 1.0
C      1  0.5733560000000  0.4704350000000  0.4879940000000 1.0
C      1  0.5269350000000  0.5109090000000  0.5183400000000 1.0
C      1  0.5008230000000  0.4914230000000  0.6025450000000 1.0
C      1  0.5445220000000  0.4688910000000  0.4700280000000 1.0
C      1  0.5613540000000  0.5486090000000  0.4836960000000 1.0
C      1  0.4191790000000  0.5483690000000  0.4484590000000 1.0
C      1  0.4558640000000  0.4051790000000  0.5148950000000 1.0
C      1  0.4855390000000  0.3903100000000  0.4555750000000 1.0
C      1  0.5341140000000  0.4307410000000  0.5502760000000 1.0
C      1  0.4936040000000  0.5472670000000  0.4677800000000 1.0
C      1  0.5187010000000  0.5480070000000  0.5552620000000 1.0
C      1  0.4204630000000  0.4396790000000  0.5126710000000 1.0
C      1  0.4205850000000  0.5766780000000  0.4815430000000 1.0
C      1  0.4851760000000  0.5211910000000  0.5295110000000 1.0
C      1  0.5217520000000  0.4572630000000  0.5329540000000 1.0
C      1  0.4623080000000  0.4368060000000  0.4112810000000 1.0
C      1  0.4390480000000  0.4717980000000  0.4164620000000 1.0
C      1  0.5300590000000  0.4842140000000  0.3927250000000 1.0
C      1  0.5607810000000  0.5960240000000  0.4573000000000 1.0
C      1  0.6254030000000  0.4803820000000  0.5291500000000 1.0
C      1  0.4508500000000  0.5338210000000  0.4766260000000 1.0
C      1  0.4625370000000  0.6080820000000  0.4601710000000 1.0
C      1  0.5597320000000  0.5268910000000  0.4485090000000 1.0
C      1  0.4363060000000  0.4974050000000  0.4617500000000 1.0
C      1  0.3811970000000  0.5196230000000  0.5204310000000 1.0
C      1  0.4725990000000  0.4208330000000  0.5398880000000 1.0
C      1  0.4253000000000  0.4674890000000  0.4660010000000 1.0
C      1  0.4580360000000  0.4832580000000  0.4822980000000 1.0
C      1  0.5055900000000  0.5865560000000  0.4249880000000 1.0
C      1  0.3807390000000  0.4666190000000  0.4880050000000 1.0
C      1  0.4543650000000  0.4527170000000  0.4719970000000 1.0
C      1  0.4549960000000  0.5105900000000  0.5928810000000 1.0
C      1  0.4728540000000  0.5568830000000  0.5841900000000 1.0
C      1  0.6052290000000  0.5279990000000  0.4451150000000 1.0
C      1  0.5381210000000  0.4051570000000  0.4587970000000 1.0
C      1  0.5251340000000  0.5529130000000  0.5871780000000 1.0
C      1  0.5897990000000  0.5079930000000  0.5723040000000 1.0
C      1  0.4737270000000  0.4381980000000  0.4547310000000 1.0
C      1  0.5670340000000  0.4755430000000  0.5702380000000 1.0
C      1  0.4722150000000  0.4704280000000  0.5641120000000 1.0
C      1  0.5498000000000  0.5320550000000  0.5964320000000 1.0
C      1  0.5497200000000  0.5989830000000  0.5042380000000 1.0
C      1  0.4571340000000  0.4150090000000  0.4385350000000 1.0
C      1  0.6165530000000  0.5086490000000  0.5276530000000 1.0
C      1  0.5038540000000  0.4256130000000  0.4579770000000 1.0
C      1  0.4570890000000  0.5498960000000  0.4231900000000 1.0
C      1  0.4977570000000  0.4765750000000  0.4987100000000 1.0
C      1  0.5934040000000  0.5680310000000  0.5671450000000 1.0
C      1  0.5782110000000  0.4360870000000  0.4485690000000 1.0
C      1  0.5183600000000  0.5327630000000  0.4860260000000 1.0
C      1  0.5481310000000  0.4594440000000  0.4059880000000 1.0
C      1  0.5000830000000  0.4602650000000  0.6055810000000 1.0
C      1  0.4159990000000  0.4761310000000  0.4349500000000 1.0
C      1  0.5506510000000  0.4286140000000  0.4970230000000 1.0
C      1  0.4660390000000  0.4457130000000  0.5094950000000 1.0
C      1  0.5102140000000  0.4412090000000  0.5720970000000 1.0
C      1  0.4038400000000  0.5096960000000  0.5757060000000 1.0
C      1  0.5618310000000  0.5158880000000  0.4772450000000 1.0
C      1  0.5552250000000  0.5894430000000  0.5298020000000 1.0
C      1  0.4639310000000  0.5996980000000  0.4930930000000 1.0
C      1  0.5799500000000  0.4177650000000  0.5031680000000 1.0
C      1  0.4927080000000  0.5226420000000  0.6133260000000 1.0
C      1  0.4777050000000  0.6145760000000  0.5313620000000 1.0
C      1  0.4309070000000  0.4279350000000  0.5431240000000 1.0
C      1  0.4356590000000  0.5903850000000  0.5028150000000 1.0
C      1  0.5035110000000  0.5932730000000  0.5375970000000 1.0
C      1  0.5277960000000  0.5930310000000  0.4495680000000 1.0
C      1  0.5906270000000  0.4944970000000  0.5157070000000 1.0
C      1  0.4380590000000  0.4428430000000  0.4343460000000 1.0
END
