TITL C-2848506-1665-425 -0.000703371741287204 125000 -241.165934877002 0 0 42 (C1) n - 1
REM
REM in /home/bkarasulu/work/CARBON/AIRSS/Generating-Clusters/AIREBO/with-SteepDescent/Only-C1/SD-CG-opt/Try1-1.4A-POS3A/HFTN-CG
REM
REM
REM
REM
REM
REM ./C.cell (11c1c37f851c82e70ff6c80c92926a4b)
REM
REM compiler GCC version 9.2.1 20190827 (Red Hat 9.2.1-1)
REM options -cpp -mtune=generic -march=x86-64 -g -O0 -fpre-include=/usr/include/finclude/math-vector-fortran.h
REM seed -87781591 1906803473 -1323264249 635186263 -1990662059 -1763363851 -1430273145 1053068801 1981941072 -1351926459 -833541416 2121026286 -1979793505 -1630171319 200970387 1544664754 -1155467335 686535039 -1279254291 2060103062 1055870250 -522487610 -555661712 357662859 -2055592767 -1785594828 2079729970 1600330323 982695103 1172832634 -1160323709 -262758317 1011473617
REM
CELL 1.54180   50.00000   50.00000   50.00000   90.00000   90.00000   90.00000
LATT -1
SFAC C  
C      1  0.4624100000000  0.4736550000000  0.4848230000000 1.0
C      1  0.4853910000000  0.4794040000000  0.5459380000000 1.0
C      1  0.4930030000000  0.5600970000000  0.5607910000000 1.0
C      1  0.5462600000000  0.5247950000000  0.4533170000000 1.0
C      1  0.5300090000000  0.4511050000000  0.5074350000000 1.0
C      1  0.4936630000000  0.5846220000000  0.5734780000000 1.0
C      1  0.4765700000000  0.5375990000000  0.4889520000000 1.0
C      1  0.4825460000000  0.4586170000000  0.5012560000000 1.0
C      1  0.5402150000000  0.4908600000000  0.5552350000000 1.0
C      1  0.4845960000000  0.4951710000000  0.4122300000000 1.0
C      1  0.4934180000000  0.6089180000000  0.5833080000000 1.0
C      1  0.5561970000000  0.4805630000000  0.5347770000000 1.0
C      1  0.4614290000000  0.4616690000000  0.4554300000000 1.0
C      1  0.5258350000000  0.5196340000000  0.5506480000000 1.0
C      1  0.4403760000000  0.4877830000000  0.5308380000000 1.0
C      1  0.5115570000000  0.4447320000000  0.4561550000000 1.0
C      1  0.4388200000000  0.4806660000000  0.4997540000000 1.0
C      1  0.5083290000000  0.4918920000000  0.5536440000000 1.0
C      1  0.4617580000000  0.5180500000000  0.5615530000000 1.0
C      1  0.4746990000000  0.5248880000000  0.4636170000000 1.0
C      1  0.5064630000000  0.4869820000000  0.4826680000000 1.0
C      1  0.4977210000000  0.5346540000000  0.4444120000000 1.0
C      1  0.4493060000000  0.5291980000000  0.4514880000000 1.0
C      1  0.5142600000000  0.5496930000000  0.5470470000000 1.0
C      1  0.5486280000000  0.4969260000000  0.4606320000000 1.0
C      1  0.5393610000000  0.5258090000000  0.4998170000000 1.0
C      1  0.4703470000000  0.5436660000000  0.5616120000000 1.0
C      1  0.5458870000000  0.4741730000000  0.5095180000000 1.0
C      1  0.5360770000000  0.4960000000000  0.4898630000000 1.0
C      1  0.5367140000000  0.4495400000000  0.4444650000000 1.0
C      1  0.4884790000000  0.4500300000000  0.4420670000000 1.0
C      1  0.4887240000000  0.4568360000000  0.5289000000000 1.0
C      1  0.5238620000000  0.5323600000000  0.4380140000000 1.0
C      1  0.4611330000000  0.4937250000000  0.5477520000000 1.0
C      1  0.5503410000000  0.5400140000000  0.4774570000000 1.0
C      1  0.4801310000000  0.4816750000000  0.4352450000000 1.0
C      1  0.5513080000000  0.4726200000000  0.4475370000000 1.0
C      1  0.5142490000000  0.4430750000000  0.5303290000000 1.0
C      1  0.5096550000000  0.4546520000000  0.4840210000000 1.0
C      1  0.4808040000000  0.4948860000000  0.4656570000000 1.0
C      1  0.5279150000000  0.5346870000000  0.5218740000000 1.0
C      1  0.4115560000000  0.4840790000000  0.5164470000000 1.0
END
