TITL C-2848502-4955-705 -0.00112589002928712 125000 -639.068361306123 0 0 117 (C1) n - 1
REM
REM in /home/bkarasulu/work/CARBON/AIRSS/Generating-Clusters/AIREBO/with-SteepDescent/Only-C1/SD-CG-opt/Try1-1.4A-POS3A/HFTN-CG
REM
REM
REM
REM
REM
REM ./C.cell (11c1c37f851c82e70ff6c80c92926a4b)
REM
REM compiler GCC version 9.2.1 20190827 (Red Hat 9.2.1-1)
REM options -cpp -mtune=generic -march=x86-64 -g -O0 -fpre-include=/usr/include/finclude/math-vector-fortran.h
REM seed 302377652 1642942030 75661358 1816738722 -2141337411 -1836217042 -234162596 1326691720 -620156320 528234234 -199392418 1173729583 1375024947 -793191325 1646706687 392385216 441565388 -164773114 -301863158 -503705167 1284487788 1182346602 -327294743 -1534159667 -1671637074 -1478160919 1514172467 1424353473 631890157 -23776747 385156076 461933905 247338671
REM
CELL 1.54180   50.00000   50.00000   50.00000   90.00000   90.00000   90.00000
LATT -1
SFAC C  
C      1  0.4278890000000  0.5533730000000  0.4839800000000 1.0
C      1  0.5306860000000  0.4196960000000  0.4467300000000 1.0
C      1  0.5783230000000  0.5174150000000  0.4291210000000 1.0
C      1  0.4316430000000  0.5056420000000  0.5368430000000 1.0
C      1  0.5314410000000  0.4168110000000  0.5005230000000 1.0
C      1  0.5289900000000  0.5191260000000  0.4948180000000 1.0
C      1  0.4485930000000  0.5148640000000  0.4372540000000 1.0
C      1  0.4612280000000  0.5013000000000  0.6083510000000 1.0
C      1  0.4848380000000  0.4945560000000  0.4691620000000 1.0
C      1  0.5467950000000  0.4979320000000  0.4627950000000 1.0
C      1  0.5795400000000  0.4469060000000  0.5157930000000 1.0
C      1  0.5043390000000  0.4104490000000  0.5040890000000 1.0
C      1  0.4525730000000  0.4142340000000  0.5249740000000 1.0
C      1  0.5564080000000  0.5240520000000  0.4521110000000 1.0
C      1  0.4812420000000  0.5616850000000  0.4898980000000 1.0
C      1  0.5164430000000  0.4933720000000  0.5100810000000 1.0
C      1  0.5509770000000  0.5153570000000  0.4136480000000 1.0
C      1  0.4251940000000  0.4761770000000  0.5422030000000 1.0
C      1  0.5596170000000  0.5432410000000  0.5026010000000 1.0
C      1  0.4136690000000  0.5150680000000  0.5115570000000 1.0
C      1  0.5255450000000  0.4264850000000  0.5447230000000 1.0
C      1  0.5998200000000  0.5014290000000  0.4368060000000 1.0
C      1  0.5725520000000  0.4638610000000  0.5398800000000 1.0
C      1  0.5451410000000  0.5241130000000  0.5666720000000 1.0
C      1  0.4257450000000  0.5036200000000  0.4830830000000 1.0
C      1  0.5382330000000  0.4901310000000  0.4132480000000 1.0
C      1  0.5096220000000  0.4787620000000  0.4022770000000 1.0
C      1  0.4839210000000  0.5212410000000  0.5726500000000 1.0
C      1  0.5205600000000  0.4913430000000  0.4489970000000 1.0
C      1  0.5449730000000  0.4915300000000  0.5608180000000 1.0
C      1  0.4446040000000  0.4622730000000  0.5569410000000 1.0
C      1  0.4957380000000  0.5431970000000  0.5923650000000 1.0
C      1  0.4954160000000  0.5467650000000  0.5133290000000 1.0
C      1  0.4821380000000  0.5582840000000  0.4340700000000 1.0
C      1  0.4811540000000  0.4736570000000  0.4203530000000 1.0
C      1  0.5640200000000  0.5832000000000  0.4733150000000 1.0
C      1  0.5335360000000  0.4258610000000  0.4175250000000 1.0
C      1  0.4497550000000  0.5701730000000  0.4883520000000 1.0
C      1  0.4871280000000  0.4239830000000  0.4864870000000 1.0
C      1  0.4281130000000  0.5118560000000  0.5760560000000 1.0
C      1  0.4852180000000  0.4549790000000  0.4958480000000 1.0
C      1  0.4720400000000  0.3955090000000  0.5305150000000 1.0
C      1  0.4963870000000  0.4903260000000  0.5787760000000 1.0
C      1  0.5156060000000  0.5950410000000  0.4756540000000 1.0
C      1  0.5407910000000  0.5021160000000  0.5916060000000 1.0
C      1  0.3883440000000  0.4384440000000  0.4860240000000 1.0
C      1  0.4593080000000  0.4416900000000  0.5086980000000 1.0
C      1  0.5501030000000  0.5167900000000  0.5215020000000 1.0
C      1  0.5855360000000  0.5530440000000  0.5007420000000 1.0
C      1  0.5169920000000  0.4924400000000  0.6012440000000 1.0
C      1  0.5055210000000  0.5215990000000  0.4703370000000 1.0
C      1  0.4145720000000  0.5466490000000  0.5118190000000 1.0
C      1  0.4993960000000  0.4496640000000  0.5813350000000 1.0
C      1  0.4888300000000  0.4864780000000  0.5003760000000 1.0
C      1  0.5804940000000  0.5551090000000  0.5474700000000 1.0
C      1  0.4589860000000  0.5786380000000  0.5183550000000 1.0
C      1  0.4124900000000  0.5243060000000  0.5555500000000 1.0
C      1  0.4860510000000  0.5342910000000  0.5424360000000 1.0
C      1  0.5263560000000  0.5464170000000  0.5089460000000 1.0
C      1  0.5275040000000  0.4449100000000  0.5652570000000 1.0
C      1  0.4983230000000  0.4731570000000  0.5495500000000 1.0
C      1  0.4621120000000  0.5009770000000  0.4092410000000 1.0
C      1  0.4846130000000  0.4966640000000  0.3882600000000 1.0
C      1  0.5246100000000  0.5635240000000  0.4130700000000 1.0
C      1  0.4321040000000  0.5274420000000  0.4644400000000 1.0
C      1  0.4620340000000  0.4696150000000  0.4653680000000 1.0
C      1  0.5253460000000  0.4791900000000  0.5370110000000 1.0
C      1  0.5350730000000  0.5690240000000  0.4850840000000 1.0
C      1  0.3820860000000  0.4606670000000  0.5017260000000 1.0
C      1  0.4506580000000  0.4876290000000  0.4884860000000 1.0
C      1  0.4790180000000  0.5017330000000  0.4385290000000 1.0
C      1  0.5335090000000  0.4808310000000  0.4852570000000 1.0
C      1  0.4985000000000  0.4121670000000  0.5366060000000 1.0
C      1  0.4005300000000  0.4877690000000  0.4982620000000 1.0
C      1  0.4988410000000  0.5705990000000  0.4183260000000 1.0
C      1  0.4724550000000  0.4930430000000  0.5469560000000 1.0
C      1  0.5273050000000  0.5398720000000  0.5887290000000 1.0
C      1  0.5424220000000  0.6018540000000  0.4635870000000 1.0
C      1  0.5969200000000  0.4808920000000  0.4551730000000 1.0
C      1  0.3550150000000  0.4647340000000  0.5071550000000 1.0
C      1  0.5039110000000  0.4672630000000  0.4622780000000 1.0
C      1  0.5377840000000  0.5421140000000  0.4297650000000 1.0
C      1  0.5511050000000  0.4606280000000  0.5613190000000 1.0
C      1  0.5439740000000  0.4645840000000  0.5122430000000 1.0
C      1  0.4578580000000  0.5263500000000  0.5304900000000 1.0
C      1  0.4772760000000  0.4213300000000  0.4599440000000 1.0
C      1  0.6035510000000  0.5472980000000  0.4815670000000 1.0
C      1  0.5620650000000  0.4509750000000  0.4868430000000 1.0
C      1  0.5174240000000  0.4511090000000  0.4855690000000 1.0
C      1  0.5638240000000  0.4898500000000  0.5233940000000 1.0
C      1  0.5390890000000  0.4297060000000  0.4732570000000 1.0
C      1  0.5361340000000  0.5843970000000  0.5154070000000 1.0
C      1  0.3993520000000  0.5424470000000  0.5401250000000 1.0
C      1  0.4593750000000  0.4414690000000  0.5415780000000 1.0
C      1  0.5210190000000  0.4603690000000  0.4355600000000 1.0
C      1  0.4989330000000  0.4273810000000  0.4368830000000 1.0
C      1  0.5945480000000  0.5632780000000  0.5254620000000 1.0
C      1  0.5072480000000  0.4455500000000  0.4093610000000 1.0
C      1  0.4574140000000  0.5434630000000  0.4486330000000 1.0
C      1  0.4706730000000  0.4680930000000  0.5779710000000 1.0
C      1  0.4650610000000  0.4976330000000  0.5164340000000 1.0
C      1  0.5288520000000  0.5661630000000  0.5431710000000 1.0
C      1  0.5096160000000  0.5495540000000  0.5613450000000 1.0
C      1  0.5398760000000  0.4326790000000  0.5218520000000 1.0
C      1  0.4442370000000  0.5527280000000  0.5237060000000 1.0
C      1  0.4043530000000  0.4686410000000  0.5255120000000 1.0
C      1  0.4915230000000  0.5925780000000  0.4871660000000 1.0
C      1  0.5678670000000  0.4718720000000  0.4626350000000 1.0
C      1  0.5512380000000  0.4709030000000  0.4337760000000 1.0
C      1  0.4891310000000  0.4420240000000  0.5498340000000 1.0
C      1  0.5308000000000  0.5432360000000  0.4630780000000 1.0
C      1  0.4858060000000  0.5458300000000  0.4651810000000 1.0
C      1  0.4742980000000  0.4503420000000  0.4415990000000 1.0
C      1  0.4851820000000  0.5910850000000  0.5166910000000 1.0
C      1  0.4578780000000  0.4997990000000  0.5769490000000 1.0
C      1  0.5522440000000  0.5424990000000  0.5436880000000 1.0
C      1  0.5093380000000  0.5919410000000  0.5319490000000 1.0
END
