TITL C-2848505-4874-638 0.0032506934697302 125000 -1014.74818626155 0 0 190 (C1) n - 1
REM
REM in /home/bkarasulu/work/CARBON/AIRSS/Generating-Clusters/AIREBO/with-SteepDescent/Only-C1/SD-CG-opt/Try1-1.4A-POS3A/HFTN-CG
REM
REM
REM
REM
REM
REM ./C.cell (11c1c37f851c82e70ff6c80c92926a4b)
REM
REM compiler GCC version 9.2.1 20190827 (Red Hat 9.2.1-1)
REM options -cpp -mtune=generic -march=x86-64 -g -O0 -fpre-include=/usr/include/finclude/math-vector-fortran.h
REM seed -2001070822 -2033351792 -686706225 -951819443 -733878056 -181481569 -811574557 1602348722 -1038492516 -926523586 -723251783 -171253695 -2090972374 -3797774 -264899320 -1819114607 -151292584 -35699620 -118258010 529790747 1872078025 -1579955440 -45203074 -2025328943 -2040490616 1246567051 666502418 -43877919 -1556384965 1186764166 -1006998569 -1744567513 492818968
REM
CELL 1.54180   50.00000   50.00000   50.00000   90.00000   90.00000   90.00000
LATT -1
SFAC C  
C      1  0.4268350000000  0.4232590000000  0.5380020000000 1.0
C      1  0.4919360000000  0.5823040000000  0.4526730000000 1.0
C      1  0.5663470000000  0.5311590000000  0.4248480000000 1.0
C      1  0.5876840000000  0.4493650000000  0.5583070000000 1.0
C      1  0.4804820000000  0.4694050000000  0.4360650000000 1.0
C      1  0.4494160000000  0.4194290000000  0.4854090000000 1.0
C      1  0.5817800000000  0.5003660000000  0.4754680000000 1.0
C      1  0.4852140000000  0.3963750000000  0.4570460000000 1.0
C      1  0.5177590000000  0.5284990000000  0.6117160000000 1.0
C      1  0.4984430000000  0.4319570000000  0.4013780000000 1.0
C      1  0.4508430000000  0.4751910000000  0.5417730000000 1.0
C      1  0.4764730000000  0.3992960000000  0.4840870000000 1.0
C      1  0.4922270000000  0.4140080000000  0.5104040000000 1.0
C      1  0.4078490000000  0.4090530000000  0.4611640000000 1.0
C      1  0.5141040000000  0.4570840000000  0.6011770000000 1.0
C      1  0.4955220000000  0.4916880000000  0.4175500000000 1.0
C      1  0.5105580000000  0.4619750000000  0.4775430000000 1.0
C      1  0.4687660000000  0.4154520000000  0.4390400000000 1.0
C      1  0.5055690000000  0.4391370000000  0.5290820000000 1.0
C      1  0.4901410000000  0.5203090000000  0.4509050000000 1.0
C      1  0.4459340000000  0.4733360000000  0.5022300000000 1.0
C      1  0.5566660000000  0.4542450000000  0.4884910000000 1.0
C      1  0.4970000000000  0.4894130000000  0.3778150000000 1.0
C      1  0.5906640000000  0.5100660000000  0.4257840000000 1.0
C      1  0.4448520000000  0.5375120000000  0.4701710000000 1.0
C      1  0.5164920000000  0.5093510000000  0.5162270000000 1.0
C      1  0.5900250000000  0.4843250000000  0.4485150000000 1.0
C      1  0.4704240000000  0.4784180000000  0.4647530000000 1.0
C      1  0.4618060000000  0.5927550000000  0.4436290000000 1.0
C      1  0.5379760000000  0.4296630000000  0.5725860000000 1.0
C      1  0.5464120000000  0.5805750000000  0.4528580000000 1.0
C      1  0.4562660000000  0.5600490000000  0.5801780000000 1.0
C      1  0.5369450000000  0.5531870000000  0.5484680000000 1.0
C      1  0.5071440000000  0.5094440000000  0.5588980000000 1.0
C      1  0.4323820000000  0.5012540000000  0.5017200000000 1.0
C      1  0.4172290000000  0.5261740000000  0.5599220000000 1.0
C      1  0.4371550000000  0.5451770000000  0.4228800000000 1.0
C      1  0.4129530000000  0.4943900000000  0.5486290000000 1.0
C      1  0.5370480000000  0.5730900000000  0.5749420000000 1.0
C      1  0.5644270000000  0.5714500000000  0.5460700000000 1.0
C      1  0.3950540000000  0.4819430000000  0.4901290000000 1.0
C      1  0.6006910000000  0.4917450000000  0.5023770000000 1.0
C      1  0.5114550000000  0.4440910000000  0.4498240000000 1.0
C      1  0.5399460000000  0.5207570000000  0.4363610000000 1.0
C      1  0.4880130000000  0.5309900000000  0.4984090000000 1.0
C      1  0.6034360000000  0.4564040000000  0.5331140000000 1.0
C      1  0.4234640000000  0.4583590000000  0.5348020000000 1.0
C      1  0.6095990000000  0.5199570000000  0.4755970000000 1.0
C      1  0.5463210000000  0.4750590000000  0.4161570000000 1.0
C      1  0.4095220000000  0.5077310000000  0.4780220000000 1.0
C      1  0.4294270000000  0.4333970000000  0.4617010000000 1.0
C      1  0.5195410000000  0.5995390000000  0.5647730000000 1.0
C      1  0.5509290000000  0.4873290000000  0.4830410000000 1.0
C      1  0.4078500000000  0.4682550000000  0.5620690000000 1.0
C      1  0.5859640000000  0.5543990000000  0.5321980000000 1.0
C      1  0.5923010000000  0.5098590000000  0.5635940000000 1.0
C      1  0.5280890000000  0.4859020000000  0.5457840000000 1.0
C      1  0.4152110000000  0.4954170000000  0.4205720000000 1.0
C      1  0.5652470000000  0.4490590000000  0.5734450000000 1.0
C      1  0.5847430000000  0.4316980000000  0.4578400000000 1.0
C      1  0.4102010000000  0.4632540000000  0.4226320000000 1.0
C      1  0.4514550000000  0.5393610000000  0.5356590000000 1.0
C      1  0.5683410000000  0.5781130000000  0.5792620000000 1.0
C      1  0.4164730000000  0.5407750000000  0.4413170000000 1.0
C      1  0.5306560000000  0.5692770000000  0.4245880000000 1.0
C      1  0.5307180000000  0.5593350000000  0.5019460000000 1.0
C      1  0.4806770000000  0.4588860000000  0.5412120000000 1.0
C      1  0.5055020000000  0.5414640000000  0.5702200000000 1.0
C      1  0.5707150000000  0.4691510000000  0.5156340000000 1.0
C      1  0.3941480000000  0.4626170000000  0.5180900000000 1.0
C      1  0.5402110000000  0.5240120000000  0.5337270000000 1.0
C      1  0.5580700000000  0.5008800000000  0.5431650000000 1.0
C      1  0.5645200000000  0.4891120000000  0.5728390000000 1.0
C      1  0.5753430000000  0.5417480000000  0.5030630000000 1.0
C      1  0.5395220000000  0.5939480000000  0.5394300000000 1.0
C      1  0.4274870000000  0.5900880000000  0.5168770000000 1.0
C      1  0.6119070000000  0.5423510000000  0.4868770000000 1.0
C      1  0.5488800000000  0.4262130000000  0.4743280000000 1.0
C      1  0.4498750000000  0.4140800000000  0.5524620000000 1.0
C      1  0.5341570000000  0.5168610000000  0.4811370000000 1.0
C      1  0.4780530000000  0.6144730000000  0.5093030000000 1.0
C      1  0.5306960000000  0.4779470000000  0.4573680000000 1.0
C      1  0.4844510000000  0.4359770000000  0.4611810000000 1.0
C      1  0.4570460000000  0.5305390000000  0.5670360000000 1.0
C      1  0.5961180000000  0.5672410000000  0.5031100000000 1.0
C      1  0.4371960000000  0.5054580000000  0.5781630000000 1.0
C      1  0.4228120000000  0.4711350000000  0.4506500000000 1.0
C      1  0.5201660000000  0.4551980000000  0.5045190000000 1.0
C      1  0.4465090000000  0.4886740000000  0.4444680000000 1.0
C      1  0.5339290000000  0.4837500000000  0.5122920000000 1.0
C      1  0.3844770000000  0.4941590000000  0.5201360000000 1.0
C      1  0.5203800000000  0.3797850000000  0.5330310000000 1.0
C      1  0.5693890000000  0.5097030000000  0.5962610000000 1.0
C      1  0.4969490000000  0.5036570000000  0.6057210000000 1.0
C      1  0.5500580000000  0.4021500000000  0.4966830000000 1.0
C      1  0.5626410000000  0.4047900000000  0.5258370000000 1.0
C      1  0.4789690000000  0.5724220000000  0.5968910000000 1.0
C      1  0.4910260000000  0.5222020000000  0.5311830000000 1.0
C      1  0.4730790000000  0.4028220000000  0.5362650000000 1.0
C      1  0.4555320000000  0.4278750000000  0.5755450000000 1.0
C      1  0.4708400000000  0.5626880000000  0.5198530000000 1.0
C      1  0.4926950000000  0.4734640000000  0.6114930000000 1.0
C      1  0.4574160000000  0.5627080000000  0.4558100000000 1.0
C      1  0.5258790000000  0.5979890000000  0.5094650000000 1.0
C      1  0.5757470000000  0.5896830000000  0.4939980000000 1.0
C      1  0.5537650000000  0.5550050000000  0.4041350000000 1.0
C      1  0.4085320000000  0.5118000000000  0.4442750000000 1.0
C      1  0.5238490000000  0.5403540000000  0.4587740000000 1.0
C      1  0.4243150000000  0.4157690000000  0.5057840000000 1.0
C      1  0.4860560000000  0.5232890000000  0.4092950000000 1.0
C      1  0.5673840000000  0.4877250000000  0.4233510000000 1.0
C      1  0.4653800000000  0.4694750000000  0.6063250000000 1.0
C      1  0.5242040000000  0.4550000000000  0.5526980000000 1.0
C      1  0.5471000000000  0.4247350000000  0.5401960000000 1.0
C      1  0.5971890000000  0.5183690000000  0.5954300000000 1.0
C      1  0.4478740000000  0.4951530000000  0.4122750000000 1.0
C      1  0.4716890000000  0.5790830000000  0.5582000000000 1.0
C      1  0.4609530000000  0.5154300000000  0.4546700000000 1.0
C      1  0.5106720000000  0.5810110000000  0.5948930000000 1.0
C      1  0.4230730000000  0.5705110000000  0.4893200000000 1.0
C      1  0.5772970000000  0.4076960000000  0.4767170000000 1.0
C      1  0.5234590000000  0.4841470000000  0.3991740000000 1.0
C      1  0.4687750000000  0.5020960000000  0.5180250000000 1.0
C      1  0.4713570000000  0.5805670000000  0.4036340000000 1.0
C      1  0.5644420000000  0.4327720000000  0.4382620000000 1.0
C      1  0.3805850000000  0.5524310000000  0.4862450000000 1.0
C      1  0.5986530000000  0.4593020000000  0.4992680000000 1.0
C      1  0.4492470000000  0.6046560000000  0.4958000000000 1.0
C      1  0.4783500000000  0.5562020000000  0.4811740000000 1.0
C      1  0.5146220000000  0.4262070000000  0.4220520000000 1.0
C      1  0.4121640000000  0.5415240000000  0.4752580000000 1.0
C      1  0.4130140000000  0.4588530000000  0.4771910000000 1.0
C      1  0.5692080000000  0.5643340000000  0.4328760000000 1.0
C      1  0.4723450000000  0.4767540000000  0.3976190000000 1.0
C      1  0.6174270000000  0.5200400000000  0.4171660000000 1.0
C      1  0.5715770000000  0.5317180000000  0.4745760000000 1.0
C      1  0.5475120000000  0.4473670000000  0.5211220000000 1.0
C      1  0.5372360000000  0.4143560000000  0.4445860000000 1.0
C      1  0.4217290000000  0.5531330000000  0.5307240000000 1.0
C      1  0.5235230000000  0.4982950000000  0.5864670000000 1.0
C      1  0.4921410000000  0.4859070000000  0.4832250000000 1.0
C      1  0.5440850000000  0.5154150000000  0.6046560000000 1.0
C      1  0.5116400000000  0.5497140000000  0.5950170000000 1.0
C      1  0.4884750000000  0.6001810000000  0.5677930000000 1.0
C      1  0.4585020000000  0.4788950000000  0.5743780000000 1.0
C      1  0.4548460000000  0.5719720000000  0.4946160000000 1.0
C      1  0.4746550000000  0.4659140000000  0.5023940000000 1.0
C      1  0.4039030000000  0.5411300000000  0.5082580000000 1.0
C      1  0.5404830000000  0.4532010000000  0.4361640000000 1.0
C      1  0.5089860000000  0.5906660000000  0.4808770000000 1.0
C      1  0.5454950000000  0.5340790000000  0.5046030000000 1.0
C      1  0.4773890000000  0.4382680000000  0.4919170000000 1.0
C      1  0.5996990000000  0.5266510000000  0.5391330000000 1.0
C      1  0.5095440000000  0.5590100000000  0.4798940000000 1.0
C      1  0.4556740000000  0.5247620000000  0.4078980000000 1.0
C      1  0.4571330000000  0.4509970000000  0.4528240000000 1.0
C      1  0.5059830000000  0.4329230000000  0.5809650000000 1.0
C      1  0.6087760000000  0.5111660000000  0.5186980000000 1.0
C      1  0.4411560000000  0.5069510000000  0.5343600000000 1.0
C      1  0.4260310000000  0.5557080000000  0.5652290000000 1.0
C      1  0.5205260000000  0.3953330000000  0.5069640000000 1.0
C      1  0.4539410000000  0.4297200000000  0.4183120000000 1.0
C      1  0.4683880000000  0.5584720000000  0.4245170000000 1.0
C      1  0.4414290000000  0.5774230000000  0.5440740000000 1.0
C      1  0.5136750000000  0.5157640000000  0.3913710000000 1.0
C      1  0.5558590000000  0.5494050000000  0.4592610000000 1.0
C      1  0.4567850000000  0.5219370000000  0.4936960000000 1.0
C      1  0.4783290000000  0.6003520000000  0.4785710000000 1.0
C      1  0.4893840000000  0.4167580000000  0.5578150000000 1.0
C      1  0.5870990000000  0.4852390000000  0.5407110000000 1.0
C      1  0.5955240000000  0.4561860000000  0.4669350000000 1.0
C      1  0.4981530000000  0.5512540000000  0.4393100000000 1.0
C      1  0.4888530000000  0.5527510000000  0.5452270000000 1.0
C      1  0.4785800000000  0.5062060000000  0.5770550000000 1.0
C      1  0.5477510000000  0.5845040000000  0.4866480000000 1.0
C      1  0.4283130000000  0.4386890000000  0.4281270000000 1.0
C      1  0.4782190000000  0.4510720000000  0.5732610000000 1.0
C      1  0.4954050000000  0.4834360000000  0.5228580000000 1.0
C      1  0.4281870000000  0.4484270000000  0.5026220000000 1.0
C      1  0.5383780000000  0.4687260000000  0.5803990000000 1.0
C      1  0.5181090000000  0.4110460000000  0.5435990000000 1.0
C      1  0.5029060000000  0.5129790000000  0.4789700000000 1.0
C      1  0.4723120000000  0.4445800000000  0.4011150000000 1.0
C      1  0.3980220000000  0.4306840000000  0.5213630000000 1.0
C      1  0.5158000000000  0.5640750000000  0.5278540000000 1.0
C      1  0.5121690000000  0.3940980000000  0.4487720000000 1.0
C      1  0.5159300000000  0.5009880000000  0.4431080000000 1.0
C      1  0.4944990000000  0.5878610000000  0.5179130000000 1.0
C      1  0.5128350000000  0.5446100000000  0.4093650000000 1.0
C      1  0.4000280000000  0.5196580000000  0.5308020000000 1.0
END
