TITL C-2847951-7423-439 0.00184783165702533 125000 -784.298704180077 0 0 144 (C1) n - 1
REM
REM in /home/bkarasulu/work/CARBON/AIRSS/Generating-Clusters/AIREBO/with-SteepDescent/Only-C1/SD-CG-opt/Try1-1.4A-POS3A/HFTN-CG
REM
REM
REM
REM
REM
REM ./C.cell (11c1c37f851c82e70ff6c80c92926a4b)
REM
REM compiler GCC version 9.2.1 20190827 (Red Hat 9.2.1-1)
REM options -cpp -mtune=generic -march=x86-64 -g -O0 -fpre-include=/usr/include/finclude/math-vector-fortran.h
REM seed -828200269 -1112887085 1339778947 1281926555 1866510786 1579987335 858201941 315064132 916122432 654555925 2095657918 -310379749 2056274592 981187103 -855116955 -1881488359 -294354358 -1570763716 180023978 991659554 -1159697806 1326238316 906159769 98726329 541339051 355206595 23430519 455934276 2081870909 1354022422 1443949848 -734087172 940057026
REM
CELL 1.54180   50.00000   50.00000   50.00000   90.00000   90.00000   90.00000
LATT -1
SFAC C  
C      1  0.4682540000000  0.5759050000000  0.4397250000000 1.0
C      1  0.4341580000000  0.4430980000000  0.5333180000000 1.0
C      1  0.4439850000000  0.5141410000000  0.4859510000000 1.0
C      1  0.4914810000000  0.5605070000000  0.3991930000000 1.0
C      1  0.4648630000000  0.4582770000000  0.5094400000000 1.0
C      1  0.4371530000000  0.4808620000000  0.4874850000000 1.0
C      1  0.4065420000000  0.5233440000000  0.4498720000000 1.0
C      1  0.4833620000000  0.5891960000000  0.4672350000000 1.0
C      1  0.4590960000000  0.4973320000000  0.5341280000000 1.0
C      1  0.5346660000000  0.5888360000000  0.5525710000000 1.0
C      1  0.4746690000000  0.4124280000000  0.4619520000000 1.0
C      1  0.4731100000000  0.4637330000000  0.5506140000000 1.0
C      1  0.5115700000000  0.5342000000000  0.4014000000000 1.0
C      1  0.5241160000000  0.4931620000000  0.5073250000000 1.0
C      1  0.5252160000000  0.5088410000000  0.5463920000000 1.0
C      1  0.4648340000000  0.4258810000000  0.5605420000000 1.0
C      1  0.5378630000000  0.4502730000000  0.5556550000000 1.0
C      1  0.5691840000000  0.4739310000000  0.4798640000000 1.0
C      1  0.5591080000000  0.5649240000000  0.5102520000000 1.0
C      1  0.5501470000000  0.4346350000000  0.4651490000000 1.0
C      1  0.4742970000000  0.5038550000000  0.6040470000000 1.0
C      1  0.5898910000000  0.5247440000000  0.4358680000000 1.0
C      1  0.5341960000000  0.5854150000000  0.4336170000000 1.0
C      1  0.4640450000000  0.4775300000000  0.6014380000000 1.0
C      1  0.5218690000000  0.5172280000000  0.6021490000000 1.0
C      1  0.4860790000000  0.4100100000000  0.5692750000000 1.0
C      1  0.5140260000000  0.5512350000000  0.4307530000000 1.0
C      1  0.5833280000000  0.4816690000000  0.4370290000000 1.0
C      1  0.5473880000000  0.5848800000000  0.4903290000000 1.0
C      1  0.5451450000000  0.5450680000000  0.5335260000000 1.0
C      1  0.5832200000000  0.5266760000000  0.5624060000000 1.0
C      1  0.5178310000000  0.5248110000000  0.5105320000000 1.0
C      1  0.5385170000000  0.4338070000000  0.5819120000000 1.0
C      1  0.4703030000000  0.5194190000000  0.5779810000000 1.0
C      1  0.5680890000000  0.5003320000000  0.4130250000000 1.0
C      1  0.4708850000000  0.4848320000000  0.4890660000000 1.0
C      1  0.5476170000000  0.5564330000000  0.4322420000000 1.0
C      1  0.6000210000000  0.5149400000000  0.5347920000000 1.0
C      1  0.4985790000000  0.5114500000000  0.6170890000000 1.0
C      1  0.4952810000000  0.5423310000000  0.4727510000000 1.0
C      1  0.4413720000000  0.4420210000000  0.5609540000000 1.0
C      1  0.5034450000000  0.5036260000000  0.4668240000000 1.0
C      1  0.4359700000000  0.5946520000000  0.5428370000000 1.0
C      1  0.4100950000000  0.4605880000000  0.4837680000000 1.0
C      1  0.4452100000000  0.4614420000000  0.4336720000000 1.0
C      1  0.5635020000000  0.5027250000000  0.4737210000000 1.0
C      1  0.5568160000000  0.4588890000000  0.5034190000000 1.0
C      1  0.5713670000000  0.5272470000000  0.5327960000000 1.0
C      1  0.4431030000000  0.5442680000000  0.4753250000000 1.0
C      1  0.4875840000000  0.5011800000000  0.5213980000000 1.0
C      1  0.4656250000000  0.5403210000000  0.5075250000000 1.0
C      1  0.5929980000000  0.5457230000000  0.4798030000000 1.0
C      1  0.5494980000000  0.5342370000000  0.5654840000000 1.0
C      1  0.5047540000000  0.4085170000000  0.5499900000000 1.0
C      1  0.4306740000000  0.4937630000000  0.5665620000000 1.0
C      1  0.4026100000000  0.4969860000000  0.4589020000000 1.0
C      1  0.5380930000000  0.5177300000000  0.4085150000000 1.0
C      1  0.5818330000000  0.4714890000000  0.5796090000000 1.0
C      1  0.5999010000000  0.4636640000000  0.4741280000000 1.0
C      1  0.4630080000000  0.3948480000000  0.4815860000000 1.0
C      1  0.4344300000000  0.5135810000000  0.5170680000000 1.0
C      1  0.4402770000000  0.5195830000000  0.5716890000000 1.0
C      1  0.4917780000000  0.5416670000000  0.5722110000000 1.0
C      1  0.5443580000000  0.4136970000000  0.5183230000000 1.0
C      1  0.4624010000000  0.4056730000000  0.5084570000000 1.0
C      1  0.4638080000000  0.5753590000000  0.5458090000000 1.0
C      1  0.4167690000000  0.5537960000000  0.4860250000000 1.0
C      1  0.5106200000000  0.4510050000000  0.4557190000000 1.0
C      1  0.4703280000000  0.5604920000000  0.4167090000000 1.0
C      1  0.4840200000000  0.4587820000000  0.6079210000000 1.0
C      1  0.5567970000000  0.4776770000000  0.5634340000000 1.0
C      1  0.4229410000000  0.4468610000000  0.4549040000000 1.0
C      1  0.4885070000000  0.5528490000000  0.5423330000000 1.0
C      1  0.5270180000000  0.5544550000000  0.5061390000000 1.0
C      1  0.5258850000000  0.4152390000000  0.4738410000000 1.0
C      1  0.6099320000000  0.4956210000000  0.4801230000000 1.0
C      1  0.4375770000000  0.4740390000000  0.5218500000000 1.0
C      1  0.4931570000000  0.5097490000000  0.3927870000000 1.0
C      1  0.4600580000000  0.4783540000000  0.4120300000000 1.0
C      1  0.6126960000000  0.5057570000000  0.5124820000000 1.0
C      1  0.5115960000000  0.5776250000000  0.4527000000000 1.0
C      1  0.3974990000000  0.5448660000000  0.4671260000000 1.0
C      1  0.5041770000000  0.4847270000000  0.3972390000000 1.0
C      1  0.4903070000000  0.5912410000000  0.5334700000000 1.0
C      1  0.4663550000000  0.5598080000000  0.4690080000000 1.0
C      1  0.5470960000000  0.5223400000000  0.4933960000000 1.0
C      1  0.4809980000000  0.4950610000000  0.5602510000000 1.0
C      1  0.4585680000000  0.4317930000000  0.4437350000000 1.0
C      1  0.4654240000000  0.4462300000000  0.4808130000000 1.0
C      1  0.4284210000000  0.4804200000000  0.4546090000000 1.0
C      1  0.4930480000000  0.4098260000000  0.5187150000000 1.0
C      1  0.4344300000000  0.5462440000000  0.5140910000000 1.0
C      1  0.5642190000000  0.5329210000000  0.4219330000000 1.0
C      1  0.4173130000000  0.4884010000000  0.5428780000000 1.0
C      1  0.4339940000000  0.4364550000000  0.4853270000000 1.0
C      1  0.5200030000000  0.4079440000000  0.5020440000000 1.0
C      1  0.5228620000000  0.4653490000000  0.4322340000000 1.0
C      1  0.5412340000000  0.4192510000000  0.6027060000000 1.0
C      1  0.4796150000000  0.4555120000000  0.4528300000000 1.0
C      1  0.5471950000000  0.5638490000000  0.4644580000000 1.0
C      1  0.5543540000000  0.4703260000000  0.4233910000000 1.0
C      1  0.4827500000000  0.5016770000000  0.4442880000000 1.0
C      1  0.4827140000000  0.5667140000000  0.5117920000000 1.0
C      1  0.5071890000000  0.4638050000000  0.5938630000000 1.0
C      1  0.5743970000000  0.4532300000000  0.4534300000000 1.0
C      1  0.5288840000000  0.5379220000000  0.4699110000000 1.0
C      1  0.5079430000000  0.4454480000000  0.5089640000000 1.0
C      1  0.5471490000000  0.5681690000000  0.5661130000000 1.0
C      1  0.4663690000000  0.5078510000000  0.4025480000000 1.0
C      1  0.4414930000000  0.4246220000000  0.5127780000000 1.0
C      1  0.5647460000000  0.4289150000000  0.5088840000000 1.0
C      1  0.4969180000000  0.4704970000000  0.5291860000000 1.0
C      1  0.3887620000000  0.4837090000000  0.4813700000000 1.0
C      1  0.5193150000000  0.5384570000000  0.5805870000000 1.0
C      1  0.5505240000000  0.5065940000000  0.5240060000000 1.0
C      1  0.4905260000000  0.4742050000000  0.4265480000000 1.0
C      1  0.5009370000000  0.5250790000000  0.5372430000000 1.0
C      1  0.4754660000000  0.4364690000000  0.5304350000000 1.0
C      1  0.5778960000000  0.5649150000000  0.4749540000000 1.0
C      1  0.4534340000000  0.5114970000000  0.4553060000000 1.0
C      1  0.5052740000000  0.5722170000000  0.4869420000000 1.0
C      1  0.5378910000000  0.5034540000000  0.5755010000000 1.0
C      1  0.5175100000000  0.5972300000000  0.5308700000000 1.0
C      1  0.5232400000000  0.4303250000000  0.5349680000000 1.0
C      1  0.5353430000000  0.5082300000000  0.4581370000000 1.0
C      1  0.4601150000000  0.5308940000000  0.4212740000000 1.0
C      1  0.4835200000000  0.5163350000000  0.4912800000000 1.0
C      1  0.4879600000000  0.5338610000000  0.4406420000000 1.0
C      1  0.5608820000000  0.4758450000000  0.5296810000000 1.0
C      1  0.5275260000000  0.4763150000000  0.5363840000000 1.0
C      1  0.5330450000000  0.4961840000000  0.4310990000000 1.0
C      1  0.6093930000000  0.4901250000000  0.4465520000000 1.0
C      1  0.4279660000000  0.5424350000000  0.5646550000000 1.0
C      1  0.5294020000000  0.4537820000000  0.4839390000000 1.0
C      1  0.4499710000000  0.4713930000000  0.5743950000000 1.0
C      1  0.3834610000000  0.4981730000000  0.5047750000000 1.0
C      1  0.5234330000000  0.5963940000000  0.5025140000000 1.0
C      1  0.4327970000000  0.5258480000000  0.4380300000000 1.0
C      1  0.4029140000000  0.5051300000000  0.5231920000000 1.0
C      1  0.4341640000000  0.5607220000000  0.5407670000000 1.0
C      1  0.5175770000000  0.4823430000000  0.4826700000000 1.0
C      1  0.4965710000000  0.4314410000000  0.4797220000000 1.0
C      1  0.5094720000000  0.4847630000000  0.5757920000000 1.0
C      1  0.5896540000000  0.5182730000000  0.4665020000000 1.0
END
