TITL C-2848497-6229-407 9.53411839742114e-05 125000 -418.848006247634 0 0 79 (C1) n - 1
REM
REM in /home/bkarasulu/work/CARBON/AIRSS/Generating-Clusters/AIREBO/with-SteepDescent/Only-C1/SD-CG-opt/Try1-1.4A-POS3A/HFTN-CG
REM
REM
REM
REM
REM
REM ./C.cell (11c1c37f851c82e70ff6c80c92926a4b)
REM
REM compiler GCC version 9.2.1 20190827 (Red Hat 9.2.1-1)
REM options -cpp -mtune=generic -march=x86-64 -g -O0 -fpre-include=/usr/include/finclude/math-vector-fortran.h
REM seed -1529390494 -875267035 -1509394404 -1278468323 368142582 -552253388 601014659 906917338 565938216 -665699429 -1567542364 70988849 -1162580903 965041540 -605523654 -1111378234 -843115606 1129227578 -2129097933 -1200301427 681135717 -737839149 277487608 1807239475 -2031983982 -1609549030 422681178 -1151772478 2127689104 573306112 -1926321614 1762391482 279099998
REM
CELL 1.54180   50.00000   50.00000   50.00000   90.00000   90.00000   90.00000
LATT -1
SFAC C  
C      1  0.5286770000000  0.4793240000000  0.5606480000000 1.0
C      1  0.4902430000000  0.5227290000000  0.5294240000000 1.0
C      1  0.5013720000000  0.4801720000000  0.5700730000000 1.0
C      1  0.5019370000000  0.4862530000000  0.4244210000000 1.0
C      1  0.4843510000000  0.5207220000000  0.4453770000000 1.0
C      1  0.5192100000000  0.4761900000000  0.5129860000000 1.0
C      1  0.5352620000000  0.4142190000000  0.4341720000000 1.0
C      1  0.5069230000000  0.5320040000000  0.5520720000000 1.0
C      1  0.5225220000000  0.5465970000000  0.4648610000000 1.0
C      1  0.4093220000000  0.5235470000000  0.5135140000000 1.0
C      1  0.5457700000000  0.5990270000000  0.5066620000000 1.0
C      1  0.5415300000000  0.4535260000000  0.5537460000000 1.0
C      1  0.4572320000000  0.5045110000000  0.4583460000000 1.0
C      1  0.4285480000000  0.4911860000000  0.4709100000000 1.0
C      1  0.5016740000000  0.3781980000000  0.4683500000000 1.0
C      1  0.4533180000000  0.5126880000000  0.4976800000000 1.0
C      1  0.4927230000000  0.4692700000000  0.5308410000000 1.0
C      1  0.4387230000000  0.5204420000000  0.5206190000000 1.0
C      1  0.5702430000000  0.4677070000000  0.5201040000000 1.0
C      1  0.4774040000000  0.4800150000000  0.4705570000000 1.0
C      1  0.5722590000000  0.4898960000000  0.4731030000000 1.0
C      1  0.4999200000000  0.5924430000000  0.4437750000000 1.0
C      1  0.4961580000000  0.5393020000000  0.5053170000000 1.0
C      1  0.4822570000000  0.5008360000000  0.5791670000000 1.0
C      1  0.4248400000000  0.4834630000000  0.5254120000000 1.0
C      1  0.4976640000000  0.5334930000000  0.4180710000000 1.0
C      1  0.4811540000000  0.4268520000000  0.5565300000000 1.0
C      1  0.4567430000000  0.5337080000000  0.4757980000000 1.0
C      1  0.4331770000000  0.4576070000000  0.5236070000000 1.0
C      1  0.4661700000000  0.4277230000000  0.4907610000000 1.0
C      1  0.5530670000000  0.5461570000000  0.5604130000000 1.0
C      1  0.4274360000000  0.4633770000000  0.4631010000000 1.0
C      1  0.4713100000000  0.4855490000000  0.5012810000000 1.0
C      1  0.4924240000000  0.4353100000000  0.5259670000000 1.0
C      1  0.5289490000000  0.4789610000000  0.4529970000000 1.0
C      1  0.5252870000000  0.4507770000000  0.4942980000000 1.0
C      1  0.4849310000000  0.5730010000000  0.4651260000000 1.0
C      1  0.5198330000000  0.4216060000000  0.4554850000000 1.0
C      1  0.5618440000000  0.4781850000000  0.4479110000000 1.0
C      1  0.4770070000000  0.5806480000000  0.4948210000000 1.0
C      1  0.4754160000000  0.4965480000000  0.5319680000000 1.0
C      1  0.4567870000000  0.4561850000000  0.5045670000000 1.0
C      1  0.5379480000000  0.5172150000000  0.4410340000000 1.0
C      1  0.5313640000000  0.5739060000000  0.4961520000000 1.0
C      1  0.5863070000000  0.5099870000000  0.5429090000000 1.0
C      1  0.5549690000000  0.5507740000000  0.4877870000000 1.0
C      1  0.4167660000000  0.4964520000000  0.4975650000000 1.0
C      1  0.4692390000000  0.4861930000000  0.4323080000000 1.0
C      1  0.4500500000000  0.5613680000000  0.4856180000000 1.0
C      1  0.4351860000000  0.4944920000000  0.5938460000000 1.0
C      1  0.4899500000000  0.5399330000000  0.4719820000000 1.0
C      1  0.5680220000000  0.5075920000000  0.5197310000000 1.0
C      1  0.5534430000000  0.5404730000000  0.4586270000000 1.0
C      1  0.5058830000000  0.4049560000000  0.4720520000000 1.0
C      1  0.5221810000000  0.4243410000000  0.5154530000000 1.0
C      1  0.5166620000000  0.5105480000000  0.4243060000000 1.0
C      1  0.5187000000000  0.4504670000000  0.4642160000000 1.0
C      1  0.5031950000000  0.4962340000000  0.4962350000000 1.0
C      1  0.4452910000000  0.4464640000000  0.4756860000000 1.0
C      1  0.5222590000000  0.5236840000000  0.4899830000000 1.0
C      1  0.5730250000000  0.5373080000000  0.5039490000000 1.0
C      1  0.5181930000000  0.5785100000000  0.4666680000000 1.0
C      1  0.5013910000000  0.5702920000000  0.5122010000000 1.0
C      1  0.4925830000000  0.4639730000000  0.4471380000000 1.0
C      1  0.4934950000000  0.5768000000000  0.5434700000000 1.0
C      1  0.5807840000000  0.4858150000000  0.4981760000000 1.0
C      1  0.4444980000000  0.5894150000000  0.4995440000000 1.0
C      1  0.5043550000000  0.4989970000000  0.4622270000000 1.0
C      1  0.5342110000000  0.5345820000000  0.5444030000000 1.0
C      1  0.4946090000000  0.4188410000000  0.4962970000000 1.0
C      1  0.4881390000000  0.4548490000000  0.5604090000000 1.0
C      1  0.4941880000000  0.5583050000000  0.5634220000000 1.0
C      1  0.5427840000000  0.5041910000000  0.4711360000000 1.0
C      1  0.5388650000000  0.5240750000000  0.5193960000000 1.0
C      1  0.5438360000000  0.4861770000000  0.5309500000000 1.0
C      1  0.4540330000000  0.4971360000000  0.5742060000000 1.0
C      1  0.4462030000000  0.5004030000000  0.5450380000000 1.0
C      1  0.5450150000000  0.4472240000000  0.5222550000000 1.0
C      1  0.4907610000000  0.5280740000000  0.5787880000000 1.0
END
