TITL C-2847948-6138-548 0.00147475928431899 125000 -1053.51731704206 0 0 197 (C1) n - 1
REM
REM in /home/bkarasulu/work/CARBON/AIRSS/Generating-Clusters/AIREBO/with-SteepDescent/Only-C1/SD-CG-opt/Try1-1.4A-POS3A/HFTN-CG
REM
REM
REM
REM
REM
REM ./C.cell (11c1c37f851c82e70ff6c80c92926a4b)
REM
REM compiler GCC version 9.2.1 20190827 (Red Hat 9.2.1-1)
REM options -cpp -mtune=generic -march=x86-64 -g -O0 -fpre-include=/usr/include/finclude/math-vector-fortran.h
REM seed -25527729 -1061380918 -793222032 -148346900 1447331285 1838632473 -232211125 201475439 -836631938 -740462627 -135239085 -2008715465 962565078 -648763765 854097863 410203748 1531506299 -1071889102 1586142424 -1878870320 -1389428432 -763337527 -1126761426 -1855136531 32844743 1364817053 -971341098 1457299250 811563705 1343533201 -1286801089 -244557277 1233327231
REM
CELL 1.54180   50.00000   50.00000   50.00000   90.00000   90.00000   90.00000
LATT -1
SFAC C  
C      1  0.5126250000000  0.3976720000000  0.5548550000000 1.0
C      1  0.4361040000000  0.5733850000000  0.4654890000000 1.0
C      1  0.5560940000000  0.5014880000000  0.4629440000000 1.0
C      1  0.4848950000000  0.4211110000000  0.4398830000000 1.0
C      1  0.4957330000000  0.4945040000000  0.4941880000000 1.0
C      1  0.5281570000000  0.5800860000000  0.5037830000000 1.0
C      1  0.4248250000000  0.5210320000000  0.4467820000000 1.0
C      1  0.4570960000000  0.5103740000000  0.5598790000000 1.0
C      1  0.3929380000000  0.5631010000000  0.4985350000000 1.0
C      1  0.4420750000000  0.4908890000000  0.4790050000000 1.0
C      1  0.4984370000000  0.5047170000000  0.3764260000000 1.0
C      1  0.5298230000000  0.5283000000000  0.4249880000000 1.0
C      1  0.5841490000000  0.4535690000000  0.4888240000000 1.0
C      1  0.4123030000000  0.4761680000000  0.4391930000000 1.0
C      1  0.5664110000000  0.4372080000000  0.5485500000000 1.0
C      1  0.5740970000000  0.5524250000000  0.4534510000000 1.0
C      1  0.5130700000000  0.5126020000000  0.6018600000000 1.0
C      1  0.4567090000000  0.4715220000000  0.5467330000000 1.0
C      1  0.4288100000000  0.5410810000000  0.4745030000000 1.0
C      1  0.5598390000000  0.4861400000000  0.5078070000000 1.0
C      1  0.5391270000000  0.4626050000000  0.5628460000000 1.0
C      1  0.5773290000000  0.4146930000000  0.4841480000000 1.0
C      1  0.5586380000000  0.4410430000000  0.5804840000000 1.0
C      1  0.4370580000000  0.5921600000000  0.4901940000000 1.0
C      1  0.4717840000000  0.5592310000000  0.4965970000000 1.0
C      1  0.6115250000000  0.4846990000000  0.5228480000000 1.0
C      1  0.4502180000000  0.4974850000000  0.3866090000000 1.0
C      1  0.5565320000000  0.5520630000000  0.4781500000000 1.0
C      1  0.5517060000000  0.5583000000000  0.5514400000000 1.0
C      1  0.4862690000000  0.5086220000000  0.4256450000000 1.0
C      1  0.4295880000000  0.5187260000000  0.4008230000000 1.0
C      1  0.5473750000000  0.5360700000000  0.5841630000000 1.0
C      1  0.4620100000000  0.5338420000000  0.4761900000000 1.0
C      1  0.5384910000000  0.5948050000000  0.4776370000000 1.0
C      1  0.5440410000000  0.5188350000000  0.5561260000000 1.0
C      1  0.4615220000000  0.4473500000000  0.4211010000000 1.0
C      1  0.4213420000000  0.5757520000000  0.5123100000000 1.0
C      1  0.4651440000000  0.5147170000000  0.4482290000000 1.0
C      1  0.4777740000000  0.5511860000000  0.5684820000000 1.0
C      1  0.5590820000000  0.4089890000000  0.5370190000000 1.0
C      1  0.4182230000000  0.4618800000000  0.5422460000000 1.0
C      1  0.5328680000000  0.5977740000000  0.5323950000000 1.0
C      1  0.5807080000000  0.5548760000000  0.4142880000000 1.0
C      1  0.4810920000000  0.4610360000000  0.4075620000000 1.0
C      1  0.4924180000000  0.4610200000000  0.4891760000000 1.0
C      1  0.4111950000000  0.4475590000000  0.4473520000000 1.0
C      1  0.4587580000000  0.4621500000000  0.4490010000000 1.0
C      1  0.4913410000000  0.5274070000000  0.5482670000000 1.0
C      1  0.5141390000000  0.5974430000000  0.4347410000000 1.0
C      1  0.6223130000000  0.5140110000000  0.5328160000000 1.0
C      1  0.4039840000000  0.5681790000000  0.5488650000000 1.0
C      1  0.4454940000000  0.5619290000000  0.5682200000000 1.0
C      1  0.5931880000000  0.5667840000000  0.5057050000000 1.0
C      1  0.5155530000000  0.5580770000000  0.4024930000000 1.0
C      1  0.5963640000000  0.5492950000000  0.4772260000000 1.0
C      1  0.5608470000000  0.4690180000000  0.5374720000000 1.0
C      1  0.4634410000000  0.5802700000000  0.4468630000000 1.0
C      1  0.5125080000000  0.4668200000000  0.6061420000000 1.0
C      1  0.6258750000000  0.4794140000000  0.4862400000000 1.0
C      1  0.5312380000000  0.3956350000000  0.4287290000000 1.0
C      1  0.4624720000000  0.5143420000000  0.5040850000000 1.0
C      1  0.4402150000000  0.4164640000000  0.5110570000000 1.0
C      1  0.3924360000000  0.4703530000000  0.5217370000000 1.0
C      1  0.6215170000000  0.5081050000000  0.5002820000000 1.0
C      1  0.4130440000000  0.4770750000000  0.4832090000000 1.0
C      1  0.4748530000000  0.4880180000000  0.4050880000000 1.0
C      1  0.5559750000000  0.5259650000000  0.4421150000000 1.0
C      1  0.4294810000000  0.4313860000000  0.5322500000000 1.0
C      1  0.4210560000000  0.5362480000000  0.5073000000000 1.0
C      1  0.4418380000000  0.4340350000000  0.4861740000000 1.0
C      1  0.4264330000000  0.4042220000000  0.4579930000000 1.0
C      1  0.4993750000000  0.5608770000000  0.4767920000000 1.0
C      1  0.4896470000000  0.4428800000000  0.5178030000000 1.0
C      1  0.4564110000000  0.5086810000000  0.6095340000000 1.0
C      1  0.4301760000000  0.4897120000000  0.5577490000000 1.0
C      1  0.4610040000000  0.4005070000000  0.5206550000000 1.0
C      1  0.4949440000000  0.5243830000000  0.5053530000000 1.0
C      1  0.5219420000000  0.4263210000000  0.4171080000000 1.0
C      1  0.4947510000000  0.4966640000000  0.5340490000000 1.0
C      1  0.5420000000000  0.4783870000000  0.4798140000000 1.0
C      1  0.4638750000000  0.5249040000000  0.5840210000000 1.0
C      1  0.5689110000000  0.5171270000000  0.4971450000000 1.0
C      1  0.5093170000000  0.5783720000000  0.5699560000000 1.0
C      1  0.4938160000000  0.4654880000000  0.5777630000000 1.0
C      1  0.4844360000000  0.5553130000000  0.4045610000000 1.0
C      1  0.3962770000000  0.5488870000000  0.5268790000000 1.0
C      1  0.5987490000000  0.5204160000000  0.4854420000000 1.0
C      1  0.4786510000000  0.5516460000000  0.4522220000000 1.0
C      1  0.5587930000000  0.4524660000000  0.4740920000000 1.0
C      1  0.5232040000000  0.5382740000000  0.5982180000000 1.0
C      1  0.4418130000000  0.4915550000000  0.4462770000000 1.0
C      1  0.5916510000000  0.4320950000000  0.5068940000000 1.0
C      1  0.5259390000000  0.4939800000000  0.3864000000000 1.0
C      1  0.4596210000000  0.5619070000000  0.4186070000000 1.0
C      1  0.4737250000000  0.4927490000000  0.4702960000000 1.0
C      1  0.5293790000000  0.5725070000000  0.4268010000000 1.0
C      1  0.4600930000000  0.3955600000000  0.5478380000000 1.0
C      1  0.4522520000000  0.5983600000000  0.5199880000000 1.0
C      1  0.5604740000000  0.5748970000000  0.4332510000000 1.0
C      1  0.5599170000000  0.5682330000000  0.5048190000000 1.0
C      1  0.5266640000000  0.5275270000000  0.3925260000000 1.0
C      1  0.5869170000000  0.4979000000000  0.4655790000000 1.0
C      1  0.5183380000000  0.6075970000000  0.4639520000000 1.0
C      1  0.3965340000000  0.5006120000000  0.5107530000000 1.0
C      1  0.5414290000000  0.5261440000000  0.4792370000000 1.0
C      1  0.5680470000000  0.4981470000000  0.5515840000000 1.0
C      1  0.5223270000000  0.5421410000000  0.5442290000000 1.0
C      1  0.3861460000000  0.5145070000000  0.4838090000000 1.0
C      1  0.4269850000000  0.4534470000000  0.5740210000000 1.0
C      1  0.5027060000000  0.5031300000000  0.4549020000000 1.0
C      1  0.4323960000000  0.4876270000000  0.4138350000000 1.0
C      1  0.4689460000000  0.4208260000000  0.5642490000000 1.0
C      1  0.3964960000000  0.5124790000000  0.4338610000000 1.0
C      1  0.5847200000000  0.5873440000000  0.4799720000000 1.0
C      1  0.4923380000000  0.4540570000000  0.4460650000000 1.0
C      1  0.6354770000000  0.5413420000000  0.5438630000000 1.0
C      1  0.4476380000000  0.4749850000000  0.5903240000000 1.0
C      1  0.5730280000000  0.4696680000000  0.5837070000000 1.0
C      1  0.4309540000000  0.4703130000000  0.5118460000000 1.0
C      1  0.5473100000000  0.4238610000000  0.4376300000000 1.0
C      1  0.5180820000000  0.3886120000000  0.4742840000000 1.0
C      1  0.5116190000000  0.5504440000000  0.5060270000000 1.0
C      1  0.5280530000000  0.4898530000000  0.6093740000000 1.0
C      1  0.5104000000000  0.5478060000000  0.4406660000000 1.0
C      1  0.5969060000000  0.4766720000000  0.5684610000000 1.0
C      1  0.5812780000000  0.5535800000000  0.5352000000000 1.0
C      1  0.4037990000000  0.5558630000000  0.5742400000000 1.0
C      1  0.5472750000000  0.3986000000000  0.4599940000000 1.0
C      1  0.3940970000000  0.4524930000000  0.4970960000000 1.0
C      1  0.5821610000000  0.4974780000000  0.4329940000000 1.0
C      1  0.5323080000000  0.4728090000000  0.4041460000000 1.0
C      1  0.5461290000000  0.4115720000000  0.4911900000000 1.0
C      1  0.5935210000000  0.4407850000000  0.5340640000000 1.0
C      1  0.4671280000000  0.4843680000000  0.5194580000000 1.0
C      1  0.5625390000000  0.5890260000000  0.4641310000000 1.0
C      1  0.3994010000000  0.5027510000000  0.5585090000000 1.0
C      1  0.4773290000000  0.4884320000000  0.5925780000000 1.0
C      1  0.3949920000000  0.5423870000000  0.4778990000000 1.0
C      1  0.5043610000000  0.5567040000000  0.5889570000000 1.0
C      1  0.4799480000000  0.5841710000000  0.5183120000000 1.0
C      1  0.4273610000000  0.5276330000000  0.5396690000000 1.0
C      1  0.5947240000000  0.5072000000000  0.5608910000000 1.0
C      1  0.4918380000000  0.5888630000000  0.4583780000000 1.0
C      1  0.5562650000000  0.4779730000000  0.4277300000000 1.0
C      1  0.5202200000000  0.4869020000000  0.5148160000000 1.0
C      1  0.5322720000000  0.5826770000000  0.5555100000000 1.0
C      1  0.5254300000000  0.4432820000000  0.5875300000000 1.0
C      1  0.4300460000000  0.5041640000000  0.5885520000000 1.0
C      1  0.5158380000000  0.3962980000000  0.5278480000000 1.0
C      1  0.5319760000000  0.4407120000000  0.4893050000000 1.0
C      1  0.5596280000000  0.5990970000000  0.5194880000000 1.0
C      1  0.5273090000000  0.4935720000000  0.5696880000000 1.0
C      1  0.4302200000000  0.5040320000000  0.5075060000000 1.0
C      1  0.6056500000000  0.4641340000000  0.5433240000000 1.0
C      1  0.5009420000000  0.4248980000000  0.5620530000000 1.0
C      1  0.4413940000000  0.4323420000000  0.4522110000000 1.0
C      1  0.4829820000000  0.5806360000000  0.5521060000000 1.0
C      1  0.5813000000000  0.5281160000000  0.4225630000000 1.0
C      1  0.4916080000000  0.4363420000000  0.5926790000000 1.0
C      1  0.4584180000000  0.4176660000000  0.4266990000000 1.0
C      1  0.5096270000000  0.4079580000000  0.4512280000000 1.0
C      1  0.4105050000000  0.4380050000000  0.4767070000000 1.0
C      1  0.4268940000000  0.5336000000000  0.5718160000000 1.0
C      1  0.5134930000000  0.4735540000000  0.4656100000000 1.0
C      1  0.5291750000000  0.4974260000000  0.4344180000000 1.0
C      1  0.4593250000000  0.4598660000000  0.4969170000000 1.0
C      1  0.4577200000000  0.4427190000000  0.5866350000000 1.0
C      1  0.4607350000000  0.5301020000000  0.5336130000000 1.0
C      1  0.4748020000000  0.4963270000000  0.3660060000000 1.0
C      1  0.5135220000000  0.5308080000000  0.4691830000000 1.0
C      1  0.5191200000000  0.4469360000000  0.5441270000000 1.0
C      1  0.4424580000000  0.5786200000000  0.5945330000000 1.0
C      1  0.5913700000000  0.4824580000000  0.4955460000000 1.0
C      1  0.4937700000000  0.5250150000000  0.4009070000000 1.0
C      1  0.4999930000000  0.3849320000000  0.4933750000000 1.0
C      1  0.5403930000000  0.5091400000000  0.5237350000000 1.0
C      1  0.3979200000000  0.4961040000000  0.4625380000000 1.0
C      1  0.4294070000000  0.5709250000000  0.4322100000000 1.0
C      1  0.5527560000000  0.4874740000000  0.5914240000000 1.0
C      1  0.4331140000000  0.5822110000000  0.5435590000000 1.0
C      1  0.5102570000000  0.4542230000000  0.4171450000000 1.0
C      1  0.5266800000000  0.4571010000000  0.5153570000000 1.0
C      1  0.5678080000000  0.5564060000000  0.5813270000000 1.0
C      1  0.5816040000000  0.4240420000000  0.4578950000000 1.0
C      1  0.4897060000000  0.4635480000000  0.5448300000000 1.0
C      1  0.5042640000000  0.5660970000000  0.5323120000000 1.0
C      1  0.6020660000000  0.5355660000000  0.5481790000000 1.0
C      1  0.4889770000000  0.4092680000000  0.5127260000000 1.0
C      1  0.5635720000000  0.4489690000000  0.4433080000000 1.0
C      1  0.4976760000000  0.5060440000000  0.5739710000000 1.0
C      1  0.5577030000000  0.5372350000000  0.5186150000000 1.0
C      1  0.5412020000000  0.4007480000000  0.5184540000000 1.0
C      1  0.3949900000000  0.5187090000000  0.5343270000000 1.0
C      1  0.4499460000000  0.5585250000000  0.5188240000000 1.0
C      1  0.5051570000000  0.4350940000000  0.4712220000000 1.0
C      1  0.4532400000000  0.4414950000000  0.5470200000000 1.0
C      1  0.4341530000000  0.5396680000000  0.4221980000000 1.0
END
