TITL C-2847948-6138-528 0.00168266433652157 125000 -870.503262103805 0 0 161 (C1) n - 1
REM
REM in /home/bkarasulu/work/CARBON/AIRSS/Generating-Clusters/AIREBO/with-SteepDescent/Only-C1/SD-CG-opt/Try1-1.4A-POS3A/HFTN-CG
REM
REM
REM
REM
REM
REM ./C.cell (11c1c37f851c82e70ff6c80c92926a4b)
REM
REM compiler GCC version 9.2.1 20190827 (Red Hat 9.2.1-1)
REM options -cpp -mtune=generic -march=x86-64 -g -O0 -fpre-include=/usr/include/finclude/math-vector-fortran.h
REM seed -527835076 -298917964 -1248541292 170139030 -1667438312 1333797766 -1584462704 837577457 382768624 657098591 433523304 -484213518 -950600879 -1292724222 400338950 -525953137 -1112920772 -2054456186 -1677916086 798682133 1618978219 1754440209 -972687020 -462242683 1582037786 -1256090972 325989912 -1541743306 1488606366 790764552 1472136588 -107172384 -482961330
REM
CELL 1.54180   50.00000   50.00000   50.00000   90.00000   90.00000   90.00000
LATT -1
SFAC C  
C      1  0.5287680000000  0.4538240000000  0.4857350000000 1.0
C      1  0.5634970000000  0.5240060000000  0.4869400000000 1.0
C      1  0.4797550000000  0.5049410000000  0.4817660000000 1.0
C      1  0.5864030000000  0.5660350000000  0.5039750000000 1.0
C      1  0.5063780000000  0.4730750000000  0.5123340000000 1.0
C      1  0.4780450000000  0.4250280000000  0.5688610000000 1.0
C      1  0.4443250000000  0.4035730000000  0.4872340000000 1.0
C      1  0.5051460000000  0.5631190000000  0.4432420000000 1.0
C      1  0.5813660000000  0.4719360000000  0.4656210000000 1.0
C      1  0.4650930000000  0.5110510000000  0.4006700000000 1.0
C      1  0.4297660000000  0.5377400000000  0.4605000000000 1.0
C      1  0.5148590000000  0.5535360000000  0.4148840000000 1.0
C      1  0.5408090000000  0.5767620000000  0.5706850000000 1.0
C      1  0.4465750000000  0.5857660000000  0.5085720000000 1.0
C      1  0.4536300000000  0.5182770000000  0.4989690000000 1.0
C      1  0.5212250000000  0.4251850000000  0.5412400000000 1.0
C      1  0.5119860000000  0.5821550000000  0.5634030000000 1.0
C      1  0.5971150000000  0.5450290000000  0.4850710000000 1.0
C      1  0.4610710000000  0.5280640000000  0.5472190000000 1.0
C      1  0.5350560000000  0.4979780000000  0.5906030000000 1.0
C      1  0.5238360000000  0.3733640000000  0.5358450000000 1.0
C      1  0.5854050000000  0.5487030000000  0.5408240000000 1.0
C      1  0.4480280000000  0.4240580000000  0.4235870000000 1.0
C      1  0.4876200000000  0.4872460000000  0.4097660000000 1.0
C      1  0.4737320000000  0.5315080000000  0.5775130000000 1.0
C      1  0.5458150000000  0.4642350000000  0.5479560000000 1.0
C      1  0.4677650000000  0.5673590000000  0.5278150000000 1.0
C      1  0.4546910000000  0.5249170000000  0.4412480000000 1.0
C      1  0.4309730000000  0.4499950000000  0.5601040000000 1.0
C      1  0.5626340000000  0.5895330000000  0.5593830000000 1.0
C      1  0.4604400000000  0.4811580000000  0.5591540000000 1.0
C      1  0.4416610000000  0.5838160000000  0.4749090000000 1.0
C      1  0.4980050000000  0.5294370000000  0.5989190000000 1.0
C      1  0.5170530000000  0.4719700000000  0.4524170000000 1.0
C      1  0.5640250000000  0.4616950000000  0.5026350000000 1.0
C      1  0.6002620000000  0.4558460000000  0.5178730000000 1.0
C      1  0.5771080000000  0.5273000000000  0.5162990000000 1.0
C      1  0.4937380000000  0.4454670000000  0.5383730000000 1.0
C      1  0.4426930000000  0.4285860000000  0.5363770000000 1.0
C      1  0.5828680000000  0.4337960000000  0.5256510000000 1.0
C      1  0.5221990000000  0.5244390000000  0.5757570000000 1.0
C      1  0.4134430000000  0.4844570000000  0.4179860000000 1.0
C      1  0.4855410000000  0.4028870000000  0.5159960000000 1.0
C      1  0.5237370000000  0.5155260000000  0.4811840000000 1.0
C      1  0.5510500000000  0.4719220000000  0.5900020000000 1.0
C      1  0.4680180000000  0.4514630000000  0.4446210000000 1.0
C      1  0.4004470000000  0.5065070000000  0.5146110000000 1.0
C      1  0.5056260000000  0.5253490000000  0.5086730000000 1.0
C      1  0.4303960000000  0.5026230000000  0.5130510000000 1.0
C      1  0.5057530000000  0.4866480000000  0.4811210000000 1.0
C      1  0.6159820000000  0.4666630000000  0.4974090000000 1.0
C      1  0.5437450000000  0.4822870000000  0.4906860000000 1.0
C      1  0.4382530000000  0.4792780000000  0.4919100000000 1.0
C      1  0.5302260000000  0.4533330000000  0.5761660000000 1.0
C      1  0.4411680000000  0.4280310000000  0.5034660000000 1.0
C      1  0.4640490000000  0.3880130000000  0.4982990000000 1.0
C      1  0.4141630000000  0.5039400000000  0.5542210000000 1.0
C      1  0.6012790000000  0.5147310000000  0.4959150000000 1.0
C      1  0.5650100000000  0.4876480000000  0.4442670000000 1.0
C      1  0.5774650000000  0.5411830000000  0.4611260000000 1.0
C      1  0.5345650000000  0.4222210000000  0.5120490000000 1.0
C      1  0.4959010000000  0.5481810000000  0.5319170000000 1.0
C      1  0.4112340000000  0.5552160000000  0.5294310000000 1.0
C      1  0.4563120000000  0.4986310000000  0.4622630000000 1.0
C      1  0.4826340000000  0.5963340000000  0.4648020000000 1.0
C      1  0.4036040000000  0.4510910000000  0.4712400000000 1.0
C      1  0.4886820000000  0.5620500000000  0.5783290000000 1.0
C      1  0.5077530000000  0.4187920000000  0.4955670000000 1.0
C      1  0.5375480000000  0.5260320000000  0.5203590000000 1.0
C      1  0.5372510000000  0.4449030000000  0.4567170000000 1.0
C      1  0.5579280000000  0.5922030000000  0.4612620000000 1.0
C      1  0.4825980000000  0.5882690000000  0.4917870000000 1.0
C      1  0.5492500000000  0.5774840000000  0.5127190000000 1.0
C      1  0.6123960000000  0.5113050000000  0.5259080000000 1.0
C      1  0.5374620000000  0.6021060000000  0.4939990000000 1.0
C      1  0.4257640000000  0.4875110000000  0.4632370000000 1.0
C      1  0.5747720000000  0.4733000000000  0.5739790000000 1.0
C      1  0.3997780000000  0.4629840000000  0.5271870000000 1.0
C      1  0.4617610000000  0.4567360000000  0.5355270000000 1.0
C      1  0.3938000000000  0.5272000000000  0.5347820000000 1.0
C      1  0.5451030000000  0.4962880000000  0.5589520000000 1.0
C      1  0.4440260000000  0.5020140000000  0.5422460000000 1.0
C      1  0.5300380000000  0.6024320000000  0.4641370000000 1.0
C      1  0.4905200000000  0.4436910000000  0.5059030000000 1.0
C      1  0.5062530000000  0.4992290000000  0.6023690000000 1.0
C      1  0.4948710000000  0.4626540000000  0.4308190000000 1.0
C      1  0.4326640000000  0.4633620000000  0.5191950000000 1.0
C      1  0.4792750000000  0.5835970000000  0.5542210000000 1.0
C      1  0.5658030000000  0.4432040000000  0.4751540000000 1.0
C      1  0.4602310000000  0.4662460000000  0.4694290000000 1.0
C      1  0.5212310000000  0.4963150000000  0.4291820000000 1.0
C      1  0.5408600000000  0.5396480000000  0.4081940000000 1.0
C      1  0.4125960000000  0.4704050000000  0.5529410000000 1.0
C      1  0.5191140000000  0.4903560000000  0.3959890000000 1.0
C      1  0.4700920000000  0.4189340000000  0.4478320000000 1.0
C      1  0.5187940000000  0.4917700000000  0.5378940000000 1.0
C      1  0.5096820000000  0.5216810000000  0.5482770000000 1.0
C      1  0.4778040000000  0.5410130000000  0.4065790000000 1.0
C      1  0.6014340000000  0.4856250000000  0.4815230000000 1.0
C      1  0.5174070000000  0.5572130000000  0.5959800000000 1.0
C      1  0.5047560000000  0.4331980000000  0.4220430000000 1.0
C      1  0.5717340000000  0.4451150000000  0.5539250000000 1.0
C      1  0.5062850000000  0.5231930000000  0.4543750000000 1.0
C      1  0.4185990000000  0.4615020000000  0.4425420000000 1.0
C      1  0.5072680000000  0.4667500000000  0.5580330000000 1.0
C      1  0.4417950000000  0.5510970000000  0.5425980000000 1.0
C      1  0.5053270000000  0.5226560000000  0.4145520000000 1.0
C      1  0.5120250000000  0.5844890000000  0.5314950000000 1.0
C      1  0.4108520000000  0.5140320000000  0.4565130000000 1.0
C      1  0.4635000000000  0.4478590000000  0.4947820000000 1.0
C      1  0.3859740000000  0.4835500000000  0.5143020000000 1.0
C      1  0.4902030000000  0.5372870000000  0.4808160000000 1.0
C      1  0.4039340000000  0.5125590000000  0.4280760000000 1.0
C      1  0.5120740000000  0.3961330000000  0.5323440000000 1.0
C      1  0.4422370000000  0.4095550000000  0.4600440000000 1.0
C      1  0.5155440000000  0.4202960000000  0.4656450000000 1.0
C      1  0.4842390000000  0.5090550000000  0.4356520000000 1.0
C      1  0.4598630000000  0.5850960000000  0.4489440000000 1.0
C      1  0.5753710000000  0.5336660000000  0.5696740000000 1.0
C      1  0.5734140000000  0.5769150000000  0.5334700000000 1.0
C      1  0.5347600000000  0.4555180000000  0.5189620000000 1.0
C      1  0.4781800000000  0.4836250000000  0.5231090000000 1.0
C      1  0.5844660000000  0.5009120000000  0.5677370000000 1.0
C      1  0.4697120000000  0.4142000000000  0.5439320000000 1.0
C      1  0.4794530000000  0.4583180000000  0.5756850000000 1.0
C      1  0.4763070000000  0.5130550000000  0.5207570000000 1.0
C      1  0.5439910000000  0.4274690000000  0.5625950000000 1.0
C      1  0.5590560000000  0.5210740000000  0.5445420000000 1.0
C      1  0.5774390000000  0.4787740000000  0.5267410000000 1.0
C      1  0.5705740000000  0.5118500000000  0.4221560000000 1.0
C      1  0.4440720000000  0.5450600000000  0.4888840000000 1.0
C      1  0.5266130000000  0.5572890000000  0.5203830000000 1.0
C      1  0.4554060000000  0.4780640000000  0.4039070000000 1.0
C      1  0.4904740000000  0.4766200000000  0.6016780000000 1.0
C      1  0.5651760000000  0.4225490000000  0.5027900000000 1.0
C      1  0.4210820000000  0.5645780000000  0.5031120000000 1.0
C      1  0.5370890000000  0.5187340000000  0.3905800000000 1.0
C      1  0.4758850000000  0.5487320000000  0.4531130000000 1.0
C      1  0.5314680000000  0.5438570000000  0.4497660000000 1.0
C      1  0.5600320000000  0.5384640000000  0.4353100000000 1.0
C      1  0.5516140000000  0.5006690000000  0.4685880000000 1.0
C      1  0.4976930000000  0.5979480000000  0.5134170000000 1.0
C      1  0.4586460000000  0.5045140000000  0.5793320000000 1.0
C      1  0.4148340000000  0.5376470000000  0.5587330000000 1.0
C      1  0.5410160000000  0.5457060000000  0.4797950000000 1.0
C      1  0.5954040000000  0.4979240000000  0.5418890000000 1.0
C      1  0.5444060000000  0.4342370000000  0.4300830000000 1.0
C      1  0.5074340000000  0.5914800000000  0.4526610000000 1.0
C      1  0.4171370000000  0.5664500000000  0.4693770000000 1.0
C      1  0.5471550000000  0.4934350000000  0.5191850000000 1.0
C      1  0.4691880000000  0.5619720000000  0.4257920000000 1.0
C      1  0.4222510000000  0.4275450000000  0.4428760000000 1.0
C      1  0.5456120000000  0.5463900000000  0.5802020000000 1.0
C      1  0.5610070000000  0.5704350000000  0.4828630000000 1.0
C      1  0.4160990000000  0.4462040000000  0.4949490000000 1.0
C      1  0.5489000000000  0.4889040000000  0.4141540000000 1.0
C      1  0.4722790000000  0.5585770000000  0.4952750000000 1.0
C      1  0.4467870000000  0.4516910000000  0.5824310000000 1.0
C      1  0.4457090000000  0.4573050000000  0.4224480000000 1.0
C      1  0.4991270000000  0.4154940000000  0.4431590000000 1.0
C      1  0.4359120000000  0.5105080000000  0.4167060000000 1.0
END
