TITL C-2847948-6138-500 0.000289523635229988 125000 -924.590150601377 0 0 169 (C1) n - 1
REM
REM in /home/bkarasulu/work/CARBON/AIRSS/Generating-Clusters/AIREBO/with-SteepDescent/Only-C1/SD-CG-opt/Try1-1.4A-POS3A/HFTN-CG
REM
REM
REM
REM
REM
REM ./C.cell (11c1c37f851c82e70ff6c80c92926a4b)
REM
REM compiler GCC version 9.2.1 20190827 (Red Hat 9.2.1-1)
REM options -cpp -mtune=generic -march=x86-64 -g -O0 -fpre-include=/usr/include/finclude/math-vector-fortran.h
REM seed 1886042529 -1731306677 31002163 -699577014 -1636084290 1843088187 -2085148176 1629073463 901910384 1365995210 656325591 2017096329 -1094401940 828090173 1172883233 -193339211 2094634447 -192372391 -489754399 -1520407267 1236275153 1308888601 -617824001 637412762 189164493 -1795081217 -78039134 -1967759497 -2039028709 -1633530621 -889220406 -1580985547 1979557810
REM
CELL 1.54180   50.00000   50.00000   50.00000   90.00000   90.00000   90.00000
LATT -1
SFAC C  
C      1  0.5495070000000  0.4661690000000  0.5765850000000 1.0
C      1  0.5957350000000  0.5027340000000  0.5260960000000 1.0
C      1  0.4897780000000  0.4907920000000  0.4314130000000 1.0
C      1  0.5843230000000  0.5068990000000  0.4967290000000 1.0
C      1  0.4555810000000  0.5254720000000  0.5098930000000 1.0
C      1  0.4865830000000  0.4502200000000  0.5987170000000 1.0
C      1  0.4513530000000  0.4981140000000  0.4946970000000 1.0
C      1  0.4620870000000  0.4155440000000  0.5598930000000 1.0
C      1  0.5236450000000  0.5471380000000  0.5596820000000 1.0
C      1  0.5042570000000  0.5585570000000  0.5346150000000 1.0
C      1  0.5297130000000  0.4241480000000  0.5122120000000 1.0
C      1  0.4876610000000  0.5932230000000  0.4789000000000 1.0
C      1  0.5169530000000  0.5535930000000  0.5096170000000 1.0
C      1  0.6011910000000  0.4698030000000  0.4551130000000 1.0
C      1  0.4513730000000  0.4823450000000  0.5379130000000 1.0
C      1  0.4975290000000  0.5209710000000  0.6013920000000 1.0
C      1  0.4211920000000  0.5483970000000  0.5598890000000 1.0
C      1  0.4999800000000  0.5613610000000  0.5796430000000 1.0
C      1  0.5793360000000  0.5881720000000  0.4969710000000 1.0
C      1  0.4536600000000  0.5394330000000  0.5385290000000 1.0
C      1  0.4589190000000  0.4164630000000  0.4640970000000 1.0
C      1  0.5398500000000  0.4552700000000  0.5029640000000 1.0
C      1  0.5813400000000  0.4603440000000  0.5831000000000 1.0
C      1  0.4076410000000  0.5196760000000  0.5515780000000 1.0
C      1  0.4356930000000  0.5682970000000  0.5381830000000 1.0
C      1  0.5700170000000  0.5949400000000  0.4745820000000 1.0
C      1  0.4738420000000  0.4577710000000  0.4823370000000 1.0
C      1  0.4429120000000  0.4914020000000  0.6018780000000 1.0
C      1  0.5160260000000  0.5421770000000  0.5986000000000 1.0
C      1  0.5485490000000  0.4500800000000  0.4731850000000 1.0
C      1  0.5378700000000  0.4842470000000  0.3957150000000 1.0
C      1  0.5181860000000  0.5377520000000  0.4457610000000 1.0
C      1  0.3852470000000  0.5185410000000  0.5267970000000 1.0
C      1  0.4821930000000  0.4910010000000  0.5019000000000 1.0
C      1  0.4611980000000  0.4228840000000  0.4373710000000 1.0
C      1  0.4264000000000  0.4928070000000  0.6232640000000 1.0
C      1  0.5559970000000  0.5549700000000  0.5666170000000 1.0
C      1  0.4796700000000  0.4738410000000  0.3874330000000 1.0
C      1  0.4124350000000  0.5142880000000  0.4321670000000 1.0
C      1  0.4114470000000  0.4102450000000  0.5478810000000 1.0
C      1  0.5807530000000  0.5282420000000  0.4705020000000 1.0
C      1  0.4130380000000  0.4777500000000  0.5247950000000 1.0
C      1  0.4720930000000  0.5428590000000  0.5746790000000 1.0
C      1  0.5130110000000  0.5805490000000  0.3748190000000 1.0
C      1  0.5290600000000  0.4779940000000  0.5521140000000 1.0
C      1  0.4001610000000  0.5481260000000  0.4789470000000 1.0
C      1  0.4567920000000  0.4544350000000  0.5654140000000 1.0
C      1  0.5202060000000  0.5588340000000  0.3856100000000 1.0
C      1  0.5179530000000  0.5877280000000  0.4681270000000 1.0
C      1  0.4799860000000  0.4065630000000  0.5404040000000 1.0
C      1  0.5495970000000  0.4191550000000  0.5581270000000 1.0
C      1  0.4369860000000  0.5379480000000  0.4896480000000 1.0
C      1  0.5315910000000  0.4883220000000  0.5032650000000 1.0
C      1  0.5247910000000  0.4697880000000  0.4210940000000 1.0
C      1  0.5730710000000  0.5557750000000  0.5441220000000 1.0
C      1  0.4920920000000  0.4299190000000  0.4035190000000 1.0
C      1  0.3821270000000  0.4742700000000  0.4898360000000 1.0
C      1  0.5264830000000  0.5005550000000  0.5297190000000 1.0
C      1  0.5227810000000  0.4778740000000  0.4540820000000 1.0
C      1  0.5967630000000  0.4961720000000  0.5582890000000 1.0
C      1  0.5496330000000  0.5488450000000  0.5125430000000 1.0
C      1  0.4323860000000  0.4305090000000  0.5539360000000 1.0
C      1  0.4105070000000  0.5633050000000  0.4580310000000 1.0
C      1  0.5496810000000  0.5312270000000  0.4568420000000 1.0
C      1  0.4437630000000  0.5443940000000  0.5816870000000 1.0
C      1  0.4319250000000  0.5214610000000  0.4135140000000 1.0
C      1  0.4031400000000  0.5463220000000  0.5309880000000 1.0
C      1  0.4727070000000  0.5705190000000  0.4641110000000 1.0
C      1  0.4422430000000  0.5742620000000  0.4495320000000 1.0
C      1  0.5108440000000  0.4195070000000  0.4843010000000 1.0
C      1  0.4398050000000  0.5904770000000  0.5235700000000 1.0
C      1  0.5922860000000  0.4539180000000  0.5370330000000 1.0
C      1  0.5750670000000  0.4313300000000  0.4760660000000 1.0
C      1  0.4114480000000  0.5167400000000  0.4822640000000 1.0
C      1  0.4202150000000  0.4748310000000  0.3996830000000 1.0
C      1  0.4543900000000  0.4538550000000  0.4312740000000 1.0
C      1  0.5898800000000  0.4416340000000  0.4993080000000 1.0
C      1  0.5427350000000  0.4909170000000  0.5986980000000 1.0
C      1  0.4835920000000  0.5109460000000  0.5720250000000 1.0
C      1  0.4367630000000  0.4739900000000  0.5808130000000 1.0
C      1  0.5617180000000  0.5766040000000  0.5197540000000 1.0
C      1  0.5972950000000  0.4683310000000  0.5622980000000 1.0
C      1  0.5372210000000  0.4182860000000  0.5837000000000 1.0
C      1  0.5376530000000  0.5963810000000  0.5204230000000 1.0
C      1  0.5572270000000  0.5602200000000  0.4410150000000 1.0
C      1  0.5499790000000  0.5031070000000  0.5615220000000 1.0
C      1  0.5679950000000  0.5042310000000  0.6016130000000 1.0
C      1  0.4417760000000  0.4772070000000  0.4140640000000 1.0
C      1  0.5316820000000  0.4145190000000  0.4457940000000 1.0
C      1  0.5639830000000  0.4641710000000  0.5212210000000 1.0
C      1  0.5817230000000  0.4249390000000  0.5235380000000 1.0
C      1  0.6072220000000  0.5068780000000  0.4742560000000 1.0
C      1  0.5078710000000  0.5837910000000  0.5571170000000 1.0
C      1  0.4851140000000  0.4599030000000  0.4179710000000 1.0
C      1  0.5012520000000  0.4628480000000  0.5012080000000 1.0
C      1  0.4261310000000  0.4568150000000  0.4768930000000 1.0
C      1  0.5715600000000  0.4641670000000  0.4540030000000 1.0
C      1  0.5039930000000  0.4624900000000  0.5351610000000 1.0
C      1  0.5550160000000  0.4480480000000  0.5497890000000 1.0
C      1  0.5625840000000  0.4577410000000  0.4261840000000 1.0
C      1  0.4809100000000  0.4067640000000  0.5075040000000 1.0
C      1  0.5043400000000  0.4054820000000  0.4474700000000 1.0
C      1  0.5288520000000  0.4438600000000  0.5925900000000 1.0
C      1  0.5043960000000  0.4288260000000  0.5310620000000 1.0
C      1  0.3949690000000  0.4558370000000  0.4782340000000 1.0
C      1  0.4638850000000  0.4654990000000  0.5140670000000 1.0
C      1  0.5977620000000  0.5458690000000  0.4500060000000 1.0
C      1  0.5611840000000  0.5354490000000  0.4187860000000 1.0
C      1  0.4627030000000  0.5882400000000  0.4985350000000 1.0
C      1  0.5507840000000  0.4885850000000  0.4627680000000 1.0
C      1  0.5566730000000  0.4138310000000  0.5296470000000 1.0
C      1  0.4591610000000  0.5111980000000  0.5494240000000 1.0
C      1  0.5088070000000  0.4990130000000  0.4864170000000 1.0
C      1  0.4504080000000  0.5457170000000  0.4632330000000 1.0
C      1  0.4467340000000  0.5201330000000  0.3869030000000 1.0
C      1  0.4759000000000  0.5616560000000  0.5478050000000 1.0
C      1  0.5234110000000  0.5152170000000  0.5685950000000 1.0
C      1  0.4198860000000  0.4616570000000  0.5539630000000 1.0
C      1  0.4750630000000  0.4369760000000  0.5160640000000 1.0
C      1  0.4744810000000  0.4332770000000  0.5805360000000 1.0
C      1  0.5189330000000  0.4718930000000  0.6014720000000 1.0
C      1  0.4856510000000  0.5275290000000  0.5178060000000 1.0
C      1  0.5362830000000  0.5385610000000  0.4848710000000 1.0
C      1  0.4856160000000  0.4131490000000  0.4263080000000 1.0
C      1  0.5045410000000  0.5979120000000  0.5274740000000 1.0
C      1  0.5190010000000  0.5703380000000  0.4413290000000 1.0
C      1  0.4609460000000  0.4959550000000  0.4647930000000 1.0
C      1  0.5145490000000  0.4504420000000  0.4724280000000 1.0
C      1  0.5155080000000  0.6045020000000  0.4959230000000 1.0
C      1  0.4345810000000  0.5721490000000  0.4887090000000 1.0
C      1  0.5051790000000  0.5191360000000  0.4246690000000 1.0
C      1  0.5900230000000  0.5346180000000  0.5367270000000 1.0
C      1  0.4804450000000  0.4723830000000  0.5524840000000 1.0
C      1  0.4179620000000  0.5012210000000  0.4557160000000 1.0
C      1  0.4605500000000  0.5047000000000  0.4209910000000 1.0
C      1  0.5566210000000  0.5065190000000  0.4344020000000 1.0
C      1  0.4081680000000  0.5602040000000  0.5061700000000 1.0
C      1  0.5627180000000  0.4866140000000  0.4945740000000 1.0
C      1  0.5036550000000  0.5299520000000  0.4890640000000 1.0
C      1  0.5447960000000  0.5369650000000  0.3942570000000 1.0
C      1  0.3957150000000  0.4991090000000  0.5047100000000 1.0
C      1  0.5860650000000  0.5098550000000  0.5808400000000 1.0
C      1  0.4205220000000  0.5935100000000  0.4662940000000 1.0
C      1  0.4682060000000  0.4985940000000  0.3882430000000 1.0
C      1  0.5330070000000  0.5073300000000  0.3824140000000 1.0
C      1  0.5494710000000  0.5851390000000  0.4556400000000 1.0
C      1  0.4660920000000  0.5074500000000  0.6009850000000 1.0
C      1  0.4506380000000  0.4386580000000  0.4783970000000 1.0
C      1  0.5060570000000  0.4446560000000  0.4400100000000 1.0
C      1  0.5126550000000  0.5284020000000  0.3974880000000 1.0
C      1  0.4294450000000  0.4787270000000  0.4989660000000 1.0
C      1  0.4850920000000  0.4029790000000  0.4754300000000 1.0
C      1  0.4390720000000  0.4746300000000  0.4535150000000 1.0
C      1  0.4904280000000  0.4811860000000  0.4640350000000 1.0
C      1  0.5363560000000  0.4383370000000  0.4259230000000 1.0
C      1  0.4899540000000  0.5412740000000  0.4622970000000 1.0
C      1  0.5614740000000  0.4833980000000  0.4135970000000 1.0
C      1  0.5910150000000  0.5455430000000  0.4255850000000 1.0
C      1  0.4688720000000  0.5891590000000  0.5507940000000 1.0
C      1  0.5521090000000  0.4109980000000  0.4659700000000 1.0
C      1  0.4733650000000  0.6050200000000  0.5250560000000 1.0
C      1  0.4922640000000  0.4801070000000  0.5834820000000 1.0
C      1  0.4226070000000  0.4954300000000  0.5504610000000 1.0
C      1  0.4645490000000  0.5224820000000  0.4496330000000 1.0
C      1  0.5007000000000  0.5176590000000  0.5434050000000 1.0
C      1  0.5996460000000  0.4727040000000  0.5104210000000 1.0
C      1  0.5388940000000  0.4003380000000  0.4897360000000 1.0
C      1  0.5439430000000  0.5471910000000  0.5941190000000 1.0
C      1  0.5375440000000  0.5297060000000  0.5340110000000 1.0
END
