TITL C-2848506-1665-146 -0.000759893503358585 125000 -431.031250609495 0 0 80 (C1) n - 1
REM
REM in /home/bkarasulu/work/CARBON/AIRSS/Generating-Clusters/AIREBO/with-SteepDescent/Only-C1/SD-CG-opt/Try1-1.4A-POS3A/HFTN-CG
REM
REM
REM
REM
REM
REM ./C.cell (11c1c37f851c82e70ff6c80c92926a4b)
REM
REM compiler GCC version 9.2.1 20190827 (Red Hat 9.2.1-1)
REM options -cpp -mtune=generic -march=x86-64 -g -O0 -fpre-include=/usr/include/finclude/math-vector-fortran.h
REM seed -1115346255 -1425705549 1543237140 1084660219 1483716333 -763821822 -311664714 -1163829656 -96147668 1729475346 698224412 -491143806 1192258992 -1407661222 1880123327 583102066 -760122424 -421751048 952036996 450920606 -94165207 -197512670 577954241 -1929468969 -1914234806 -1347589020 -1078962110 -1728514639 1020505209 1977023465 1421309219 -1944064478 845881697
REM
CELL 1.54180   50.00000   50.00000   50.00000   90.00000   90.00000   90.00000
LATT -1
SFAC C  
C      1  0.5457010000000  0.4815130000000  0.5741000000000 1.0
C      1  0.4380600000000  0.4393490000000  0.4761590000000 1.0
C      1  0.5438800000000  0.5354060000000  0.5015090000000 1.0
C      1  0.4447120000000  0.5256450000000  0.4752460000000 1.0
C      1  0.5120730000000  0.5833210000000  0.4491050000000 1.0
C      1  0.5260720000000  0.5328350000000  0.5513030000000 1.0
C      1  0.5415320000000  0.4384220000000  0.5299570000000 1.0
C      1  0.5441730000000  0.4851640000000  0.4369640000000 1.0
C      1  0.5454730000000  0.4531670000000  0.4461530000000 1.0
C      1  0.4319560000000  0.5303420000000  0.5351490000000 1.0
C      1  0.5770390000000  0.5008320000000  0.4770970000000 1.0
C      1  0.5062310000000  0.4328910000000  0.5590100000000 1.0
C      1  0.5559300000000  0.5737750000000  0.5316300000000 1.0
C      1  0.4910320000000  0.5228040000000  0.4940340000000 1.0
C      1  0.5150150000000  0.5503020000000  0.5122540000000 1.0
C      1  0.5285520000000  0.4681500000000  0.4135780000000 1.0
C      1  0.5171100000000  0.4925250000000  0.5800830000000 1.0
C      1  0.5305380000000  0.4213460000000  0.5505440000000 1.0
C      1  0.4967090000000  0.4539790000000  0.4630190000000 1.0
C      1  0.5439580000000  0.4408480000000  0.4175240000000 1.0
C      1  0.4652080000000  0.5608040000000  0.4975280000000 1.0
C      1  0.4359540000000  0.4842400000000  0.5035150000000 1.0
C      1  0.5036870000000  0.4097510000000  0.4863560000000 1.0
C      1  0.5165000000000  0.4518870000000  0.5147170000000 1.0
C      1  0.5017340000000  0.4705640000000  0.4124390000000 1.0
C      1  0.5723550000000  0.5281500000000  0.5284700000000 1.0
C      1  0.5207720000000  0.5198960000000  0.4870590000000 1.0
C      1  0.4656070000000  0.4952880000000  0.5523360000000 1.0
C      1  0.5399380000000  0.4533100000000  0.4732520000000 1.0
C      1  0.5041400000000  0.4782870000000  0.4972040000000 1.0
C      1  0.4598310000000  0.5467630000000  0.5243780000000 1.0
C      1  0.4757030000000  0.5169380000000  0.5204210000000 1.0
C      1  0.4978680000000  0.4844960000000  0.5532200000000 1.0
C      1  0.5411750000000  0.4802510000000  0.4828570000000 1.0
C      1  0.4732100000000  0.5097610000000  0.4733640000000 1.0
C      1  0.4748760000000  0.5685680000000  0.5769950000000 1.0
C      1  0.5237390000000  0.5003680000000  0.5414590000000 1.0
C      1  0.5187500000000  0.5302530000000  0.4449700000000 1.0
C      1  0.4767130000000  0.4057550000000  0.4873640000000 1.0
C      1  0.5607630000000  0.5057420000000  0.5065450000000 1.0
C      1  0.3877730000000  0.4729820000000  0.5462780000000 1.0
C      1  0.4945460000000  0.5543840000000  0.4874920000000 1.0
C      1  0.4723210000000  0.4623360000000  0.4217930000000 1.0
C      1  0.4449760000000  0.4945400000000  0.4504220000000 1.0
C      1  0.5586990000000  0.4812930000000  0.5509960000000 1.0
C      1  0.4907180000000  0.4783410000000  0.5920590000000 1.0
C      1  0.4260070000000  0.5128290000000  0.4901520000000 1.0
C      1  0.5782000000000  0.4813600000000  0.5231290000000 1.0
C      1  0.4164680000000  0.5155220000000  0.5186530000000 1.0
C      1  0.5235580000000  0.6064590000000  0.4436840000000 1.0
C      1  0.5686420000000  0.5545790000000  0.5147500000000 1.0
C      1  0.4467990000000  0.5535330000000  0.4785810000000 1.0
C      1  0.4739670000000  0.5579710000000  0.4140760000000 1.0
C      1  0.4733640000000  0.5482450000000  0.5555380000000 1.0
C      1  0.5312490000000  0.5642000000000  0.5386990000000 1.0
C      1  0.4534450000000  0.5229600000000  0.5554800000000 1.0
C      1  0.5181770000000  0.5241610000000  0.5823330000000 1.0
C      1  0.5671100000000  0.5011680000000  0.4526600000000 1.0
C      1  0.4390840000000  0.4710880000000  0.4745960000000 1.0
C      1  0.4797560000000  0.5442320000000  0.4355980000000 1.0
C      1  0.4685970000000  0.5172050000000  0.4412140000000 1.0
C      1  0.4964740000000  0.5367460000000  0.5363790000000 1.0
C      1  0.5306690000000  0.4913470000000  0.5131360000000 1.0
C      1  0.5342400000000  0.6290840000000  0.4358760000000 1.0
C      1  0.4957630000000  0.4854050000000  0.4650210000000 1.0
C      1  0.5957720000000  0.4891430000000  0.4970410000000 1.0
C      1  0.5591880000000  0.5251900000000  0.5522540000000 1.0
C      1  0.5012580000000  0.4554780000000  0.5437950000000 1.0
C      1  0.5146570000000  0.4385560000000  0.4849180000000 1.0
C      1  0.4581980000000  0.4666700000000  0.4468220000000 1.0
C      1  0.4079200000000  0.4850200000000  0.5215910000000 1.0
C      1  0.5012210000000  0.5559380000000  0.4570690000000 1.0
C      1  0.4686360000000  0.4785490000000  0.5797850000000 1.0
C      1  0.5257080000000  0.5009530000000  0.4607570000000 1.0
C      1  0.5627130000000  0.4547520000000  0.5344780000000 1.0
C      1  0.4547090000000  0.4184240000000  0.4779840000000 1.0
C      1  0.4612180000000  0.4878150000000  0.5206280000000 1.0
C      1  0.4864700000000  0.4913060000000  0.4330540000000 1.0
C      1  0.3871400000000  0.4581550000000  0.5199940000000 1.0
C      1  0.4803240000000  0.4683900000000  0.5123670000000 1.0
END
