TITL C-2847954-6904-135 0.00138408401542898 125000 -368.665434324796 0 0 69 (C1) n - 1
REM
REM in /home/bkarasulu/work/CARBON/AIRSS/Generating-Clusters/AIREBO/with-SteepDescent/Only-C1/SD-CG-opt/Try1-1.4A-POS3A/HFTN-CG
REM
REM
REM
REM
REM
REM ./C.cell (11c1c37f851c82e70ff6c80c92926a4b)
REM
REM compiler GCC version 9.2.1 20190827 (Red Hat 9.2.1-1)
REM options -cpp -mtune=generic -march=x86-64 -g -O0 -fpre-include=/usr/include/finclude/math-vector-fortran.h
REM seed -683843297 381227872 -1003433294 -1238745635 -786323938 -230438662 -1883211793 1420686845 -1924762839 1876249494 1833149362 813148468 -1388416783 -2002220366 265581496 1866823924 -2125070876 -942230 -1572372078 508499947 41949686 -743866419 1141169675 889786368 1930624694 -102458139 588323632 921786944 -1779600151 -227071454 -1639761286 1758107784 -2137703259
REM
CELL 1.54180   50.00000   50.00000   50.00000   90.00000   90.00000   90.00000
LATT -1
SFAC C  
C      1  0.5462710000000  0.5176550000000  0.5287210000000 1.0
C      1  0.5276920000000  0.4617900000000  0.5404980000000 1.0
C      1  0.5080270000000  0.5496480000000  0.5601290000000 1.0
C      1  0.4792640000000  0.4592960000000  0.5130440000000 1.0
C      1  0.5520980000000  0.5507600000000  0.5235050000000 1.0
C      1  0.4835370000000  0.4645260000000  0.4345400000000 1.0
C      1  0.5823900000000  0.5016170000000  0.5601000000000 1.0
C      1  0.5560980000000  0.5209890000000  0.4436210000000 1.0
C      1  0.4676570000000  0.4343830000000  0.4930040000000 1.0
C      1  0.4883280000000  0.5105420000000  0.5307040000000 1.0
C      1  0.5270340000000  0.5627580000000  0.4536930000000 1.0
C      1  0.5628520000000  0.4967250000000  0.5417990000000 1.0
C      1  0.5873770000000  0.4643230000000  0.4939020000000 1.0
C      1  0.4728980000000  0.5110240000000  0.4584940000000 1.0
C      1  0.5774860000000  0.5041900000000  0.4355570000000 1.0
C      1  0.4415500000000  0.5177890000000  0.4698100000000 1.0
C      1  0.5626250000000  0.5843070000000  0.5142850000000 1.0
C      1  0.4402790000000  0.5548440000000  0.5225420000000 1.0
C      1  0.4582200000000  0.4419690000000  0.4709240000000 1.0
C      1  0.4530120000000  0.4915020000000  0.5469050000000 1.0
C      1  0.4586760000000  0.5567060000000  0.5395380000000 1.0
C      1  0.5089500000000  0.5656920000000  0.5818600000000 1.0
C      1  0.4723150000000  0.5123430000000  0.5601390000000 1.0
C      1  0.4873450000000  0.5462740000000  0.4844150000000 1.0
C      1  0.4683410000000  0.4947140000000  0.4878270000000 1.0
C      1  0.5183030000000  0.5384930000000  0.5093230000000 1.0
C      1  0.5264750000000  0.4510520000000  0.4579480000000 1.0
C      1  0.5543060000000  0.4716730000000  0.5316050000000 1.0
C      1  0.4383220000000  0.4844810000000  0.4637160000000 1.0
C      1  0.4803050000000  0.4572780000000  0.5529440000000 1.0
C      1  0.4403220000000  0.5374600000000  0.4970260000000 1.0
C      1  0.5743870000000  0.4770140000000  0.4417380000000 1.0
C      1  0.4989450000000  0.4799100000000  0.5410320000000 1.0
C      1  0.4516660000000  0.4457860000000  0.5276060000000 1.0
C      1  0.5197390000000  0.4386330000000  0.4877730000000 1.0
C      1  0.4862060000000  0.5167740000000  0.5013300000000 1.0
C      1  0.5106670000000  0.4881320000000  0.5860070000000 1.0
C      1  0.4824510000000  0.4320070000000  0.5330920000000 1.0
C      1  0.5440780000000  0.4408240000000  0.5086700000000 1.0
C      1  0.5125670000000  0.4382430000000  0.5211870000000 1.0
C      1  0.5302040000000  0.5658890000000  0.5023350000000 1.0
C      1  0.5317780000000  0.5009900000000  0.5072510000000 1.0
C      1  0.5053510000000  0.4515560000000  0.4352760000000 1.0
C      1  0.5083750000000  0.4763640000000  0.5086630000000 1.0
C      1  0.5019700000000  0.5126760000000  0.4554470000000 1.0
C      1  0.5145530000000  0.5171690000000  0.4845880000000 1.0
C      1  0.4304840000000  0.4852050000000  0.4963740000000 1.0
C      1  0.4609020000000  0.5519720000000  0.4773140000000 1.0
C      1  0.5210230000000  0.4673680000000  0.5718790000000 1.0
C      1  0.4567230000000  0.4844690000000  0.5169030000000 1.0
C      1  0.4562650000000  0.4676070000000  0.5607830000000 1.0
C      1  0.5604410000000  0.4664710000000  0.5008930000000 1.0
C      1  0.5483530000000  0.5478320000000  0.4444730000000 1.0
C      1  0.4284860000000  0.4547280000000  0.5171440000000 1.0
C      1  0.4880630000000  0.5033130000000  0.5851970000000 1.0
C      1  0.4696210000000  0.4711780000000  0.4633070000000 1.0
C      1  0.5530120000000  0.4673070000000  0.4549670000000 1.0
C      1  0.5420210000000  0.4855310000000  0.4802900000000 1.0
C      1  0.4814530000000  0.5408760000000  0.5502750000000 1.0
C      1  0.5345050000000  0.5026400000000  0.4533180000000 1.0
C      1  0.5302630000000  0.5413550000000  0.5471480000000 1.0
C      1  0.4526270000000  0.5469590000000  0.4294180000000 1.0
C      1  0.4990290000000  0.4635270000000  0.4786090000000 1.0
C      1  0.4547430000000  0.5191780000000  0.4323860000000 1.0
C      1  0.4349870000000  0.4993720000000  0.4349440000000 1.0
C      1  0.4528630000000  0.5621820000000  0.4525440000000 1.0
C      1  0.4187540000000  0.5117360000000  0.5015580000000 1.0
C      1  0.5119010000000  0.5621250000000  0.4779280000000 1.0
C      1  0.5121870000000  0.4983010000000  0.4282360000000 1.0
END
