TITL C-2847951-7423-373 -0.00349444395226062 125000 -813.515141970293 0 0 154 (C1) n - 1
REM
REM in /home/bkarasulu/work/CARBON/AIRSS/Generating-Clusters/AIREBO/with-SteepDescent/Only-C1/SD-CG-opt/Try1-1.4A-POS3A/HFTN-CG
REM
REM
REM
REM
REM
REM ./C.cell (11c1c37f851c82e70ff6c80c92926a4b)
REM
REM compiler GCC version 9.2.1 20190827 (Red Hat 9.2.1-1)
REM options -cpp -mtune=generic -march=x86-64 -g -O0 -fpre-include=/usr/include/finclude/math-vector-fortran.h
REM seed 467701481 845750395 -961968825 927025959 -578975049 1936177442 -1113139956 -1612524391 -992220551 255892092 2093024491 1127121478 -993031496 -514147345 2101338413 2063500592 -791992459 625295642 2053698055 -1305939404 685581072 -380427850 -469147862 -626127120 -1286524044 -1079504213 -1138844214 -1931125598 -1467433996 -1186725879 -558765952 1209558233 313053637
REM
CELL 1.54180   50.00000   50.00000   50.00000   90.00000   90.00000   90.00000
LATT -1
SFAC C  
C      1  0.5727890000000  0.5326420000000  0.5884480000000 1.0
C      1  0.4905590000000  0.4297690000000  0.5762050000000 1.0
C      1  0.4583620000000  0.5124140000000  0.4112330000000 1.0
C      1  0.4347440000000  0.5002600000000  0.5007670000000 1.0
C      1  0.5047100000000  0.5287660000000  0.4484890000000 1.0
C      1  0.5007120000000  0.5970480000000  0.4900530000000 1.0
C      1  0.5039060000000  0.4824140000000  0.4415580000000 1.0
C      1  0.5472950000000  0.5314740000000  0.4267680000000 1.0
C      1  0.5609720000000  0.4828480000000  0.5810560000000 1.0
C      1  0.4037740000000  0.5411500000000  0.5222320000000 1.0
C      1  0.5314760000000  0.4984230000000  0.5880990000000 1.0
C      1  0.5622240000000  0.4807200000000  0.4201290000000 1.0
C      1  0.4537610000000  0.4881420000000  0.5950020000000 1.0
C      1  0.5977220000000  0.4741610000000  0.4842690000000 1.0
C      1  0.5234030000000  0.5350470000000  0.5901380000000 1.0
C      1  0.4997890000000  0.4122490000000  0.5569530000000 1.0
C      1  0.5589730000000  0.4565880000000  0.4585800000000 1.0
C      1  0.5648120000000  0.5791850000000  0.5020000000000 1.0
C      1  0.5894660000000  0.4619380000000  0.4616600000000 1.0
C      1  0.5162970000000  0.4861890000000  0.4806310000000 1.0
C      1  0.5467800000000  0.5630030000000  0.4384520000000 1.0
C      1  0.4578970000000  0.4832080000000  0.4377440000000 1.0
C      1  0.3908980000000  0.4994880000000  0.5447250000000 1.0
C      1  0.4494090000000  0.4754680000000  0.4688640000000 1.0
C      1  0.4503360000000  0.5765330000000  0.5614570000000 1.0
C      1  0.5334960000000  0.5116550000000  0.4489040000000 1.0
C      1  0.5316150000000  0.5919250000000  0.4770010000000 1.0
C      1  0.4024270000000  0.5253440000000  0.5457930000000 1.0
C      1  0.5432200000000  0.4814720000000  0.5543160000000 1.0
C      1  0.4443730000000  0.5677650000000  0.4436690000000 1.0
C      1  0.4527130000000  0.4579010000000  0.5925180000000 1.0
C      1  0.5020600000000  0.5378420000000  0.4811500000000 1.0
C      1  0.4082150000000  0.5031460000000  0.4357660000000 1.0
C      1  0.5504800000000  0.5209670000000  0.5751460000000 1.0
C      1  0.4558600000000  0.5592670000000  0.5261030000000 1.0
C      1  0.4979390000000  0.4270410000000  0.5280810000000 1.0
C      1  0.4753530000000  0.5847320000000  0.5499440000000 1.0
C      1  0.5772700000000  0.5611800000000  0.5278360000000 1.0
C      1  0.5301890000000  0.5980010000000  0.5823990000000 1.0
C      1  0.4069250000000  0.4694160000000  0.4722130000000 1.0
C      1  0.4653780000000  0.4460450000000  0.4206960000000 1.0
C      1  0.5481500000000  0.4920700000000  0.5167060000000 1.0
C      1  0.5415080000000  0.4001380000000  0.5142040000000 1.0
C      1  0.4748610000000  0.5417410000000  0.5482380000000 1.0
C      1  0.5379880000000  0.4554580000000  0.4182850000000 1.0
C      1  0.4254880000000  0.4576850000000  0.5221320000000 1.0
C      1  0.4829280000000  0.5524440000000  0.4105660000000 1.0
C      1  0.4823600000000  0.3923060000000  0.5005500000000 1.0
C      1  0.4948880000000  0.5639740000000  0.5320700000000 1.0
C      1  0.4681270000000  0.5046170000000  0.4950180000000 1.0
C      1  0.5899330000000  0.4629210000000  0.5118570000000 1.0
C      1  0.4313050000000  0.5760420000000  0.5381830000000 1.0
C      1  0.5420410000000  0.5135320000000  0.5430270000000 1.0
C      1  0.5804960000000  0.5214090000000  0.5360530000000 1.0
C      1  0.4334630000000  0.5028270000000  0.5346570000000 1.0
C      1  0.5838650000000  0.5491530000000  0.4657980000000 1.0
C      1  0.4535540000000  0.4632090000000  0.5405480000000 1.0
C      1  0.4136430000000  0.4963660000000  0.4751690000000 1.0
C      1  0.5461260000000  0.4413630000000  0.4929850000000 1.0
C      1  0.5599490000000  0.5033410000000  0.4806230000000 1.0
C      1  0.5611620000000  0.4512720000000  0.5769540000000 1.0
C      1  0.5418700000000  0.4396610000000  0.5514790000000 1.0
C      1  0.5022010000000  0.5349990000000  0.4035810000000 1.0
C      1  0.5637210000000  0.5207820000000  0.5072190000000 1.0
C      1  0.4888650000000  0.5775520000000  0.4264700000000 1.0
C      1  0.4601440000000  0.4041090000000  0.4986490000000 1.0
C      1  0.5084980000000  0.4029980000000  0.4901640000000 1.0
C      1  0.4912560000000  0.5056950000000  0.5416770000000 1.0
C      1  0.4066550000000  0.5689950000000  0.5276080000000 1.0
C      1  0.5566350000000  0.4240660000000  0.4656560000000 1.0
C      1  0.4918550000000  0.4498790000000  0.4147420000000 1.0
C      1  0.4791480000000  0.4475330000000  0.5983040000000 1.0
C      1  0.5996070000000  0.5019680000000  0.4850180000000 1.0
C      1  0.5173780000000  0.5643460000000  0.4668060000000 1.0
C      1  0.5003460000000  0.5042300000000  0.4169900000000 1.0
C      1  0.4849960000000  0.4027270000000  0.4536040000000 1.0
C      1  0.5067400000000  0.4491140000000  0.4432160000000 1.0
C      1  0.4658500000000  0.5433730000000  0.4349260000000 1.0
C      1  0.5567300000000  0.5697060000000  0.4703590000000 1.0
C      1  0.4936410000000  0.5968230000000  0.5233760000000 1.0
C      1  0.4191120000000  0.5571730000000  0.4477810000000 1.0
C      1  0.5564780000000  0.5443250000000  0.5434870000000 1.0
C      1  0.4258860000000  0.4750240000000  0.4369210000000 1.0
C      1  0.4142110000000  0.4466020000000  0.4919520000000 1.0
C      1  0.5187560000000  0.4630870000000  0.5446670000000 1.0
C      1  0.4305840000000  0.5248180000000  0.5607000000000 1.0
C      1  0.4232240000000  0.4471570000000  0.4530070000000 1.0
C      1  0.5172140000000  0.4763680000000  0.3794030000000 1.0
C      1  0.4472650000000  0.5311030000000  0.4588020000000 1.0
C      1  0.5128520000000  0.5516950000000  0.5102710000000 1.0
C      1  0.4960950000000  0.4543690000000  0.4992230000000 1.0
C      1  0.4338810000000  0.5473710000000  0.4836100000000 1.0
C      1  0.4616840000000  0.4147530000000  0.4596580000000 1.0
C      1  0.5286360000000  0.5166340000000  0.4823440000000 1.0
C      1  0.4573660000000  0.5618380000000  0.4955380000000 1.0
C      1  0.5451190000000  0.4727850000000  0.4821840000000 1.0
C      1  0.5231930000000  0.5227590000000  0.5162430000000 1.0
C      1  0.5628850000000  0.4673150000000  0.5319950000000 1.0
C      1  0.5269480000000  0.5824310000000  0.5601570000000 1.0
C      1  0.5192610000000  0.5017620000000  0.3903090000000 1.0
C      1  0.5810310000000  0.4938130000000  0.5558770000000 1.0
C      1  0.5406200000000  0.4029410000000  0.4838770000000 1.0
C      1  0.4711820000000  0.5389080000000  0.5894140000000 1.0
C      1  0.5183180000000  0.4760960000000  0.5130440000000 1.0
C      1  0.5983750000000  0.4861740000000  0.5320100000000 1.0
C      1  0.4151120000000  0.5245890000000  0.4567400000000 1.0
C      1  0.5236240000000  0.5916660000000  0.5341070000000 1.0
C      1  0.4308810000000  0.5008950000000  0.4141470000000 1.0
C      1  0.4647870000000  0.4822320000000  0.4044590000000 1.0
C      1  0.5718640000000  0.4370980000000  0.5074450000000 1.0
C      1  0.5587770000000  0.4134300000000  0.4363030000000 1.0
C      1  0.4854320000000  0.4929890000000  0.4680810000000 1.0
C      1  0.4641720000000  0.4919800000000  0.5263500000000 1.0
C      1  0.5716450000000  0.5110300000000  0.4312630000000 1.0
C      1  0.4717320000000  0.5353420000000  0.4808730000000 1.0
C      1  0.4734490000000  0.4453330000000  0.5229760000000 1.0
C      1  0.5056260000000  0.5329780000000  0.5547350000000 1.0
C      1  0.4546280000000  0.4362370000000  0.4992510000000 1.0
C      1  0.4466220000000  0.4684970000000  0.4982350000000 1.0
C      1  0.4622580000000  0.5157560000000  0.5662450000000 1.0
C      1  0.4855310000000  0.4587920000000  0.4679710000000 1.0
C      1  0.4680790000000  0.4822250000000  0.5647340000000 1.0
C      1  0.5302570000000  0.4274920000000  0.4361770000000 1.0
C      1  0.4575300000000  0.4464410000000  0.4531140000000 1.0
C      1  0.5348920000000  0.5749060000000  0.5133520000000 1.0
C      1  0.4975070000000  0.5320400000000  0.6057120000000 1.0
C      1  0.5762660000000  0.4418540000000  0.5482040000000 1.0
C      1  0.5814750000000  0.5166870000000  0.4605010000000 1.0
C      1  0.5376080000000  0.4783220000000  0.4434630000000 1.0
C      1  0.4765820000000  0.5115200000000  0.4401960000000 1.0
C      1  0.5146320000000  0.4561690000000  0.3986370000000 1.0
C      1  0.4984410000000  0.5396740000000  0.6325490000000 1.0
C      1  0.4830870000000  0.5022250000000  0.5988860000000 1.0
C      1  0.5780450000000  0.5488970000000  0.4970320000000 1.0
C      1  0.4405710000000  0.4486640000000  0.5684040000000 1.0
C      1  0.5151110000000  0.4086080000000  0.4579550000000 1.0
C      1  0.4987130000000  0.5037920000000  0.5116390000000 1.0
C      1  0.5301420000000  0.5524340000000  0.5616960000000 1.0
C      1  0.4695150000000  0.5850470000000  0.4460970000000 1.0
C      1  0.5280220000000  0.4155670000000  0.5381840000000 1.0
C      1  0.5130440000000  0.5594510000000  0.4359090000000 1.0
C      1  0.4469630000000  0.5511760000000  0.5752790000000 1.0
C      1  0.4576590000000  0.5285310000000  0.5168170000000 1.0
C      1  0.4967870000000  0.4729450000000  0.5967980000000 1.0
C      1  0.4334230000000  0.4240860000000  0.4758100000000 1.0
C      1  0.5193610000000  0.4312390000000  0.5024300000000 1.0
C      1  0.5410170000000  0.5457670000000  0.4826850000000 1.0
C      1  0.4806350000000  0.5977240000000  0.4694050000000 1.0
C      1  0.4202560000000  0.5310150000000  0.5015180000000 1.0
C      1  0.4952320000000  0.4615660000000  0.5647910000000 1.0
C      1  0.4087310000000  0.4808120000000  0.5336370000000 1.0
C      1  0.5321620000000  0.5284820000000  0.4006750000000 1.0
C      1  0.6019440000000  0.5104990000000  0.5119850000000 1.0
C      1  0.5034460000000  0.5047450000000  0.5735670000000 1.0
END
