TITL C-2847951-7423-244 0.00505148842397676 125000 -590.972594473111 0 0 111 (C1) n - 1
REM
REM in /home/bkarasulu/work/CARBON/AIRSS/Generating-Clusters/AIREBO/with-SteepDescent/Only-C1/SD-CG-opt/Try1-1.4A-POS3A/HFTN-CG
REM
REM
REM
REM
REM
REM ./C.cell (11c1c37f851c82e70ff6c80c92926a4b)
REM
REM compiler GCC version 9.2.1 20190827 (Red Hat 9.2.1-1)
REM options -cpp -mtune=generic -march=x86-64 -g -O0 -fpre-include=/usr/include/finclude/math-vector-fortran.h
REM seed -2023697975 1799686696 -1685495184 375105684 604126402 99249573 1906206239 1171913482 195788993 -319490162 89553614 626443570 -2080483552 -83659872 1937812269 -144496398 832694677 2144622165 2012299115 -377550239 -855185760 876089802 455522659 1638372833 611593342 -1154887640 -344164170 -1163437666 -960170991 -99268668 1013157144 -1706949500 -1060866996
REM
CELL 1.54180   50.00000   50.00000   50.00000   90.00000   90.00000   90.00000
LATT -1
SFAC C  
C      1  0.4167190000000  0.5249180000000  0.5463350000000 1.0
C      1  0.5821940000000  0.5107320000000  0.4968480000000 1.0
C      1  0.4957210000000  0.4271100000000  0.4794780000000 1.0
C      1  0.4844190000000  0.5078680000000  0.5118770000000 1.0
C      1  0.5144890000000  0.5621490000000  0.4362030000000 1.0
C      1  0.5071540000000  0.5121500000000  0.4554830000000 1.0
C      1  0.5550760000000  0.5244410000000  0.5688280000000 1.0
C      1  0.5029210000000  0.5301180000000  0.5554900000000 1.0
C      1  0.4575950000000  0.5678580000000  0.4424070000000 1.0
C      1  0.4625720000000  0.5671020000000  0.4916860000000 1.0
C      1  0.5216030000000  0.4685730000000  0.5522120000000 1.0
C      1  0.4733830000000  0.4399650000000  0.5466580000000 1.0
C      1  0.5297240000000  0.5462360000000  0.5623660000000 1.0
C      1  0.4381600000000  0.5264380000000  0.4551580000000 1.0
C      1  0.4749010000000  0.5232140000000  0.4148430000000 1.0
C      1  0.4903370000000  0.5336470000000  0.4673000000000 1.0
C      1  0.4982350000000  0.5473990000000  0.4201150000000 1.0
C      1  0.4718490000000  0.4924760000000  0.4005380000000 1.0
C      1  0.4747420000000  0.4330350000000  0.5799250000000 1.0
C      1  0.5360340000000  0.5630980000000  0.4631580000000 1.0
C      1  0.5857190000000  0.4499180000000  0.5079390000000 1.0
C      1  0.4467400000000  0.5562100000000  0.5369830000000 1.0
C      1  0.4523020000000  0.4678800000000  0.4366850000000 1.0
C      1  0.4839930000000  0.4838960000000  0.5483740000000 1.0
C      1  0.4770000000000  0.5420720000000  0.5696870000000 1.0
C      1  0.4836600000000  0.5551620000000  0.5132570000000 1.0
C      1  0.5442780000000  0.5194820000000  0.5365890000000 1.0
C      1  0.4636410000000  0.5362120000000  0.4843480000000 1.0
C      1  0.5083230000000  0.5986030000000  0.5301220000000 1.0
C      1  0.5443150000000  0.4774270000000  0.4697850000000 1.0
C      1  0.4658720000000  0.5380610000000  0.4440730000000 1.0
C      1  0.5472040000000  0.4912900000000  0.4990250000000 1.0
C      1  0.5030850000000  0.5713410000000  0.4649150000000 1.0
C      1  0.4578240000000  0.4121400000000  0.5065230000000 1.0
C      1  0.4482120000000  0.5223870000000  0.5337630000000 1.0
C      1  0.5825510000000  0.4526640000000  0.4802500000000 1.0
C      1  0.4661670000000  0.5635910000000  0.5562960000000 1.0
C      1  0.4208620000000  0.5335070000000  0.4768150000000 1.0
C      1  0.5532830000000  0.4899780000000  0.4436050000000 1.0
C      1  0.4840060000000  0.4622880000000  0.5927620000000 1.0
C      1  0.4959030000000  0.4268660000000  0.5253970000000 1.0
C      1  0.4365990000000  0.5775580000000  0.4633660000000 1.0
C      1  0.5006880000000  0.4518450000000  0.5023040000000 1.0
C      1  0.4788260000000  0.4890870000000  0.4396420000000 1.0
C      1  0.4448600000000  0.4455570000000  0.4581100000000 1.0
C      1  0.5620740000000  0.4776200000000  0.5837470000000 1.0
C      1  0.5696120000000  0.4660970000000  0.5331390000000 1.0
C      1  0.4468230000000  0.5170380000000  0.5019820000000 1.0
C      1  0.5209560000000  0.5755870000000  0.5523410000000 1.0
C      1  0.5635680000000  0.5470580000000  0.5316910000000 1.0
C      1  0.4933790000000  0.4354050000000  0.4487480000000 1.0
C      1  0.5463400000000  0.5747360000000  0.4924900000000 1.0
C      1  0.5157670000000  0.4913220000000  0.4745940000000 1.0
C      1  0.5652510000000  0.5558210000000  0.5061190000000 1.0
C      1  0.4889780000000  0.5866570000000  0.5559350000000 1.0
C      1  0.4705570000000  0.4645190000000  0.4096820000000 1.0
C      1  0.4228490000000  0.4570230000000  0.4783100000000 1.0
C      1  0.5195860000000  0.5355570000000  0.5196130000000 1.0
C      1  0.4337670000000  0.4815710000000  0.5124620000000 1.0
C      1  0.5086910000000  0.5500190000000  0.4908170000000 1.0
C      1  0.5242330000000  0.4983380000000  0.4086430000000 1.0
C      1  0.5607980000000  0.4353330000000  0.5208110000000 1.0
C      1  0.5816530000000  0.5150220000000  0.5498130000000 1.0
C      1  0.5268120000000  0.4212380000000  0.5363210000000 1.0
C      1  0.5191030000000  0.5025090000000  0.5518980000000 1.0
C      1  0.5202640000000  0.4951050000000  0.5828330000000 1.0
C      1  0.4918680000000  0.4881580000000  0.5774310000000 1.0
C      1  0.5387050000000  0.4798180000000  0.4223340000000 1.0
C      1  0.5893710000000  0.5008570000000  0.4708880000000 1.0
C      1  0.5295810000000  0.5661410000000  0.5208370000000 1.0
C      1  0.4488990000000  0.4596130000000  0.5335610000000 1.0
C      1  0.5370030000000  0.4341140000000  0.4452560000000 1.0
C      1  0.5098310000000  0.5826990000000  0.5007830000000 1.0
C      1  0.4578060000000  0.5005670000000  0.4587040000000 1.0
C      1  0.5405640000000  0.4303890000000  0.5594510000000 1.0
C      1  0.4476760000000  0.4256680000000  0.5295660000000 1.0
C      1  0.5170230000000  0.5045170000000  0.5059410000000 1.0
C      1  0.4826070000000  0.4000690000000  0.5135030000000 1.0
C      1  0.5067350000000  0.4774620000000  0.5238460000000 1.0
C      1  0.5301050000000  0.4434720000000  0.5114470000000 1.0
C      1  0.4381170000000  0.5673620000000  0.5125310000000 1.0
C      1  0.5709780000000  0.5110980000000  0.4507550000000 1.0
C      1  0.5411150000000  0.4116680000000  0.5063630000000 1.0
C      1  0.4962400000000  0.4664790000000  0.4503170000000 1.0
C      1  0.5524650000000  0.4608150000000  0.5588700000000 1.0
C      1  0.4164940000000  0.5043160000000  0.4937210000000 1.0
C      1  0.4781540000000  0.5840780000000  0.5242110000000 1.0
C      1  0.5474300000000  0.5008990000000  0.5874090000000 1.0
C      1  0.4916630000000  0.4458760000000  0.4164790000000 1.0
C      1  0.4282340000000  0.4894520000000  0.4472430000000 1.0
C      1  0.4329190000000  0.4892540000000  0.5699320000000 1.0
C      1  0.5672660000000  0.4975630000000  0.5244230000000 1.0
C      1  0.4125300000000  0.5077830000000  0.5676560000000 1.0
C      1  0.4527840000000  0.4903470000000  0.5444340000000 1.0
C      1  0.4624620000000  0.4311190000000  0.4828910000000 1.0
C      1  0.4238950000000  0.5610230000000  0.4845790000000 1.0
C      1  0.5215140000000  0.4558790000000  0.4301660000000 1.0
C      1  0.4809210000000  0.5313590000000  0.5313650000000 1.0
C      1  0.5972900000000  0.4736670000000  0.4683390000000 1.0
C      1  0.5591140000000  0.5394520000000  0.4550090000000 1.0
C      1  0.4732760000000  0.5818720000000  0.4661440000000 1.0
C      1  0.5324800000000  0.5256700000000  0.4842340000000 1.0
C      1  0.4130180000000  0.4823190000000  0.4707640000000 1.0
C      1  0.5011090000000  0.5078600000000  0.4251960000000 1.0
C      1  0.4522020000000  0.4607980000000  0.4939410000000 1.0
C      1  0.4922770000000  0.4731760000000  0.4809890000000 1.0
C      1  0.4653440000000  0.4917360000000  0.4888130000000 1.0
C      1  0.5295640000000  0.4240020000000  0.4768540000000 1.0
C      1  0.5630420000000  0.5329420000000  0.4876880000000 1.0
C      1  0.5003430000000  0.4514330000000  0.5649870000000 1.0
C      1  0.5531830000000  0.4480380000000  0.4706360000000 1.0
END
