TITL C-2847954-6904-353 -0.000126813947729062 125000 -359.754834086891 0 0 70 (C1) n - 1
REM
REM in /home/bkarasulu/work/CARBON/AIRSS/Generating-Clusters/AIREBO/with-SteepDescent/Only-C1/SD-CG-opt/Try1-1.4A-POS3A/HFTN-CG
REM
REM
REM
REM
REM
REM ./C.cell (11c1c37f851c82e70ff6c80c92926a4b)
REM
REM compiler GCC version 9.2.1 20190827 (Red Hat 9.2.1-1)
REM options -cpp -mtune=generic -march=x86-64 -g -O0 -fpre-include=/usr/include/finclude/math-vector-fortran.h
REM seed 1016426102 2051640812 -2084181125 -1236642913 -1418153968 587215525 -1214894054 -1763348154 1503707763 478826486 1854830247 -1920947974 -1668397904 -1073774188 1651473153 -1815899594 290310170 -1294156668 -1311039581 967441693 56313922 -1135196252 -263263455 570598159 1058013328 1064275878 984324272 1642006272 -1434661245 -1584399558 849911333 1745215372 898944303
REM
CELL 1.54180   50.00000   50.00000   50.00000   90.00000   90.00000   90.00000
LATT -1
SFAC C  
C      1  0.5409110000000  0.5083780000000  0.5696930000000 1.0
C      1  0.5129090000000  0.4517960000000  0.4556870000000 1.0
C      1  0.4360410000000  0.4644810000000  0.4839440000000 1.0
C      1  0.5498220000000  0.5125810000000  0.4706440000000 1.0
C      1  0.5448410000000  0.4206520000000  0.4819700000000 1.0
C      1  0.5162000000000  0.4651540000000  0.5674880000000 1.0
C      1  0.5153640000000  0.4656020000000  0.5063310000000 1.0
C      1  0.4844830000000  0.4882360000000  0.4694990000000 1.0
C      1  0.5695060000000  0.4898730000000  0.5316060000000 1.0
C      1  0.4697400000000  0.5139560000000  0.4959470000000 1.0
C      1  0.4619290000000  0.4730110000000  0.4402830000000 1.0
C      1  0.4355670000000  0.5500240000000  0.5076790000000 1.0
C      1  0.4521180000000  0.4630120000000  0.4166700000000 1.0
C      1  0.5038990000000  0.5162700000000  0.5040420000000 1.0
C      1  0.4632940000000  0.5534530000000  0.4626980000000 1.0
C      1  0.4598200000000  0.5223890000000  0.5456710000000 1.0
C      1  0.5268230000000  0.5496230000000  0.4580690000000 1.0
C      1  0.4614220000000  0.4741980000000  0.5300040000000 1.0
C      1  0.5043600000000  0.4466120000000  0.4854370000000 1.0
C      1  0.4395950000000  0.5042270000000  0.4855220000000 1.0
C      1  0.5427560000000  0.4832790000000  0.4966260000000 1.0
C      1  0.4294030000000  0.4778840000000  0.5291050000000 1.0
C      1  0.4697190000000  0.4809450000000  0.4975010000000 1.0
C      1  0.5365040000000  0.5551600000000  0.4859550000000 1.0
C      1  0.5815100000000  0.5125670000000  0.4977920000000 1.0
C      1  0.4667840000000  0.4406500000000  0.5313940000000 1.0
C      1  0.5302660000000  0.4231760000000  0.4613040000000 1.0
C      1  0.4219720000000  0.5270890000000  0.4991390000000 1.0
C      1  0.4951420000000  0.4685660000000  0.5337610000000 1.0
C      1  0.5444140000000  0.4793170000000  0.5727130000000 1.0
C      1  0.5506150000000  0.4996050000000  0.4329540000000 1.0
C      1  0.4773240000000  0.5456470000000  0.4928600000000 1.0
C      1  0.4832250000000  0.4301610000000  0.4939270000000 1.0
C      1  0.4941960000000  0.4729420000000  0.4442140000000 1.0
C      1  0.4975370000000  0.5681440000000  0.4773150000000 1.0
C      1  0.4907910000000  0.4136400000000  0.5150190000000 1.0
C      1  0.5522570000000  0.5288550000000  0.5004010000000 1.0
C      1  0.5133670000000  0.5150130000000  0.5693410000000 1.0
C      1  0.4588270000000  0.4487870000000  0.4993520000000 1.0
C      1  0.3950530000000  0.5228820000000  0.5020790000000 1.0
C      1  0.4214390000000  0.4816060000000  0.5032620000000 1.0
C      1  0.5638260000000  0.5498640000000  0.5245130000000 1.0
C      1  0.5403400000000  0.4595520000000  0.4742360000000 1.0
C      1  0.5660970000000  0.4660280000000  0.5240630000000 1.0
C      1  0.5538230000000  0.5178910000000  0.5428400000000 1.0
C      1  0.4483180000000  0.5594300000000  0.4370060000000 1.0
C      1  0.5333730000000  0.5447660000000  0.5387520000000 1.0
C      1  0.5071880000000  0.4958360000000  0.4277660000000 1.0
C      1  0.5298900000000  0.4492390000000  0.5311770000000 1.0
C      1  0.5248860000000  0.5167580000000  0.4479070000000 1.0
C      1  0.5070490000000  0.4980000000000  0.4017930000000 1.0
C      1  0.5097530000000  0.5400290000000  0.5570720000000 1.0
C      1  0.4970850000000  0.4909440000000  0.5592930000000 1.0
C      1  0.4997150000000  0.4351470000000  0.5380670000000 1.0
C      1  0.4987400000000  0.5439410000000  0.5188770000000 1.0
C      1  0.5547820000000  0.4833730000000  0.4585300000000 1.0
C      1  0.5751830000000  0.4881570000000  0.4921110000000 1.0
C      1  0.4448310000000  0.5677360000000  0.4869180000000 1.0
C      1  0.4820180000000  0.5459600000000  0.5452880000000 1.0
C      1  0.5334670000000  0.5066190000000  0.5180330000000 1.0
C      1  0.4944100000000  0.5408800000000  0.4572370000000 1.0
C      1  0.5016220000000  0.5127350000000  0.4723750000000 1.0
C      1  0.4675460000000  0.4979210000000  0.5521690000000 1.0
C      1  0.4691960000000  0.5705360000000  0.5145560000000 1.0
C      1  0.5317370000000  0.4816650000000  0.5412440000000 1.0
C      1  0.4499160000000  0.5536170000000  0.5365740000000 1.0
C      1  0.5492810000000  0.4446830000000  0.5036100000000 1.0
C      1  0.4952610000000  0.5836940000000  0.5186900000000 1.0
C      1  0.5228540000000  0.5645430000000  0.5131730000000 1.0
C      1  0.4460660000000  0.4810130000000  0.4612310000000 1.0
END
