TITL C-2847944-5688-427 -0.000621091005010935 125000 -262.015098626693 0 0 49 (C1) n - 1
REM
REM in /home/bkarasulu/work/CARBON/AIRSS/Generating-Clusters/AIREBO/with-SteepDescent/Only-C1/SD-CG-opt/Try1-1.4A-POS3A/HFTN-CG
REM
REM
REM
REM
REM
REM ./C.cell (11c1c37f851c82e70ff6c80c92926a4b)
REM
REM compiler GCC version 9.2.1 20190827 (Red Hat 9.2.1-1)
REM options -cpp -mtune=generic -march=x86-64 -g -O0 -fpre-include=/usr/include/finclude/math-vector-fortran.h
REM seed 1056304541 300148882 -1354810546 -648276571 -566052262 1254649311 -545819494 2094388119 -75719416 949265711 495842305 1281915040 -412957 -478263308 411140552 1626406963 618155480 -858602184 -153804504 -1175710781 785378557 4559475 -2039972344 54105437 -1277807194 -1250560590 439222179 -243520280 225333310 174966569 356629779 317956435 150948992
REM
CELL 1.54180   50.00000   50.00000   50.00000   90.00000   90.00000   90.00000
LATT -1
SFAC C  
C      1  0.4727540000000  0.4749550000000  0.5280780000000 1.0
C      1  0.5509750000000  0.4723010000000  0.4479100000000 1.0
C      1  0.4856130000000  0.4801670000000  0.5595010000000 1.0
C      1  0.5145510000000  0.5571520000000  0.4626780000000 1.0
C      1  0.4715520000000  0.4439370000000  0.4865180000000 1.0
C      1  0.4521150000000  0.5451060000000  0.5063740000000 1.0
C      1  0.4452740000000  0.4950160000000  0.4774180000000 1.0
C      1  0.4514570000000  0.5747850000000  0.4897890000000 1.0
C      1  0.5046670000000  0.5165270000000  0.4913550000000 1.0
C      1  0.5551550000000  0.4638290000000  0.5274580000000 1.0
C      1  0.4703250000000  0.5368270000000  0.4689860000000 1.0
C      1  0.4425550000000  0.4806610000000  0.4312720000000 1.0
C      1  0.4875670000000  0.5218980000000  0.5376670000000 1.0
C      1  0.5611590000000  0.5055390000000  0.4675750000000 1.0
C      1  0.5296080000000  0.5481310000000  0.5395870000000 1.0
C      1  0.4814760000000  0.5043680000000  0.5130700000000 1.0
C      1  0.4950130000000  0.5356580000000  0.4576640000000 1.0
C      1  0.5483060000000  0.4658870000000  0.4980010000000 1.0
C      1  0.5950800000000  0.4874920000000  0.4965450000000 1.0
C      1  0.4439510000000  0.4753270000000  0.5419230000000 1.0
C      1  0.5154420000000  0.4661040000000  0.4961340000000 1.0
C      1  0.5693430000000  0.4887410000000  0.4870150000000 1.0
C      1  0.4798660000000  0.5627390000000  0.4978150000000 1.0
C      1  0.5193920000000  0.5203170000000  0.5488550000000 1.0
C      1  0.5013830000000  0.5070030000000  0.5719270000000 1.0
C      1  0.5063230000000  0.4609640000000  0.5466500000000 1.0
C      1  0.4564000000000  0.4580960000000  0.5038320000000 1.0
C      1  0.4589580000000  0.5289120000000  0.5521780000000 1.0
C      1  0.5064080000000  0.5484870000000  0.4937690000000 1.0
C      1  0.4571620000000  0.4877540000000  0.4534120000000 1.0
C      1  0.4587270000000  0.5171110000000  0.4924330000000 1.0
C      1  0.5267850000000  0.5558350000000  0.5159110000000 1.0
C      1  0.5228810000000  0.4957230000000  0.5059120000000 1.0
C      1  0.5325120000000  0.4696280000000  0.5479010000000 1.0
C      1  0.5550810000000  0.4570570000000  0.4673430000000 1.0
C      1  0.4429870000000  0.5429600000000  0.5358240000000 1.0
C      1  0.4985200000000  0.4546450000000  0.5191440000000 1.0
C      1  0.5664180000000  0.4894810000000  0.5405690000000 1.0
C      1  0.4966600000000  0.4603110000000  0.4716290000000 1.0
C      1  0.4357650000000  0.4738420000000  0.4930490000000 1.0
C      1  0.4871350000000  0.4826610000000  0.4532060000000 1.0
C      1  0.5374980000000  0.5020880000000  0.4465000000000 1.0
C      1  0.5188600000000  0.5030300000000  0.4211950000000 1.0
C      1  0.4929820000000  0.5494660000000  0.5555930000000 1.0
C      1  0.4974350000000  0.4899210000000  0.4235370000000 1.0
C      1  0.5073930000000  0.5070200000000  0.4592800000000 1.0
C      1  0.4691840000000  0.5079380000000  0.5701530000000 1.0
C      1  0.4889020000000  0.4276110000000  0.4659880000000 1.0
C      1  0.5344470000000  0.4989880000000  0.5338760000000 1.0
END
