TITL C-2848506-1665-199 0.00441148715840877 125000 -292.794128879198 0 0 55 (C1) n - 1
REM
REM in /home/bkarasulu/work/CARBON/AIRSS/Generating-Clusters/AIREBO/with-SteepDescent/Only-C1/SD-CG-opt/Try1-1.4A-POS3A/HFTN-CG
REM
REM
REM
REM
REM
REM ./C.cell (11c1c37f851c82e70ff6c80c92926a4b)
REM
REM compiler GCC version 9.2.1 20190827 (Red Hat 9.2.1-1)
REM options -cpp -mtune=generic -march=x86-64 -g -O0 -fpre-include=/usr/include/finclude/math-vector-fortran.h
REM seed -766354461 464546299 -1601209289 -647448533 445532093 -1109127376 1024865225 -1654760325 -255939602 1748512265 564635705 -491538800 1346855609 887259125 -369106674 590482232 706277511 -991422665 -150579491 -715276680 1490610161 -1038209288 1189803332 1064449722 -1475738218 381899198 -884892536 -1124054133 -953259244 -1085599101 -571394917 -603824239 -1016874055
REM
CELL 1.54180   50.00000   50.00000   50.00000   90.00000   90.00000   90.00000
LATT -1
SFAC C  
C      1  0.5405650000000  0.4843500000000  0.5026530000000 1.0
C      1  0.4322620000000  0.4265600000000  0.4444930000000 1.0
C      1  0.4491680000000  0.4544970000000  0.5286080000000 1.0
C      1  0.5219780000000  0.5781920000000  0.4854450000000 1.0
C      1  0.5521250000000  0.4604170000000  0.5478530000000 1.0
C      1  0.5271220000000  0.4531600000000  0.5389760000000 1.0
C      1  0.5372990000000  0.5035340000000  0.5306930000000 1.0
C      1  0.4033650000000  0.5507300000000  0.5147130000000 1.0
C      1  0.5475420000000  0.5028510000000  0.4475040000000 1.0
C      1  0.4383020000000  0.4799670000000  0.5292080000000 1.0
C      1  0.5688610000000  0.5472950000000  0.5246200000000 1.0
C      1  0.4453280000000  0.4487380000000  0.4490240000000 1.0
C      1  0.5693730000000  0.5017240000000  0.5075980000000 1.0
C      1  0.4685600000000  0.5077550000000  0.5554310000000 1.0
C      1  0.4454660000000  0.4789490000000  0.4619180000000 1.0
C      1  0.5497530000000  0.4779470000000  0.4705480000000 1.0
C      1  0.5624130000000  0.4842920000000  0.5359580000000 1.0
C      1  0.4836580000000  0.4227370000000  0.5067690000000 1.0
C      1  0.4921710000000  0.4836970000000  0.5537360000000 1.0
C      1  0.4970780000000  0.4650200000000  0.5282850000000 1.0
C      1  0.4710570000000  0.4668470000000  0.4439830000000 1.0
C      1  0.5254010000000  0.4382950000000  0.4853900000000 1.0
C      1  0.5030920000000  0.4213080000000  0.4870220000000 1.0
C      1  0.4735510000000  0.4867280000000  0.4785860000000 1.0
C      1  0.4829950000000  0.5340530000000  0.5589870000000 1.0
C      1  0.5253260000000  0.4575810000000  0.5072800000000 1.0
C      1  0.4929870000000  0.4825380000000  0.4436040000000 1.0
C      1  0.5238880000000  0.4797590000000  0.4402460000000 1.0
C      1  0.4689580000000  0.5347000000000  0.4559350000000 1.0
C      1  0.5318760000000  0.5281190000000  0.5519090000000 1.0
C      1  0.5068340000000  0.5084930000000  0.5395490000000 1.0
C      1  0.5448610000000  0.4467240000000  0.4673270000000 1.0
C      1  0.5055360000000  0.5194230000000  0.4833380000000 1.0
C      1  0.4677080000000  0.5565240000000  0.4959490000000 1.0
C      1  0.4519870000000  0.5125390000000  0.4753500000000 1.0
C      1  0.4888070000000  0.5192960000000  0.5129440000000 1.0
C      1  0.4747170000000  0.4435050000000  0.5235500000000 1.0
C      1  0.4262380000000  0.5400860000000  0.5108990000000 1.0
C      1  0.5160640000000  0.5505810000000  0.4747130000000 1.0
C      1  0.5647570000000  0.5297810000000  0.5027860000000 1.0
C      1  0.5313580000000  0.4602710000000  0.4222240000000 1.0
C      1  0.5469220000000  0.5372410000000  0.4827160000000 1.0
C      1  0.4562120000000  0.5261170000000  0.5059480000000 1.0
C      1  0.4869440000000  0.5092790000000  0.4567390000000 1.0
C      1  0.4495520000000  0.5047350000000  0.5316380000000 1.0
C      1  0.4856430000000  0.5459520000000  0.5338220000000 1.0
C      1  0.5237370000000  0.5491490000000  0.4416140000000 1.0
C      1  0.4859600000000  0.4863220000000  0.5055770000000 1.0
C      1  0.5524890000000  0.5499100000000  0.5464920000000 1.0
C      1  0.4823200000000  0.5542880000000  0.4721840000000 1.0
C      1  0.5070650000000  0.5324350000000  0.5718870000000 1.0
C      1  0.4730350000000  0.4843850000000  0.5798560000000 1.0
C      1  0.4777570000000  0.5690960000000  0.5195260000000 1.0
C      1  0.5430630000000  0.5293450000000  0.4542580000000 1.0
C      1  0.5189180000000  0.4921870000000  0.4721370000000 1.0
END
