TITL C-2847952-8118-299 0.00199024214896579 125000 -1076.34372431368 0 0 195 (C1) n - 1
REM
REM in /home/bkarasulu/work/CARBON/AIRSS/Generating-Clusters/AIREBO/with-SteepDescent/Only-C1/SD-CG-opt/Try1-1.4A-POS3A/HFTN-CG
REM
REM
REM
REM
REM
REM ./C.cell (11c1c37f851c82e70ff6c80c92926a4b)
REM
REM compiler GCC version 9.2.1 20190827 (Red Hat 9.2.1-1)
REM options -cpp -mtune=generic -march=x86-64 -g -O0 -fpre-include=/usr/include/finclude/math-vector-fortran.h
REM seed -1947340891 -688813622 1809484251 693909694 2114585775 108891457 44517464 1093571195 -1235764309 1190078471 -317358476 891372461 435960155 -1234229 -1121969373 -147707836 235149904 -1750878049 157808097 387342545 -839413249 1771434323 207859134 293668740 503574231 1411918215 501342206 -1800016455 814983082 -1427797098 1783913262 -1246654977 1902521715
REM
CELL 1.54180   50.00000   50.00000   50.00000   90.00000   90.00000   90.00000
LATT -1
SFAC C  
C      1  0.5220580000000  0.4028970000000  0.5499330000000 1.0
C      1  0.5761970000000  0.5389550000000  0.5091630000000 1.0
C      1  0.5190340000000  0.5536660000000  0.5585920000000 1.0
C      1  0.6104770000000  0.5188840000000  0.5120110000000 1.0
C      1  0.5684530000000  0.4887540000000  0.5815080000000 1.0
C      1  0.5186640000000  0.5872190000000  0.5646130000000 1.0
C      1  0.4568920000000  0.4761900000000  0.4834910000000 1.0
C      1  0.4244720000000  0.4771950000000  0.4611340000000 1.0
C      1  0.3539610000000  0.4768010000000  0.5146150000000 1.0
C      1  0.5144030000000  0.5648700000000  0.5897600000000 1.0
C      1  0.4263040000000  0.4666610000000  0.5781450000000 1.0
C      1  0.4821220000000  0.5279250000000  0.4373630000000 1.0
C      1  0.5482370000000  0.5797940000000  0.5242720000000 1.0
C      1  0.5488440000000  0.5498300000000  0.5166430000000 1.0
C      1  0.4774440000000  0.4607730000000  0.5269540000000 1.0
C      1  0.5577760000000  0.5350040000000  0.5758100000000 1.0
C      1  0.4499930000000  0.4138530000000  0.4344940000000 1.0
C      1  0.5070050000000  0.4847450000000  0.4353540000000 1.0
C      1  0.6276020000000  0.5209530000000  0.5813210000000 1.0
C      1  0.4675190000000  0.4810200000000  0.6016420000000 1.0
C      1  0.5204720000000  0.5601510000000  0.4871270000000 1.0
C      1  0.5292140000000  0.4662710000000  0.4012540000000 1.0
C      1  0.6128050000000  0.5145430000000  0.4774780000000 1.0
C      1  0.3951370000000  0.5304490000000  0.5235130000000 1.0
C      1  0.5162610000000  0.4663700000000  0.5011180000000 1.0
C      1  0.5397110000000  0.4839260000000  0.5981440000000 1.0
C      1  0.5164480000000  0.4839460000000  0.3817230000000 1.0
C      1  0.4946760000000  0.5657830000000  0.4402780000000 1.0
C      1  0.5445280000000  0.4938390000000  0.4457860000000 1.0
C      1  0.4102930000000  0.4678700000000  0.5522220000000 1.0
C      1  0.5460660000000  0.5258200000000  0.4399780000000 1.0
C      1  0.3962050000000  0.5007960000000  0.4160750000000 1.0
C      1  0.4901940000000  0.3894680000000  0.5787080000000 1.0
C      1  0.5189170000000  0.5760820000000  0.5139380000000 1.0
C      1  0.5634520000000  0.5974150000000  0.5055690000000 1.0
C      1  0.4764700000000  0.5847760000000  0.4913460000000 1.0
C      1  0.5079310000000  0.5158350000000  0.5170080000000 1.0
C      1  0.4281440000000  0.4682840000000  0.4998400000000 1.0
C      1  0.5976960000000  0.5550260000000  0.4798510000000 1.0
C      1  0.4317410000000  0.4472380000000  0.4620990000000 1.0
C      1  0.4920600000000  0.5237970000000  0.6102590000000 1.0
C      1  0.4603940000000  0.4574170000000  0.4004140000000 1.0
C      1  0.4014020000000  0.4872020000000  0.4978270000000 1.0
C      1  0.4746970000000  0.4547880000000  0.4975040000000 1.0
C      1  0.5303480000000  0.4927450000000  0.5673540000000 1.0
C      1  0.5369360000000  0.4086120000000  0.5039410000000 1.0
C      1  0.5665280000000  0.5065970000000  0.3869530000000 1.0
C      1  0.5525080000000  0.5017490000000  0.5113420000000 1.0
C      1  0.4839400000000  0.4948340000000  0.4745790000000 1.0
C      1  0.6022250000000  0.5467480000000  0.5264870000000 1.0
C      1  0.4530400000000  0.4825430000000  0.5712110000000 1.0
C      1  0.4235760000000  0.5598100000000  0.5730260000000 1.0
C      1  0.4357080000000  0.5917460000000  0.4720210000000 1.0
C      1  0.5805240000000  0.4577310000000  0.4339520000000 1.0
C      1  0.5229880000000  0.5054700000000  0.4145010000000 1.0
C      1  0.5712010000000  0.4976040000000  0.4764250000000 1.0
C      1  0.4948030000000  0.6127020000000  0.4849960000000 1.0
C      1  0.4332050000000  0.5804980000000  0.5577740000000 1.0
C      1  0.4364570000000  0.4578410000000  0.4146180000000 1.0
C      1  0.4222160000000  0.4371560000000  0.5462590000000 1.0
C      1  0.4310340000000  0.5224160000000  0.4236370000000 1.0
C      1  0.4837450000000  0.5369840000000  0.5189560000000 1.0
C      1  0.4984660000000  0.4192260000000  0.5682730000000 1.0
C      1  0.5439170000000  0.5674420000000  0.4706410000000 1.0
C      1  0.5412140000000  0.4510200000000  0.5176940000000 1.0
C      1  0.5402510000000  0.5107070000000  0.4815920000000 1.0
C      1  0.5000090000000  0.4913270000000  0.5022820000000 1.0
C      1  0.4520990000000  0.5143300000000  0.5785810000000 1.0
C      1  0.4926880000000  0.4736180000000  0.5830780000000 1.0
C      1  0.4138070000000  0.4101620000000  0.5013310000000 1.0
C      1  0.5400300000000  0.4715670000000  0.5453570000000 1.0
C      1  0.4870500000000  0.4625850000000  0.4517050000000 1.0
C      1  0.4666900000000  0.5286310000000  0.3864390000000 1.0
C      1  0.4909090000000  0.5979310000000  0.4482630000000 1.0
C      1  0.5685510000000  0.5597340000000  0.5639840000000 1.0
C      1  0.4525190000000  0.5355090000000  0.4091820000000 1.0
C      1  0.4340980000000  0.4717810000000  0.5307430000000 1.0
C      1  0.4397150000000  0.5043730000000  0.5217000000000 1.0
C      1  0.4652000000000  0.5561270000000  0.4297510000000 1.0
C      1  0.5266430000000  0.5320030000000  0.4996520000000 1.0
C      1  0.5472140000000  0.4285320000000  0.4618400000000 1.0
C      1  0.5088200000000  0.4153650000000  0.4833220000000 1.0
C      1  0.5825040000000  0.5612800000000  0.4434080000000 1.0
C      1  0.4279600000000  0.5069050000000  0.4898870000000 1.0
C      1  0.5903440000000  0.5936600000000  0.5066130000000 1.0
C      1  0.5709830000000  0.4187740000000  0.5218590000000 1.0
C      1  0.4715080000000  0.4970240000000  0.5121430000000 1.0
C      1  0.4298170000000  0.5674990000000  0.4500230000000 1.0
C      1  0.5712220000000  0.4734120000000  0.5572150000000 1.0
C      1  0.4571790000000  0.4759870000000  0.4518240000000 1.0
C      1  0.6023420000000  0.5685030000000  0.5034530000000 1.0
C      1  0.5451690000000  0.4244750000000  0.5779470000000 1.0
C      1  0.5892320000000  0.4529190000000  0.4836300000000 1.0
C      1  0.4855640000000  0.4709710000000  0.4128280000000 1.0
C      1  0.5779170000000  0.5155610000000  0.5813500000000 1.0
C      1  0.4677630000000  0.4875600000000  0.5445870000000 1.0
C      1  0.6014640000000  0.4753920000000  0.4413260000000 1.0
C      1  0.4791330000000  0.5042930000000  0.4152550000000 1.0
C      1  0.5631830000000  0.4763570000000  0.5120650000000 1.0
C      1  0.5497030000000  0.6007500000000  0.4466660000000 1.0
C      1  0.4490240000000  0.4366740000000  0.4876340000000 1.0
C      1  0.4613870000000  0.6112700000000  0.4784320000000 1.0
C      1  0.5550770000000  0.4710090000000  0.4228720000000 1.0
C      1  0.5135980000000  0.5059060000000  0.5938600000000 1.0
C      1  0.5054250000000  0.5564540000000  0.5317870000000 1.0
C      1  0.5462970000000  0.5374760000000  0.4110130000000 1.0
C      1  0.5034240000000  0.6029560000000  0.5141790000000 1.0
C      1  0.4326600000000  0.3899500000000  0.4974530000000 1.0
C      1  0.3910750000000  0.5191780000000  0.4981980000000 1.0
C      1  0.5076530000000  0.4665590000000  0.5326310000000 1.0
C      1  0.4605310000000  0.5825570000000  0.4506790000000 1.0
C      1  0.4283880000000  0.5357910000000  0.5281920000000 1.0
C      1  0.4941150000000  0.5666030000000  0.4727120000000 1.0
C      1  0.4076620000000  0.5044330000000  0.4627070000000 1.0
C      1  0.4740240000000  0.5211030000000  0.4658320000000 1.0
C      1  0.4802740000000  0.5414350000000  0.5584360000000 1.0
C      1  0.5096000000000  0.4506950000000  0.4146290000000 1.0
C      1  0.6029840000000  0.5279040000000  0.5734610000000 1.0
C      1  0.5102890000000  0.3904270000000  0.4234020000000 1.0
C      1  0.5757580000000  0.5290180000000  0.4800410000000 1.0
C      1  0.5277110000000  0.4530870000000  0.4596850000000 1.0
C      1  0.4764350000000  0.4241530000000  0.5428360000000 1.0
C      1  0.4755970000000  0.4156430000000  0.4908130000000 1.0
C      1  0.5442080000000  0.3920650000000  0.4773820000000 1.0
C      1  0.4531500000000  0.4452530000000  0.5403820000000 1.0
C      1  0.5193350000000  0.4260620000000  0.5251800000000 1.0
C      1  0.5685960000000  0.4033980000000  0.4612200000000 1.0
C      1  0.4257350000000  0.4366260000000  0.5124390000000 1.0
C      1  0.4544010000000  0.4910420000000  0.4270000000000 1.0
C      1  0.4536590000000  0.5486780000000  0.5094250000000 1.0
C      1  0.4186240000000  0.5653580000000  0.4850050000000 1.0
C      1  0.5194940000000  0.4320300000000  0.5917430000000 1.0
C      1  0.5538020000000  0.4105240000000  0.5401550000000 1.0
C      1  0.5920910000000  0.4698960000000  0.5384950000000 1.0
C      1  0.5484170000000  0.5211630000000  0.5311620000000 1.0
C      1  0.5301180000000  0.5836880000000  0.4076910000000 1.0
C      1  0.5173870000000  0.4601240000000  0.5963500000000 1.0
C      1  0.5150210000000  0.4353940000000  0.4373780000000 1.0
C      1  0.3868330000000  0.4080810000000  0.4973070000000 1.0
C      1  0.4387380000000  0.4290800000000  0.5738330000000 1.0
C      1  0.6050890000000  0.5384190000000  0.4545270000000 1.0
C      1  0.4009340000000  0.5150480000000  0.5484770000000 1.0
C      1  0.4469720000000  0.5313880000000  0.4807640000000 1.0
C      1  0.5958200000000  0.5501030000000  0.5559170000000 1.0
C      1  0.5520040000000  0.4982220000000  0.4067420000000 1.0
C      1  0.5170860000000  0.3864340000000  0.5207130000000 1.0
C      1  0.4764690000000  0.5616580000000  0.5782090000000 1.0
C      1  0.5021650000000  0.5186170000000  0.5493260000000 1.0
C      1  0.4047140000000  0.5359160000000  0.4752170000000 1.0
C      1  0.3873670000000  0.5047550000000  0.4393440000000 1.0
C      1  0.5497250000000  0.5789460000000  0.5543260000000 1.0
C      1  0.5694820000000  0.5857450000000  0.4345720000000 1.0
C      1  0.4254290000000  0.4900390000000  0.4146820000000 1.0
C      1  0.5182810000000  0.5327970000000  0.3948110000000 1.0
C      1  0.4688820000000  0.5083730000000  0.6144000000000 1.0
C      1  0.5235400000000  0.3820410000000  0.4631930000000 1.0
C      1  0.4186000000000  0.5853220000000  0.5339430000000 1.0
C      1  0.5135990000000  0.5597470000000  0.4152870000000 1.0
C      1  0.5785300000000  0.4358530000000  0.4562390000000 1.0
C      1  0.4626810000000  0.5801630000000  0.5542730000000 1.0
C      1  0.5339580000000  0.5243640000000  0.5589290000000 1.0
C      1  0.6086970000000  0.4889910000000  0.5272240000000 1.0
C      1  0.4979600000000  0.4524920000000  0.5611500000000 1.0
C      1  0.4700880000000  0.4271270000000  0.5852740000000 1.0
C      1  0.6229740000000  0.4875710000000  0.4973610000000 1.0
C      1  0.5557460000000  0.4462640000000  0.4873210000000 1.0
C      1  0.5998060000000  0.4834640000000  0.4728010000000 1.0
C      1  0.3795740000000  0.4842310000000  0.5203270000000 1.0
C      1  0.4714360000000  0.5749320000000  0.5218240000000 1.0
C      1  0.5202970000000  0.6049360000000  0.4638780000000 1.0
C      1  0.4180700000000  0.5654960000000  0.5152310000000 1.0
C      1  0.5051080000000  0.4070980000000  0.4505210000000 1.0
C      1  0.5495420000000  0.5975290000000  0.4795830000000 1.0
C      1  0.5013040000000  0.4482620000000  0.4790600000000 1.0
C      1  0.5605440000000  0.5447340000000  0.4585290000000 1.0
C      1  0.4953600000000  0.5102830000000  0.3863900000000 1.0
C      1  0.5828250000000  0.4489110000000  0.5163470000000 1.0
C      1  0.5166600000000  0.4940030000000  0.4652940000000 1.0
C      1  0.4293480000000  0.5361530000000  0.4520090000000 1.0
C      1  0.4726880000000  0.4055380000000  0.4466540000000 1.0
C      1  0.3911570000000  0.4890060000000  0.5457650000000 1.0
C      1  0.4913300000000  0.5520690000000  0.6033680000000 1.0
C      1  0.4632590000000  0.5208790000000  0.5408100000000 1.0
C      1  0.4505350000000  0.4519840000000  0.5965530000000 1.0
C      1  0.5133770000000  0.5313690000000  0.4340270000000 1.0
C      1  0.4922750000000  0.5921910000000  0.5436750000000 1.0
C      1  0.4855000000000  0.5408410000000  0.4856650000000 1.0
C      1  0.4275990000000  0.5304890000000  0.5619250000000 1.0
C      1  0.4849680000000  0.5058580000000  0.5754910000000 1.0
C      1  0.4435990000000  0.5222730000000  0.6105340000000 1.0
C      1  0.5502700000000  0.4735180000000  0.4710980000000 1.0
C      1  0.4896560000000  0.4196050000000  0.5181290000000 1.0
C      1  0.4580170000000  0.3897980000000  0.4873770000000 1.0
C      1  0.5287400000000  0.4412140000000  0.5541530000000 1.0
C      1  0.4355340000000  0.4380380000000  0.4357280000000 1.0
END
