TITL C-2847956-8218-26 6.61225206960171e-05 125000 -832.025174521294 0 0 157 (C1) n - 1
REM
REM in /home/bkarasulu/work/CARBON/AIRSS/Generating-Clusters/AIREBO/with-SteepDescent/Only-C1/SD-CG-opt/Try1-1.4A-POS3A/HFTN-CG
REM
REM
REM
REM
REM
REM ./C.cell (11c1c37f851c82e70ff6c80c92926a4b)
REM
REM compiler GCC version 9.2.1 20190827 (Red Hat 9.2.1-1)
REM options -cpp -mtune=generic -march=x86-64 -g -O0 -fpre-include=/usr/include/finclude/math-vector-fortran.h
REM seed -1055643442 416492926 1052277509 -131029758 -602079073 134816079 4525906 1440617880 -662278571 1618422490 247324815 -474614050 375979387 -1183233997 -840580017 653850336 660801357 -1152531226 33943890 -2114352162 -2114762607 -490163447 -533315733 244377457 -1538311732 -1516218127 1672152362 767681334 -1750365627 222581167 -521088081 1443512690 569151588
REM
CELL 1.54180   50.00000   50.00000   50.00000   90.00000   90.00000   90.00000
LATT -1
SFAC C  
C      1  0.5546420000000  0.5427260000000  0.5837900000000 1.0
C      1  0.4673540000000  0.4570920000000  0.5371650000000 1.0
C      1  0.5675520000000  0.4223610000000  0.4722680000000 1.0
C      1  0.4278640000000  0.4910880000000  0.5339690000000 1.0
C      1  0.5719280000000  0.5398430000000  0.4399720000000 1.0
C      1  0.5083110000000  0.4947780000000  0.4895690000000 1.0
C      1  0.5275940000000  0.5087250000000  0.5138960000000 1.0
C      1  0.4886250000000  0.4428230000000  0.5806330000000 1.0
C      1  0.5484700000000  0.5389560000000  0.5516010000000 1.0
C      1  0.5545120000000  0.4115030000000  0.4933250000000 1.0
C      1  0.5801390000000  0.5156430000000  0.5448180000000 1.0
C      1  0.4887300000000  0.5220310000000  0.4360940000000 1.0
C      1  0.5537440000000  0.5185960000000  0.5995910000000 1.0
C      1  0.4073460000000  0.5651700000000  0.4170050000000 1.0
C      1  0.5833840000000  0.5146760000000  0.4381540000000 1.0
C      1  0.4918800000000  0.5283460000000  0.5965440000000 1.0
C      1  0.5318110000000  0.4874310000000  0.4103730000000 1.0
C      1  0.5396950000000  0.5880450000000  0.4881060000000 1.0
C      1  0.4823070000000  0.4659380000000  0.4688540000000 1.0
C      1  0.4697890000000  0.5458930000000  0.4512050000000 1.0
C      1  0.5485870000000  0.5352270000000  0.5178050000000 1.0
C      1  0.4044220000000  0.5482100000000  0.5422720000000 1.0
C      1  0.4327940000000  0.4282930000000  0.4536540000000 1.0
C      1  0.4367610000000  0.5954710000000  0.4943920000000 1.0
C      1  0.5142710000000  0.5259320000000  0.3891710000000 1.0
C      1  0.5152510000000  0.4868010000000  0.5951250000000 1.0
C      1  0.4249560000000  0.5248150000000  0.4401030000000 1.0
C      1  0.4901550000000  0.5217720000000  0.5184220000000 1.0
C      1  0.5039840000000  0.4308240000000  0.5065140000000 1.0
C      1  0.5038490000000  0.5358060000000  0.5655960000000 1.0
C      1  0.4714250000000  0.5796860000000  0.4478190000000 1.0
C      1  0.4470350000000  0.5235510000000  0.5491510000000 1.0
C      1  0.4546100000000  0.4568430000000  0.4226680000000 1.0
C      1  0.4930540000000  0.5737630000000  0.4714900000000 1.0
C      1  0.4513880000000  0.4679310000000  0.4547710000000 1.0
C      1  0.5215240000000  0.4154900000000  0.4243300000000 1.0
C      1  0.5173440000000  0.5562400000000  0.4329650000000 1.0
C      1  0.5418050000000  0.4240350000000  0.5477650000000 1.0
C      1  0.4590730000000  0.5062210000000  0.4308890000000 1.0
C      1  0.5124550000000  0.4225960000000  0.4746230000000 1.0
C      1  0.4766210000000  0.5292550000000  0.5463020000000 1.0
C      1  0.5304160000000  0.5761200000000  0.4575240000000 1.0
C      1  0.4431750000000  0.5016140000000  0.5734710000000 1.0
C      1  0.5915660000000  0.5588380000000  0.5310960000000 1.0
C      1  0.4161810000000  0.4899500000000  0.4062630000000 1.0
C      1  0.4986270000000  0.4631600000000  0.4974750000000 1.0
C      1  0.4636220000000  0.5108200000000  0.3975080000000 1.0
C      1  0.5304620000000  0.4767390000000  0.5174960000000 1.0
C      1  0.4460800000000  0.4479490000000  0.5618940000000 1.0
C      1  0.4089960000000  0.4934030000000  0.5057500000000 1.0
C      1  0.5205280000000  0.5257140000000  0.4476000000000 1.0
C      1  0.4464790000000  0.5748470000000  0.5393020000000 1.0
C      1  0.4927030000000  0.5411300000000  0.4953680000000 1.0
C      1  0.5123230000000  0.5123760000000  0.5423710000000 1.0
C      1  0.4152610000000  0.5264650000000  0.4716660000000 1.0
C      1  0.4466100000000  0.5377590000000  0.4711080000000 1.0
C      1  0.4935660000000  0.6027670000000  0.5330510000000 1.0
C      1  0.5658750000000  0.4499920000000  0.4524760000000 1.0
C      1  0.4605050000000  0.4737710000000  0.4930070000000 1.0
C      1  0.4502270000000  0.5716390000000  0.5084590000000 1.0
C      1  0.5438530000000  0.6078900000000  0.5148130000000 1.0
C      1  0.5455750000000  0.5402840000000  0.4849390000000 1.0
C      1  0.4832600000000  0.4277260000000  0.4579680000000 1.0
C      1  0.4761260000000  0.4193820000000  0.4901520000000 1.0
C      1  0.4909660000000  0.4192310000000  0.5559310000000 1.0
C      1  0.5298730000000  0.5704800000000  0.5155610000000 1.0
C      1  0.5051520000000  0.6031920000000  0.4762450000000 1.0
C      1  0.5140430000000  0.3866770000000  0.5120530000000 1.0
C      1  0.4418480000000  0.5006740000000  0.4571440000000 1.0
C      1  0.5463720000000  0.4436320000000  0.5722030000000 1.0
C      1  0.4885610000000  0.5609340000000  0.4268740000000 1.0
C      1  0.5045720000000  0.4419730000000  0.4372650000000 1.0
C      1  0.5970580000000  0.4793630000000  0.4630630000000 1.0
C      1  0.4935550000000  0.5841580000000  0.5526040000000 1.0
C      1  0.5981530000000  0.4523400000000  0.4473640000000 1.0
C      1  0.4898870000000  0.4883120000000  0.5476680000000 1.0
C      1  0.4577900000000  0.4851600000000  0.5494070000000 1.0
C      1  0.5209140000000  0.3810680000000  0.5407570000000 1.0
C      1  0.4580900000000  0.4312100000000  0.4404130000000 1.0
C      1  0.4564800000000  0.5596720000000  0.5747120000000 1.0
C      1  0.6024320000000  0.4979280000000  0.5212530000000 1.0
C      1  0.4397740000000  0.5163200000000  0.5167070000000 1.0
C      1  0.5580330000000  0.5702010000000  0.4388830000000 1.0
C      1  0.4739230000000  0.5211690000000  0.4819440000000 1.0
C      1  0.5210280000000  0.4037200000000  0.5566080000000 1.0
C      1  0.5759150000000  0.4618260000000  0.5524460000000 1.0
C      1  0.5038140000000  0.5897970000000  0.5064060000000 1.0
C      1  0.5163520000000  0.5488480000000  0.4721840000000 1.0
C      1  0.5486660000000  0.4687450000000  0.4333620000000 1.0
C      1  0.4925390000000  0.4890400000000  0.5167380000000 1.0
C      1  0.4061120000000  0.5074180000000  0.4215650000000 1.0
C      1  0.5534360000000  0.5940300000000  0.5374410000000 1.0
C      1  0.5435210000000  0.5718230000000  0.5592050000000 1.0
C      1  0.4876610000000  0.5007270000000  0.5998350000000 1.0
C      1  0.4462860000000  0.4848430000000  0.4093490000000 1.0
C      1  0.5470020000000  0.4763460000000  0.5629050000000 1.0
C      1  0.5269440000000  0.4536520000000  0.4144700000000 1.0
C      1  0.4141060000000  0.4889330000000  0.5773220000000 1.0
C      1  0.5364900000000  0.4277630000000  0.5160330000000 1.0
C      1  0.4206170000000  0.4654340000000  0.5550920000000 1.0
C      1  0.5963130000000  0.5370720000000  0.4893760000000 1.0
C      1  0.5725230000000  0.5510060000000  0.4706940000000 1.0
C      1  0.4954700000000  0.4461480000000  0.5356510000000 1.0
C      1  0.5971970000000  0.5100900000000  0.4773490000000 1.0
C      1  0.4364840000000  0.4243000000000  0.4897890000000 1.0
C      1  0.4562670000000  0.4242210000000  0.5174130000000 1.0
C      1  0.5583000000000  0.5087550000000  0.4846210000000 1.0
C      1  0.4279790000000  0.4536990000000  0.4749510000000 1.0
C      1  0.4659830000000  0.4854120000000  0.5894040000000 1.0
C      1  0.4478560000000  0.4551920000000  0.5123080000000 1.0
C      1  0.4925440000000  0.4046200000000  0.5252620000000 1.0
C      1  0.4896540000000  0.5242100000000  0.4020660000000 1.0
C      1  0.5159650000000  0.5613760000000  0.5457790000000 1.0
C      1  0.5386520000000  0.4223560000000  0.4442360000000 1.0
C      1  0.4304360000000  0.5525050000000  0.4257840000000 1.0
C      1  0.5745230000000  0.4597170000000  0.5127740000000 1.0
C      1  0.4062300000000  0.4685480000000  0.4914750000000 1.0
C      1  0.5095260000000  0.5529400000000  0.6012640000000 1.0
C      1  0.5093420000000  0.4611060000000  0.5779080000000 1.0
C      1  0.4923030000000  0.5042260000000  0.4648550000000 1.0
C      1  0.5670200000000  0.5824600000000  0.4693660000000 1.0
C      1  0.3815310000000  0.5496180000000  0.5570660000000 1.0
C      1  0.4315070000000  0.5502710000000  0.5549590000000 1.0
C      1  0.4504630000000  0.5023370000000  0.4892220000000 1.0
C      1  0.4975390000000  0.4892440000000  0.4342000000000 1.0
C      1  0.6033190000000  0.4718810000000  0.5203230000000 1.0
C      1  0.5359330000000  0.4463450000000  0.4682020000000 1.0
C      1  0.5956240000000  0.5409420000000  0.5489960000000 1.0
C      1  0.4066130000000  0.5413030000000  0.5158960000000 1.0
C      1  0.5775620000000  0.5187600000000  0.5110460000000 1.0
C      1  0.5179510000000  0.4691180000000  0.5467490000000 1.0
C      1  0.5542430000000  0.5072180000000  0.5612590000000 1.0
C      1  0.5136410000000  0.4689200000000  0.4559310000000 1.0
C      1  0.5454630000000  0.5422760000000  0.4213980000000 1.0
C      1  0.5271380000000  0.3985520000000  0.4904390000000 1.0
C      1  0.4194770000000  0.4530060000000  0.5258030000000 1.0
C      1  0.4642860000000  0.4568180000000  0.5849350000000 1.0
C      1  0.5009750000000  0.4733140000000  0.4079180000000 1.0
C      1  0.4532480000000  0.3960510000000  0.4897000000000 1.0
C      1  0.5365320000000  0.5175060000000  0.4037020000000 1.0
C      1  0.4579560000000  0.4198720000000  0.5477920000000 1.0
C      1  0.5336330000000  0.5630560000000  0.5905440000000 1.0
C      1  0.4362920000000  0.5452630000000  0.5011650000000 1.0
C      1  0.5437200000000  0.4682170000000  0.5957780000000 1.0
C      1  0.5682460000000  0.4955970000000  0.4548800000000 1.0
C      1  0.5265520000000  0.5146530000000  0.5795560000000 1.0
C      1  0.4769830000000  0.4613940000000  0.3996510000000 1.0
C      1  0.5347000000000  0.4948510000000  0.4493740000000 1.0
C      1  0.4547650000000  0.5665010000000  0.4212670000000 1.0
C      1  0.4037430000000  0.5196800000000  0.4960800000000 1.0
C      1  0.5445710000000  0.4550930000000  0.4999790000000 1.0
C      1  0.4789750000000  0.5693180000000  0.5010500000000 1.0
C      1  0.4824510000000  0.5621010000000  0.5682980000000 1.0
C      1  0.5696160000000  0.4372600000000  0.5362470000000 1.0
C      1  0.5790890000000  0.4830760000000  0.4908060000000 1.0
C      1  0.5623130000000  0.5656090000000  0.5245430000000 1.0
C      1  0.3957560000000  0.4476190000000  0.5103950000000 1.0
END
