TITL C-2847947-6848-122 0.00559402930270576 125000 -778.624087289551 0 0 150 (C1) n - 1
REM
REM in /home/bkarasulu/work/CARBON/AIRSS/Generating-Clusters/AIREBO/with-SteepDescent/Only-C1/SD-CG-opt/Try1-1.4A-POS3A/HFTN-CG
REM
REM
REM
REM
REM
REM ./C.cell (11c1c37f851c82e70ff6c80c92926a4b)
REM
REM compiler GCC version 9.2.1 20190827 (Red Hat 9.2.1-1)
REM options -cpp -mtune=generic -march=x86-64 -g -O0 -fpre-include=/usr/include/finclude/math-vector-fortran.h
REM seed -502840877 -1830993783 -1871904615 363954568 -1479356852 812881054 -994189102 -2051822009 619003297 -1952330176 72686233 1874887017 67306252 159310998 656736613 -1738742474 258337565 1375708940 3001629 -1317015685 -587199096 207463658 175349750 442069573 -1552799840 1505346126 468028787 -224344220 44586320 702280258 1658414695 -1606311559 -1625330662
REM
CELL 1.54180   50.00000   50.00000   50.00000   90.00000   90.00000   90.00000
LATT -1
SFAC C  
C      1  0.4586080000000  0.5562540000000  0.5698440000000 1.0
C      1  0.5685700000000  0.4796390000000  0.4283850000000 1.0
C      1  0.4424460000000  0.5322300000000  0.5750550000000 1.0
C      1  0.5017170000000  0.4655310000000  0.5543870000000 1.0
C      1  0.5703820000000  0.4994630000000  0.5799200000000 1.0
C      1  0.5395680000000  0.4967250000000  0.5710360000000 1.0
C      1  0.5370950000000  0.5014380000000  0.5374110000000 1.0
C      1  0.4991540000000  0.5206000000000  0.4957120000000 1.0
C      1  0.4395690000000  0.4855760000000  0.4733770000000 1.0
C      1  0.4251340000000  0.5210130000000  0.5513000000000 1.0
C      1  0.5237430000000  0.5151760000000  0.4432970000000 1.0
C      1  0.4365730000000  0.4409930000000  0.5614240000000 1.0
C      1  0.4309380000000  0.4742790000000  0.5103520000000 1.0
C      1  0.5807650000000  0.5204430000000  0.5643480000000 1.0
C      1  0.5339240000000  0.5472440000000  0.5925290000000 1.0
C      1  0.5762890000000  0.5749010000000  0.4944650000000 1.0
C      1  0.4159100000000  0.5078580000000  0.4833760000000 1.0
C      1  0.4245890000000  0.5824730000000  0.5118450000000 1.0
C      1  0.5218500000000  0.4723800000000  0.5799170000000 1.0
C      1  0.5426270000000  0.5275510000000  0.3697080000000 1.0
C      1  0.4299870000000  0.4552150000000  0.5878810000000 1.0
C      1  0.4711690000000  0.4822660000000  0.4078650000000 1.0
C      1  0.5570500000000  0.4072190000000  0.5101280000000 1.0
C      1  0.5131830000000  0.4845760000000  0.4870090000000 1.0
C      1  0.4776690000000  0.5545860000000  0.4350750000000 1.0
C      1  0.4351170000000  0.5528250000000  0.5191410000000 1.0
C      1  0.4817860000000  0.4131420000000  0.4487400000000 1.0
C      1  0.4665030000000  0.5563690000000  0.5065560000000 1.0
C      1  0.5527560000000  0.4603790000000  0.4992960000000 1.0
C      1  0.5349370000000  0.5157540000000  0.3931560000000 1.0
C      1  0.5896670000000  0.5411310000000  0.4510520000000 1.0
C      1  0.4515310000000  0.5531220000000  0.4759060000000 1.0
C      1  0.4894420000000  0.3914700000000  0.5305380000000 1.0
C      1  0.4380100000000  0.5302500000000  0.4962720000000 1.0
C      1  0.4526230000000  0.5083830000000  0.5911420000000 1.0
C      1  0.5395290000000  0.5595260000000  0.4185460000000 1.0
C      1  0.5775020000000  0.5408850000000  0.4891000000000 1.0
C      1  0.5940550000000  0.5565380000000  0.5143410000000 1.0
C      1  0.5389910000000  0.4123280000000  0.4846140000000 1.0
C      1  0.5418590000000  0.4752940000000  0.4209200000000 1.0
C      1  0.4440580000000  0.4136370000000  0.5192620000000 1.0
C      1  0.5206990000000  0.4683010000000  0.4424780000000 1.0
C      1  0.4405700000000  0.4741370000000  0.5544110000000 1.0
C      1  0.5017140000000  0.4435820000000  0.4385040000000 1.0
C      1  0.5345040000000  0.4668820000000  0.4713520000000 1.0
C      1  0.5171540000000  0.4201140000000  0.4287810000000 1.0
C      1  0.4611880000000  0.5858230000000  0.4772700000000 1.0
C      1  0.4109260000000  0.4900820000000  0.5495840000000 1.0
C      1  0.4002440000000  0.4832480000000  0.4676310000000 1.0
C      1  0.5197580000000  0.5911730000000  0.4583190000000 1.0
C      1  0.4941850000000  0.5934440000000  0.4806280000000 1.0
C      1  0.4974270000000  0.4834540000000  0.5983500000000 1.0
C      1  0.5514090000000  0.4962680000000  0.4740700000000 1.0
C      1  0.4860020000000  0.4360240000000  0.5592110000000 1.0
C      1  0.5537640000000  0.5473700000000  0.5126410000000 1.0
C      1  0.5824520000000  0.4854600000000  0.4519850000000 1.0
C      1  0.4294600000000  0.4846210000000  0.4303690000000 1.0
C      1  0.4851260000000  0.5233700000000  0.4463020000000 1.0
C      1  0.4827890000000  0.4687440000000  0.4819030000000 1.0
C      1  0.4048050000000  0.4817820000000  0.4412690000000 1.0
C      1  0.5038840000000  0.4972020000000  0.5433410000000 1.0
C      1  0.5607890000000  0.4369120000000  0.4758210000000 1.0
C      1  0.5224680000000  0.4389000000000  0.4864980000000 1.0
C      1  0.4788590000000  0.5665170000000  0.5365620000000 1.0
C      1  0.4656410000000  0.6018590000000  0.5237800000000 1.0
C      1  0.4483720000000  0.4606420000000  0.4215150000000 1.0
C      1  0.5328400000000  0.5247630000000  0.4746410000000 1.0
C      1  0.4082930000000  0.5374910000000  0.5302170000000 1.0
C      1  0.4588630000000  0.5851500000000  0.5526380000000 1.0
C      1  0.3986730000000  0.5167610000000  0.5099840000000 1.0
C      1  0.4944090000000  0.5381280000000  0.4104240000000 1.0
C      1  0.5275790000000  0.5969830000000  0.5044100000000 1.0
C      1  0.4313930000000  0.4224030000000  0.4709780000000 1.0
C      1  0.4532030000000  0.5953760000000  0.4479140000000 1.0
C      1  0.4711390000000  0.4737770000000  0.5129120000000 1.0
C      1  0.4978200000000  0.5672910000000  0.4990310000000 1.0
C      1  0.4900760000000  0.3905020000000  0.4804780000000 1.0
C      1  0.4463460000000  0.5016370000000  0.5352500000000 1.0
C      1  0.4880840000000  0.5495050000000  0.5715330000000 1.0
C      1  0.6111440000000  0.4815540000000  0.5049790000000 1.0
C      1  0.4515700000000  0.5308240000000  0.4164130000000 1.0
C      1  0.5281840000000  0.5777670000000  0.5501400000000 1.0
C      1  0.5175020000000  0.5621240000000  0.5735100000000 1.0
C      1  0.4957360000000  0.6100740000000  0.5102480000000 1.0
C      1  0.4883590000000  0.4380590000000  0.4693230000000 1.0
C      1  0.5337050000000  0.4882830000000  0.3976920000000 1.0
C      1  0.5226430000000  0.5358590000000  0.5238520000000 1.0
C      1  0.5593300000000  0.5272000000000  0.5394480000000 1.0
C      1  0.4468660000000  0.5967400000000  0.5032630000000 1.0
C      1  0.4505050000000  0.4238790000000  0.5456710000000 1.0
C      1  0.5540280000000  0.5723990000000  0.5358070000000 1.0
C      1  0.5393540000000  0.4353700000000  0.5467640000000 1.0
C      1  0.4812030000000  0.4210850000000  0.5310820000000 1.0
C      1  0.5802200000000  0.4937220000000  0.5346970000000 1.0
C      1  0.5702170000000  0.4113450000000  0.4597080000000 1.0
C      1  0.4696880000000  0.4643760000000  0.5430260000000 1.0
C      1  0.5805520000000  0.4639810000000  0.4700920000000 1.0
C      1  0.4615540000000  0.4076500000000  0.4749500000000 1.0
C      1  0.3997910000000  0.5698910000000  0.5239830000000 1.0
C      1  0.5768770000000  0.4721540000000  0.5515140000000 1.0
C      1  0.5001020000000  0.5661570000000  0.4522870000000 1.0
C      1  0.6013270000000  0.5139830000000  0.5419580000000 1.0
C      1  0.4696380000000  0.4891920000000  0.4579220000000 1.0
C      1  0.5758490000000  0.5644220000000  0.4527350000000 1.0
C      1  0.5780840000000  0.5159030000000  0.4666120000000 1.0
C      1  0.4928410000000  0.4364370000000  0.5030400000000 1.0
C      1  0.4908080000000  0.5185070000000  0.5674260000000 1.0
C      1  0.4264230000000  0.4424120000000  0.4980240000000 1.0
C      1  0.4613920000000  0.5817590000000  0.4279340000000 1.0
C      1  0.4403730000000  0.4436500000000  0.4459430000000 1.0
C      1  0.5070830000000  0.5832650000000  0.5278210000000 1.0
C      1  0.4776640000000  0.5101920000000  0.4158430000000 1.0
C      1  0.5263160000000  0.5521070000000  0.4554850000000 1.0
C      1  0.4131770000000  0.4252380000000  0.4446160000000 1.0
C      1  0.4595270000000  0.4337620000000  0.4966340000000 1.0
C      1  0.4749420000000  0.5132840000000  0.4789790000000 1.0
C      1  0.4786650000000  0.5292790000000  0.5154310000000 1.0
C      1  0.5003170000000  0.4930440000000  0.4437500000000 1.0
C      1  0.5813520000000  0.5530800000000  0.5407140000000 1.0
C      1  0.5249900000000  0.5509550000000  0.4948680000000 1.0
C      1  0.5268860000000  0.4138730000000  0.5662200000000 1.0
C      1  0.5036390000000  0.4185000000000  0.5756570000000 1.0
C      1  0.4809000000000  0.4528810000000  0.4178170000000 1.0
C      1  0.4740260000000  0.5127100000000  0.5384290000000 1.0
C      1  0.5624350000000  0.4273480000000  0.5274720000000 1.0
C      1  0.5836560000000  0.4726280000000  0.5012480000000 1.0
C      1  0.5762100000000  0.4693520000000  0.5835360000000 1.0
C      1  0.4494570000000  0.5410500000000  0.4483930000000 1.0
C      1  0.5491750000000  0.4583120000000  0.5655570000000 1.0
C      1  0.5620550000000  0.4984380000000  0.5062990000000 1.0
C      1  0.5324890000000  0.4712290000000  0.5193730000000 1.0
C      1  0.6144470000000  0.5386550000000  0.4395350000000 1.0
C      1  0.4018260000000  0.4870410000000  0.5204130000000 1.0
C      1  0.4528620000000  0.4560820000000  0.4718540000000 1.0
C      1  0.5295280000000  0.5084180000000  0.5049620000000 1.0
C      1  0.5819140000000  0.4459560000000  0.5222860000000 1.0
C      1  0.4391140000000  0.4843580000000  0.5868080000000 1.0
C      1  0.5471780000000  0.5743170000000  0.4464700000000 1.0
C      1  0.4519960000000  0.4995880000000  0.5017580000000 1.0
C      1  0.5539960000000  0.5871030000000  0.5072720000000 1.0
C      1  0.5240380000000  0.5325070000000  0.4158370000000 1.0
C      1  0.4806800000000  0.5036510000000  0.5905430000000 1.0
C      1  0.5406530000000  0.5233720000000  0.5905000000000 1.0
C      1  0.5047670000000  0.5463240000000  0.5428350000000 1.0
C      1  0.4023630000000  0.4660950000000  0.4939130000000 1.0
C      1  0.4986460000000  0.3676660000000  0.5303300000000 1.0
C      1  0.4467550000000  0.5076990000000  0.4408690000000 1.0
C      1  0.5149110000000  0.3924330000000  0.4790190000000 1.0
C      1  0.5130950000000  0.4468260000000  0.5283470000000 1.0
C      1  0.5006220000000  0.4822820000000  0.5150470000000 1.0
END
