TITL C-2847950-6905-514 -0.00179022766643942 125000 -159.325809561245 0 0 30 (C1) n - 1
REM
REM in /home/bkarasulu/work/CARBON/AIRSS/Generating-Clusters/AIREBO/with-SteepDescent/Only-C1/SD-CG-opt/Try1-1.4A-POS3A/HFTN-CG
REM
REM
REM
REM
REM
REM ./C.cell (11c1c37f851c82e70ff6c80c92926a4b)
REM
REM compiler GCC version 9.2.1 20190827 (Red Hat 9.2.1-1)
REM options -cpp -mtune=generic -march=x86-64 -g -O0 -fpre-include=/usr/include/finclude/math-vector-fortran.h
REM seed 504516732 366661290 1250737174 1422822798 -1634115400 209443175 -1869664277 139587057 -827445927 1636374066 -267928812 -717988359 -2066971242 906696304 101961336 1430836114 915317876 334111795 -1581670203 -1985923901 -598916852 1627448915 -56560017 2003429470 420320924 -117917598 -1794921107 363428750 -1124746394 -1769432448 1003102167 879064014 4015114
REM
CELL 1.54180   50.00000   50.00000   50.00000   90.00000   90.00000   90.00000
LATT -1
SFAC C  
C      1  0.5276610000000  0.4678630000000  0.4528590000000 1.0
C      1  0.4676470000000  0.4678880000000  0.5424630000000 1.0
C      1  0.4491870000000  0.5152560000000  0.5463120000000 1.0
C      1  0.4803020000000  0.4505730000000  0.5180460000000 1.0
C      1  0.4421030000000  0.5062030000000  0.5194200000000 1.0
C      1  0.4786320000000  0.4360240000000  0.4944040000000 1.0
C      1  0.5394100000000  0.4658070000000  0.4781890000000 1.0
C      1  0.5069150000000  0.4931750000000  0.4500280000000 1.0
C      1  0.4576550000000  0.4828250000000  0.5151460000000 1.0
C      1  0.5429450000000  0.5036010000000  0.4904730000000 1.0
C      1  0.4796890000000  0.5374840000000  0.4681230000000 1.0
C      1  0.4920150000000  0.5287210000000  0.5151590000000 1.0
C      1  0.4709500000000  0.5330550000000  0.4930320000000 1.0
C      1  0.4810460000000  0.4447270000000  0.4683170000000 1.0
C      1  0.5423030000000  0.4928480000000  0.5225160000000 1.0
C      1  0.5325380000000  0.5248120000000  0.5444190000000 1.0
C      1  0.5556190000000  0.4680330000000  0.5033700000000 1.0
C      1  0.5610210000000  0.5239060000000  0.4729450000000 1.0
C      1  0.5074260000000  0.5217720000000  0.4582140000000 1.0
C      1  0.4800510000000  0.5233860000000  0.5451830000000 1.0
C      1  0.4917320000000  0.4811880000000  0.5137340000000 1.0
C      1  0.5110370000000  0.5043790000000  0.5294080000000 1.0
C      1  0.5186640000000  0.4811290000000  0.4983230000000 1.0
C      1  0.4897970000000  0.5436150000000  0.4389890000000 1.0
C      1  0.5280790000000  0.5299840000000  0.4789400000000 1.0
C      1  0.4446600000000  0.5259690000000  0.4995960000000 1.0
C      1  0.4959160000000  0.4627440000000  0.4535420000000 1.0
C      1  0.4710260000000  0.4936120000000  0.5575600000000 1.0
C      1  0.5183110000000  0.5431930000000  0.5049690000000 1.0
C      1  0.5356620000000  0.5462290000000  0.5263200000000 1.0
END
