TITL C-2848498-1409-608 0.00141758459822932 125000 -885.226021556876 0 0 168 (C1) n - 1
REM
REM in /home/bkarasulu/work/CARBON/AIRSS/Generating-Clusters/AIREBO/with-SteepDescent/Only-C1/SD-CG-opt/Try1-1.4A-POS3A/HFTN-CG
REM
REM
REM
REM
REM
REM ./C.cell (11c1c37f851c82e70ff6c80c92926a4b)
REM
REM compiler GCC version 9.2.1 20190827 (Red Hat 9.2.1-1)
REM options -cpp -mtune=generic -march=x86-64 -g -O0 -fpre-include=/usr/include/finclude/math-vector-fortran.h
REM seed -613110837 1393042351 -1002697466 -1393456546 -87294761 860326206 -185188316 1677290671 1931632001 -1996836129 1684044865 -280780699 -2135510313 -749357128 2070435713 836450917 734846161 -955155145 331646225 -922648994 -542140238 -124154535 218413783 -1005463101 1903559804 870542866 2100420420 -1715881091 -1630317223 256728263 -1014971488 932788112 873450257
REM
CELL 1.54180   50.00000   50.00000   50.00000   90.00000   90.00000   90.00000
LATT -1
SFAC C  
C      1  0.5683020000000  0.5861210000000  0.4669700000000 1.0
C      1  0.5670700000000  0.4838650000000  0.4134470000000 1.0
C      1  0.5108270000000  0.4889260000000  0.6104950000000 1.0
C      1  0.5493590000000  0.5319020000000  0.5579290000000 1.0
C      1  0.3916140000000  0.4807210000000  0.4893000000000 1.0
C      1  0.4113900000000  0.4641780000000  0.5114680000000 1.0
C      1  0.5319610000000  0.3915410000000  0.5017170000000 1.0
C      1  0.5717390000000  0.4464740000000  0.5598400000000 1.0
C      1  0.5411430000000  0.4506300000000  0.4462140000000 1.0
C      1  0.5270800000000  0.5295580000000  0.5050450000000 1.0
C      1  0.4492700000000  0.5942930000000  0.4840000000000 1.0
C      1  0.4580010000000  0.4823900000000  0.4895810000000 1.0
C      1  0.5879540000000  0.5201320000000  0.4428560000000 1.0
C      1  0.5753380000000  0.5010320000000  0.4925200000000 1.0
C      1  0.5265480000000  0.4550390000000  0.4013330000000 1.0
C      1  0.5159170000000  0.5295500000000  0.4739370000000 1.0
C      1  0.4461760000000  0.5623640000000  0.4777430000000 1.0
C      1  0.5604060000000  0.5353220000000  0.5067020000000 1.0
C      1  0.5270730000000  0.5041740000000  0.5848130000000 1.0
C      1  0.5692060000000  0.4547420000000  0.4957960000000 1.0
C      1  0.5874130000000  0.4901930000000  0.4399540000000 1.0
C      1  0.5370990000000  0.4540480000000  0.4987400000000 1.0
C      1  0.4856250000000  0.5885650000000  0.5322350000000 1.0
C      1  0.4306900000000  0.5319900000000  0.4812730000000 1.0
C      1  0.5554550000000  0.5627310000000  0.5473310000000 1.0
C      1  0.4698820000000  0.4516670000000  0.5884930000000 1.0
C      1  0.5379280000000  0.5873060000000  0.4610810000000 1.0
C      1  0.5426610000000  0.4354670000000  0.5503890000000 1.0
C      1  0.4462910000000  0.4290420000000  0.4852930000000 1.0
C      1  0.4106010000000  0.4821520000000  0.5648250000000 1.0
C      1  0.5534130000000  0.5123000000000  0.4111310000000 1.0
C      1  0.4261760000000  0.4545400000000  0.4397810000000 1.0
C      1  0.5222210000000  0.5165040000000  0.5467180000000 1.0
C      1  0.5213170000000  0.4775080000000  0.5644910000000 1.0
C      1  0.4871910000000  0.5129560000000  0.3982250000000 1.0
C      1  0.4887450000000  0.4782870000000  0.5962150000000 1.0
C      1  0.5291560000000  0.4863590000000  0.5326000000000 1.0
C      1  0.4937550000000  0.4642640000000  0.5494550000000 1.0
C      1  0.4958730000000  0.5262180000000  0.5182460000000 1.0
C      1  0.4404260000000  0.5330320000000  0.4216840000000 1.0
C      1  0.5845780000000  0.5177660000000  0.5206720000000 1.0
C      1  0.5605820000000  0.5797790000000  0.5180640000000 1.0
C      1  0.4383280000000  0.4125320000000  0.5309410000000 1.0
C      1  0.5249100000000  0.5634960000000  0.5051400000000 1.0
C      1  0.5620330000000  0.5107620000000  0.4627750000000 1.0
C      1  0.5431600000000  0.4839310000000  0.4536560000000 1.0
C      1  0.5220040000000  0.4464790000000  0.5711160000000 1.0
C      1  0.3969140000000  0.5127920000000  0.5703510000000 1.0
C      1  0.6324280000000  0.5152310000000  0.4837510000000 1.0
C      1  0.5637230000000  0.4183040000000  0.5106890000000 1.0
C      1  0.5316530000000  0.5227920000000  0.4351370000000 1.0
C      1  0.5045950000000  0.3831170000000  0.4890260000000 1.0
C      1  0.4931970000000  0.4472210000000  0.4798120000000 1.0
C      1  0.4688120000000  0.4385470000000  0.4630300000000 1.0
C      1  0.5018070000000  0.5236710000000  0.5729460000000 1.0
C      1  0.5883690000000  0.5595030000000  0.5476590000000 1.0
C      1  0.4377110000000  0.4732100000000  0.4196320000000 1.0
C      1  0.4901160000000  0.5462050000000  0.4745010000000 1.0
C      1  0.4980570000000  0.4355280000000  0.5789700000000 1.0
C      1  0.5155510000000  0.5921350000000  0.4468520000000 1.0
C      1  0.5449220000000  0.4204870000000  0.4582140000000 1.0
C      1  0.4422570000000  0.4620680000000  0.6016870000000 1.0
C      1  0.4705390000000  0.4949120000000  0.4126220000000 1.0
C      1  0.6033260000000  0.5612290000000  0.5037810000000 1.0
C      1  0.5374430000000  0.5558700000000  0.4740380000000 1.0
C      1  0.4137470000000  0.5899830000000  0.5141750000000 1.0
C      1  0.5377990000000  0.6010570000000  0.5176480000000 1.0
C      1  0.4780830000000  0.4337990000000  0.4306630000000 1.0
C      1  0.5955550000000  0.4882470000000  0.5338070000000 1.0
C      1  0.5394130000000  0.4792310000000  0.3941720000000 1.0
C      1  0.4809420000000  0.4650330000000  0.5012370000000 1.0
C      1  0.5262610000000  0.5754020000000  0.5367550000000 1.0
C      1  0.5122510000000  0.4603850000000  0.4317170000000 1.0
C      1  0.4633630000000  0.4635320000000  0.5572990000000 1.0
C      1  0.5794550000000  0.4509760000000  0.4573510000000 1.0
C      1  0.4097570000000  0.5635050000000  0.5125660000000 1.0
C      1  0.4632400000000  0.4691410000000  0.4404820000000 1.0
C      1  0.5678200000000  0.5409480000000  0.4773250000000 1.0
C      1  0.5888260000000  0.4786190000000  0.4707750000000 1.0
C      1  0.4290360000000  0.5010520000000  0.4172970000000 1.0
C      1  0.4296190000000  0.4897940000000  0.4977260000000 1.0
C      1  0.3812310000000  0.5374150000000  0.4802350000000 1.0
C      1  0.5705600000000  0.4257870000000  0.4780270000000 1.0
C      1  0.4830310000000  0.4632890000000  0.4144260000000 1.0
C      1  0.4710500000000  0.4034330000000  0.4443860000000 1.0
C      1  0.5040810000000  0.5426990000000  0.4346720000000 1.0
C      1  0.4863680000000  0.5158560000000  0.4457760000000 1.0
C      1  0.5678360000000  0.4570730000000  0.4299400000000 1.0
C      1  0.4346760000000  0.4299430000000  0.5522650000000 1.0
C      1  0.4640100000000  0.5269970000000  0.4765860000000 1.0
C      1  0.5430900000000  0.4995450000000  0.5045500000000 1.0
C      1  0.4799770000000  0.4991600000000  0.5764160000000 1.0
C      1  0.4321390000000  0.5419300000000  0.5245950000000 1.0
C      1  0.5294590000000  0.4809570000000  0.4829570000000 1.0
C      1  0.5689080000000  0.5700140000000  0.4427920000000 1.0
C      1  0.5421080000000  0.5533500000000  0.4404380000000 1.0
C      1  0.6075460000000  0.5102630000000  0.4866820000000 1.0
C      1  0.5752680000000  0.5705270000000  0.4923710000000 1.0
C      1  0.4665720000000  0.4174610000000  0.5177300000000 1.0
C      1  0.6019990000000  0.4538220000000  0.4899480000000 1.0
C      1  0.5734650000000  0.5157770000000  0.5520860000000 1.0
C      1  0.4874980000000  0.4356380000000  0.5372250000000 1.0
C      1  0.4433870000000  0.4655460000000  0.5351420000000 1.0
C      1  0.4116690000000  0.5377830000000  0.5720800000000 1.0
C      1  0.5302810000000  0.5540400000000  0.5979030000000 1.0
C      1  0.4413040000000  0.4303520000000  0.4447940000000 1.0
C      1  0.5881060000000  0.4918810000000  0.5631840000000 1.0
C      1  0.5512350000000  0.4809910000000  0.5907950000000 1.0
C      1  0.5195570000000  0.4874180000000  0.6360840000000 1.0
C      1  0.4845940000000  0.5397910000000  0.4069600000000 1.0
C      1  0.5720150000000  0.4710390000000  0.5739620000000 1.0
C      1  0.4718830000000  0.5596600000000  0.4996380000000 1.0
C      1  0.5035950000000  0.4982180000000  0.4691900000000 1.0
C      1  0.5033450000000  0.4228930000000  0.4924080000000 1.0
C      1  0.4798580000000  0.4015640000000  0.4949550000000 1.0
C      1  0.4825870000000  0.5052450000000  0.4949910000000 1.0
C      1  0.4671230000000  0.5120100000000  0.5311840000000 1.0
C      1  0.4578210000000  0.4259710000000  0.5697680000000 1.0
C      1  0.5487200000000  0.4590930000000  0.5297010000000 1.0
C      1  0.4589850000000  0.5286360000000  0.5597050000000 1.0
C      1  0.5453080000000  0.5324520000000  0.5897120000000 1.0
C      1  0.4504690000000  0.5061870000000  0.5837800000000 1.0
C      1  0.4878850000000  0.5417080000000  0.5474540000000 1.0
C      1  0.4223160000000  0.4928850000000  0.5366580000000 1.0
C      1  0.5258800000000  0.4082070000000  0.4332040000000 1.0
C      1  0.4001730000000  0.5124270000000  0.5197900000000 1.0
C      1  0.4926180000000  0.4968630000000  0.5449250000000 1.0
C      1  0.4632530000000  0.5544390000000  0.5277590000000 1.0
C      1  0.5010880000000  0.5714760000000  0.5543000000000 1.0
C      1  0.5170900000000  0.5044200000000  0.3972440000000 1.0
C      1  0.4370080000000  0.5664960000000  0.4180790000000 1.0
C      1  0.4319660000000  0.4830960000000  0.5870330000000 1.0
C      1  0.5817880000000  0.4648220000000  0.5243520000000 1.0
C      1  0.5264110000000  0.5542070000000  0.4111850000000 1.0
C      1  0.4997030000000  0.4093350000000  0.4304520000000 1.0
C      1  0.4244620000000  0.4686230000000  0.4637810000000 1.0
C      1  0.4578500000000  0.5937020000000  0.5320380000000 1.0
C      1  0.4322430000000  0.5016670000000  0.4659510000000 1.0
C      1  0.5152460000000  0.4197260000000  0.5421720000000 1.0
C      1  0.5176820000000  0.6161820000000  0.5019640000000 1.0
C      1  0.6001430000000  0.5460060000000  0.5264510000000 1.0
C      1  0.4912150000000  0.5701510000000  0.4505920000000 1.0
C      1  0.4039870000000  0.5357670000000  0.4970160000000 1.0
C      1  0.5292770000000  0.3942630000000  0.4701580000000 1.0
C      1  0.5301290000000  0.4234300000000  0.5118180000000 1.0
C      1  0.4961780000000  0.6167400000000  0.4808020000000 1.0
C      1  0.4422560000000  0.5726510000000  0.5474020000000 1.0
C      1  0.5348370000000  0.5322380000000  0.3946600000000 1.0
C      1  0.4368790000000  0.5347320000000  0.5845840000000 1.0
C      1  0.4815870000000  0.5854300000000  0.4794190000000 1.0
C      1  0.4558010000000  0.4488740000000  0.5112680000000 1.0
C      1  0.4871450000000  0.4108940000000  0.5605440000000 1.0
C      1  0.4594200000000  0.4009690000000  0.4709060000000 1.0
C      1  0.4401620000000  0.6005370000000  0.5098240000000 1.0
C      1  0.4539400000000  0.5074480000000  0.4395660000000 1.0
C      1  0.4248680000000  0.4518460000000  0.4861910000000 1.0
C      1  0.5022140000000  0.5868530000000  0.5064190000000 1.0
C      1  0.4166190000000  0.5562280000000  0.5512260000000 1.0
C      1  0.5074650000000  0.5557200000000  0.5826050000000 1.0
C      1  0.5781590000000  0.4321710000000  0.5309110000000 1.0
C      1  0.4398000000000  0.5132510000000  0.5201360000000 1.0
C      1  0.4691380000000  0.5603950000000  0.4266400000000 1.0
C      1  0.4927990000000  0.4696990000000  0.4565830000000 1.0
C      1  0.5005160000000  0.4838730000000  0.5145120000000 1.0
C      1  0.5232110000000  0.4923760000000  0.4281460000000 1.0
C      1  0.4132590000000  0.4551730000000  0.5442330000000 1.0
C      1  0.4521400000000  0.5457260000000  0.4507790000000 1.0
C      1  0.3990090000000  0.4982160000000  0.4723140000000 1.0
END
