TITL C-2847948-6138-694 -0.00228892802139288 125000 -722.648294040592 0 0 135 (C1) n - 1
REM
REM in /home/bkarasulu/work/CARBON/AIRSS/Generating-Clusters/AIREBO/with-SteepDescent/Only-C1/SD-CG-opt/Try1-1.4A-POS3A/HFTN-CG
REM
REM
REM
REM
REM
REM ./C.cell (11c1c37f851c82e70ff6c80c92926a4b)
REM
REM compiler GCC version 9.2.1 20190827 (Red Hat 9.2.1-1)
REM options -cpp -mtune=generic -march=x86-64 -g -O0 -fpre-include=/usr/include/finclude/math-vector-fortran.h
REM seed -497468800 317722890 1795605253 -341630101 734473977 1987283155 2000324257 1244574488 1284960191 -293896321 -924867693 1953652954 -1941158521 -1506258184 526336390 234094909 281798516 281772186 1056161255 1767979444 751100192 1720689985 -1680920497 1813134876 1181788059 610209544 809605078 -207961741 -1227728479 253416956 321069017 1246394237 -24951674
REM
CELL 1.54180   50.00000   50.00000   50.00000   90.00000   90.00000   90.00000
LATT -1
SFAC C  
C      1  0.5035340000000  0.4346290000000  0.5681910000000 1.0
C      1  0.5354080000000  0.5270780000000  0.4563040000000 1.0
C      1  0.4874140000000  0.5138370000000  0.5152600000000 1.0
C      1  0.5000110000000  0.5176040000000  0.5466200000000 1.0
C      1  0.4388480000000  0.5329730000000  0.5832900000000 1.0
C      1  0.4039660000000  0.5310470000000  0.5050270000000 1.0
C      1  0.5463910000000  0.5298850000000  0.5666120000000 1.0
C      1  0.5496920000000  0.4377380000000  0.5744470000000 1.0
C      1  0.5303200000000  0.4593430000000  0.5011670000000 1.0
C      1  0.5433340000000  0.5765210000000  0.5450140000000 1.0
C      1  0.5440630000000  0.5021350000000  0.5008300000000 1.0
C      1  0.4846380000000  0.5828560000000  0.4547950000000 1.0
C      1  0.4898480000000  0.5907170000000  0.5375020000000 1.0
C      1  0.5754340000000  0.5773780000000  0.5434710000000 1.0
C      1  0.5222000000000  0.5416890000000  0.5182720000000 1.0
C      1  0.5730220000000  0.4854830000000  0.5641650000000 1.0
C      1  0.5272120000000  0.4418810000000  0.4034630000000 1.0
C      1  0.5012400000000  0.4075790000000  0.4754350000000 1.0
C      1  0.5282490000000  0.5864970000000  0.4617430000000 1.0
C      1  0.4711210000000  0.5740060000000  0.5604730000000 1.0
C      1  0.4395390000000  0.4219350000000  0.5008420000000 1.0
C      1  0.4581110000000  0.4858220000000  0.4287080000000 1.0
C      1  0.5332040000000  0.5563140000000  0.5666410000000 1.0
C      1  0.4688510000000  0.5467510000000  0.5809880000000 1.0
C      1  0.4774640000000  0.5149080000000  0.4765450000000 1.0
C      1  0.5778820000000  0.5086170000000  0.4932270000000 1.0
C      1  0.5738130000000  0.5001210000000  0.4348970000000 1.0
C      1  0.4319590000000  0.4778980000000  0.4471320000000 1.0
C      1  0.5288990000000  0.5105140000000  0.5301000000000 1.0
C      1  0.4282120000000  0.5506990000000  0.5113210000000 1.0
C      1  0.5172960000000  0.4781460000000  0.5343890000000 1.0
C      1  0.4872690000000  0.4327620000000  0.5150850000000 1.0
C      1  0.5017840000000  0.5492710000000  0.5589210000000 1.0
C      1  0.4650120000000  0.4525670000000  0.4724640000000 1.0
C      1  0.4375750000000  0.4591380000000  0.4871590000000 1.0
C      1  0.5081750000000  0.5150400000000  0.5991470000000 1.0
C      1  0.5780210000000  0.4999600000000  0.5416260000000 1.0
C      1  0.5540010000000  0.5323170000000  0.4926620000000 1.0
C      1  0.4729020000000  0.4858730000000  0.4014430000000 1.0
C      1  0.5216030000000  0.5385540000000  0.4844200000000 1.0
C      1  0.5683460000000  0.5594130000000  0.4919530000000 1.0
C      1  0.5089920000000  0.5597490000000  0.4630930000000 1.0
C      1  0.4830530000000  0.4615720000000  0.5649700000000 1.0
C      1  0.5445910000000  0.4596950000000  0.3993550000000 1.0
C      1  0.4468240000000  0.4724490000000  0.5151720000000 1.0
C      1  0.4380890000000  0.5821980000000  0.5050000000000 1.0
C      1  0.5214030000000  0.5424660000000  0.4293940000000 1.0
C      1  0.5380400000000  0.4421440000000  0.5294780000000 1.0
C      1  0.4899180000000  0.5363480000000  0.4954320000000 1.0
C      1  0.4497820000000  0.4360200000000  0.4290480000000 1.0
C      1  0.5160400000000  0.4307690000000  0.4336090000000 1.0
C      1  0.4508120000000  0.4630340000000  0.5756750000000 1.0
C      1  0.5578960000000  0.4250200000000  0.5078070000000 1.0
C      1  0.4674500000000  0.4187070000000  0.4936020000000 1.0
C      1  0.4731210000000  0.4390540000000  0.5884240000000 1.0
C      1  0.4757640000000  0.4728920000000  0.4517530000000 1.0
C      1  0.4808800000000  0.4729180000000  0.4917810000000 1.0
C      1  0.4608190000000  0.4987260000000  0.5011370000000 1.0
C      1  0.4209140000000  0.5404370000000  0.4587290000000 1.0
C      1  0.4824000000000  0.4265500000000  0.4307420000000 1.0
C      1  0.5243360000000  0.4128550000000  0.4613080000000 1.0
C      1  0.4858950000000  0.4884890000000  0.5359550000000 1.0
C      1  0.4411930000000  0.5927820000000  0.4807350000000 1.0
C      1  0.5060060000000  0.4572520000000  0.4524370000000 1.0
C      1  0.5499090000000  0.4434780000000  0.4628610000000 1.0
C      1  0.4319990000000  0.4558870000000  0.5518900000000 1.0
C      1  0.5650570000000  0.5375350000000  0.4459720000000 1.0
C      1  0.5475100000000  0.4191330000000  0.4827850000000 1.0
C      1  0.5108100000000  0.4954990000000  0.6230690000000 1.0
C      1  0.4929370000000  0.4971990000000  0.4598960000000 1.0
C      1  0.5020430000000  0.5938790000000  0.4821160000000 1.0
C      1  0.4530640000000  0.5832590000000  0.4569500000000 1.0
C      1  0.4635910000000  0.5419500000000  0.4312920000000 1.0
C      1  0.4586560000000  0.5300160000000  0.4614200000000 1.0
C      1  0.4681150000000  0.5221750000000  0.5575040000000 1.0
C      1  0.5811190000000  0.4835040000000  0.5164780000000 1.0
C      1  0.5342580000000  0.5961060000000  0.4935430000000 1.0
C      1  0.5510530000000  0.5785600000000  0.5119560000000 1.0
C      1  0.4991240000000  0.4145310000000  0.5486430000000 1.0
C      1  0.5022920000000  0.5806120000000  0.5723430000000 1.0
C      1  0.4407520000000  0.5611710000000  0.4440570000000 1.0
C      1  0.4156220000000  0.4757990000000  0.5397670000000 1.0
C      1  0.5053260000000  0.4095120000000  0.5022120000000 1.0
C      1  0.4700190000000  0.5585830000000  0.5011220000000 1.0
C      1  0.4283860000000  0.5248700000000  0.5591250000000 1.0
C      1  0.4954380000000  0.4984310000000  0.5744320000000 1.0
C      1  0.4457310000000  0.4357080000000  0.5308310000000 1.0
C      1  0.4728730000000  0.4531990000000  0.4109370000000 1.0
C      1  0.4260110000000  0.5070920000000  0.4635310000000 1.0
C      1  0.5295100000000  0.4666260000000  0.4677010000000 1.0
C      1  0.5701900000000  0.4521990000000  0.5247040000000 1.0
C      1  0.4230150000000  0.5036510000000  0.5406880000000 1.0
C      1  0.4468470000000  0.5397930000000  0.5374570000000 1.0
C      1  0.5006350000000  0.4655880000000  0.4214200000000 1.0
C      1  0.5128730000000  0.4714630000000  0.6140590000000 1.0
C      1  0.5573350000000  0.4846560000000  0.4094860000000 1.0
C      1  0.4329300000000  0.4486360000000  0.4489140000000 1.0
C      1  0.5100020000000  0.4710220000000  0.5834210000000 1.0
C      1  0.5599210000000  0.4732050000000  0.4925840000000 1.0
C      1  0.5054280000000  0.4924000000000  0.4335200000000 1.0
C      1  0.5670550000000  0.5515410000000  0.5250630000000 1.0
C      1  0.4143950000000  0.4752240000000  0.5057810000000 1.0
C      1  0.4952320000000  0.5421900000000  0.5988000000000 1.0
C      1  0.5972250000000  0.4611580000000  0.4626650000000 1.0
C      1  0.4907340000000  0.5555590000000  0.4354490000000 1.0
C      1  0.4904110000000  0.5056570000000  0.3952050000000 1.0
C      1  0.5694960000000  0.4807540000000  0.4607880000000 1.0
C      1  0.4909220000000  0.5815310000000  0.5070130000000 1.0
C      1  0.5722460000000  0.5654100000000  0.4628330000000 1.0
C      1  0.4625260000000  0.4939590000000  0.5756320000000 1.0
C      1  0.5438100000000  0.5640080000000  0.4439350000000 1.0
C      1  0.5852490000000  0.5165930000000  0.4623630000000 1.0
C      1  0.5340410000000  0.5078330000000  0.5789340000000 1.0
C      1  0.5500520000000  0.4309450000000  0.4342440000000 1.0
C      1  0.5193260000000  0.4136780000000  0.5288710000000 1.0
C      1  0.5338650000000  0.5049450000000  0.4233990000000 1.0
C      1  0.4436640000000  0.5499050000000  0.4821790000000 1.0
C      1  0.4707090000000  0.4158520000000  0.5393600000000 1.0
C      1  0.4438300000000  0.5141050000000  0.4352900000000 1.0
C      1  0.4077330000000  0.5023250000000  0.4884070000000 1.0
C      1  0.5764660000000  0.4464520000000  0.4796650000000 1.0
C      1  0.5459220000000  0.4833070000000  0.5714120000000 1.0
C      1  0.4309360000000  0.5110610000000  0.5116760000000 1.0
C      1  0.5145330000000  0.5627270000000  0.5941320000000 1.0
C      1  0.4239670000000  0.4322250000000  0.4751990000000 1.0
C      1  0.4998960000000  0.4604330000000  0.5111290000000 1.0
C      1  0.5398770000000  0.4951500000000  0.4554060000000 1.0
C      1  0.5285430000000  0.4570360000000  0.5585720000000 1.0
C      1  0.4571360000000  0.5700570000000  0.5304310000000 1.0
C      1  0.5154080000000  0.5703940000000  0.5278140000000 1.0
C      1  0.5619520000000  0.5207530000000  0.4118420000000 1.0
C      1  0.4676590000000  0.4614340000000  0.5346520000000 1.0
C      1  0.5103730000000  0.5213390000000  0.4050840000000 1.0
C      1  0.5588980000000  0.5238690000000  0.5389870000000 1.0
C      1  0.4754470000000  0.4240440000000  0.4627160000000 1.0
END
