TITL C-2848505-4874-497 -0.00143444729300938 125000 -458.448025618838 0 0 85 (C1) n - 1
REM
REM in /home/bkarasulu/work/CARBON/AIRSS/Generating-Clusters/AIREBO/with-SteepDescent/Only-C1/SD-CG-opt/Try1-1.4A-POS3A/HFTN-CG
REM
REM
REM
REM
REM
REM ./C.cell (11c1c37f851c82e70ff6c80c92926a4b)
REM
REM compiler GCC version 9.2.1 20190827 (Red Hat 9.2.1-1)
REM options -cpp -mtune=generic -march=x86-64 -g -O0 -fpre-include=/usr/include/finclude/math-vector-fortran.h
REM seed -200700861 1530824810 -738240838 -844763029 671208208 1481058172 -432634153 741597691 1744613929 1491047147 -985551171 -72872260 -1866555126 1160744726 -1614447225 -73419107 1369935655 -144112811 -1090395096 2120954143 -1819674117 624633598 2110666427 1672422986 2049669243 540595053 -597684365 127035833 597116256 409923362 -959444301 1491188720 -1091893735
REM
CELL 1.54180   50.00000   50.00000   50.00000   90.00000   90.00000   90.00000
LATT -1
SFAC C  
C      1  0.4687530000000  0.4570220000000  0.4454170000000 1.0
C      1  0.4847630000000  0.4444420000000  0.4212200000000 1.0
C      1  0.4964910000000  0.5011230000000  0.4567060000000 1.0
C      1  0.4960370000000  0.5331610000000  0.4329540000000 1.0
C      1  0.4879520000000  0.5453120000000  0.5759160000000 1.0
C      1  0.4880800000000  0.5795580000000  0.5145390000000 1.0
C      1  0.5227880000000  0.5129660000000  0.4386620000000 1.0
C      1  0.4432650000000  0.5467040000000  0.5175110000000 1.0
C      1  0.4686160000000  0.4883440000000  0.4432190000000 1.0
C      1  0.5290200000000  0.4826880000000  0.4328160000000 1.0
C      1  0.5425820000000  0.4658290000000  0.4563730000000 1.0
C      1  0.5462330000000  0.4902320000000  0.5560200000000 1.0
C      1  0.4328400000000  0.4748330000000  0.4752850000000 1.0
C      1  0.4844860000000  0.4969590000000  0.4875600000000 1.0
C      1  0.5706690000000  0.4675310000000  0.5167720000000 1.0
C      1  0.5173140000000  0.5181330000000  0.5115460000000 1.0
C      1  0.4582450000000  0.5588400000000  0.4566630000000 1.0
C      1  0.4776020000000  0.4170750000000  0.4815340000000 1.0
C      1  0.4908440000000  0.4993670000000  0.5352570000000 1.0
C      1  0.4444180000000  0.4506620000000  0.4664430000000 1.0
C      1  0.5742920000000  0.4709460000000  0.4604940000000 1.0
C      1  0.5084470000000  0.4649970000000  0.4267800000000 1.0
C      1  0.5256100000000  0.4265320000000  0.4821010000000 1.0
C      1  0.5074360000000  0.5688250000000  0.4688220000000 1.0
C      1  0.4875180000000  0.5309600000000  0.4882730000000 1.0
C      1  0.5269820000000  0.5673640000000  0.5380280000000 1.0
C      1  0.4477940000000  0.4985830000000  0.5576560000000 1.0
C      1  0.5237880000000  0.4771470000000  0.4812540000000 1.0
C      1  0.5752710000000  0.5110340000000  0.4917370000000 1.0
C      1  0.5832230000000  0.4828830000000  0.4905670000000 1.0
C      1  0.5202380000000  0.5088770000000  0.5799930000000 1.0
C      1  0.5758430000000  0.4809300000000  0.5442240000000 1.0
C      1  0.5328580000000  0.4356190000000  0.4544720000000 1.0
C      1  0.4997050000000  0.5389240000000  0.5319190000000 1.0
C      1  0.4803330000000  0.5794040000000  0.4618880000000 1.0
C      1  0.5209480000000  0.5311800000000  0.5573310000000 1.0
C      1  0.4530030000000  0.4330790000000  0.4887730000000 1.0
C      1  0.4855110000000  0.4473620000000  0.4708600000000 1.0
C      1  0.4701970000000  0.5301980000000  0.4523200000000 1.0
C      1  0.4985950000000  0.4436080000000  0.5222250000000 1.0
C      1  0.5527210000000  0.5188440000000  0.4700980000000 1.0
C      1  0.4669310000000  0.4999740000000  0.4141200000000 1.0
C      1  0.5388920000000  0.4501640000000  0.4929380000000 1.0
C      1  0.4519840000000  0.5258650000000  0.5430210000000 1.0
C      1  0.4756410000000  0.5618610000000  0.4920540000000 1.0
C      1  0.4148230000000  0.5009430000000  0.5179850000000 1.0
C      1  0.4387440000000  0.4803260000000  0.5083210000000 1.0
C      1  0.5747490000000  0.5269450000000  0.5138850000000 1.0
C      1  0.4441800000000  0.5254950000000  0.4731090000000 1.0
C      1  0.4425180000000  0.4966010000000  0.4591720000000 1.0
C      1  0.5692450000000  0.4518460000000  0.4878440000000 1.0
C      1  0.4744730000000  0.5208710000000  0.5180100000000 1.0
C      1  0.5161270000000  0.5793610000000  0.5147940000000 1.0
C      1  0.4549620000000  0.5056990000000  0.4960400000000 1.0
C      1  0.5636980000000  0.5153350000000  0.5411560000000 1.0
C      1  0.4787850000000  0.4998330000000  0.5614200000000 1.0
C      1  0.5479910000000  0.5516630000000  0.4777260000000 1.0
C      1  0.4427840000000  0.5549360000000  0.4866930000000 1.0
C      1  0.5070920000000  0.5388350000000  0.4646090000000 1.0
C      1  0.4717680000000  0.5583420000000  0.5316210000000 1.0
C      1  0.5021440000000  0.4223610000000  0.4972400000000 1.0
C      1  0.5207330000000  0.5109260000000  0.4784800000000 1.0
C      1  0.4937980000000  0.4597240000000  0.5701320000000 1.0
C      1  0.5395000000000  0.5370110000000  0.5296050000000 1.0
C      1  0.4769190000000  0.5229940000000  0.4102000000000 1.0
C      1  0.5421610000000  0.5400790000000  0.4457260000000 1.0
C      1  0.5217370000000  0.4479930000000  0.5654280000000 1.0
C      1  0.4956850000000  0.4664020000000  0.4971420000000 1.0
C      1  0.4916670000000  0.5169130000000  0.5803100000000 1.0
C      1  0.4615510000000  0.4215470000000  0.5527040000000 1.0
C      1  0.4736790000000  0.4489930000000  0.5449340000000 1.0
C      1  0.5142230000000  0.4338970000000  0.4324300000000 1.0
C      1  0.5272740000000  0.5751130000000  0.4887530000000 1.0
C      1  0.5653370000000  0.4974840000000  0.4477760000000 1.0
C      1  0.4491640000000  0.4701880000000  0.5390660000000 1.0
C      1  0.5602740000000  0.5518390000000  0.5071380000000 1.0
C      1  0.5133160000000  0.4858000000000  0.5188190000000 1.0
C      1  0.4181120000000  0.5254930000000  0.5220510000000 1.0
C      1  0.4630320000000  0.4582020000000  0.5020350000000 1.0
C      1  0.4267530000000  0.4727460000000  0.5631370000000 1.0
C      1  0.5243860000000  0.4785810000000  0.5767020000000 1.0
C      1  0.5120890000000  0.5626000000000  0.5654710000000 1.0
C      1  0.5254860000000  0.4469490000000  0.5374260000000 1.0
C      1  0.5402360000000  0.4724340000000  0.5284810000000 1.0
C      1  0.4640460000000  0.5507620000000  0.5620670000000 1.0
END
