TITL C-2847959-7740-328 1.91844554772629e-07 125000 -76.8534757289497 0 0 15 (C1) n - 1
REM
REM in /home/bkarasulu/work/CARBON/AIRSS/Generating-Clusters/AIREBO/with-SteepDescent/Only-C1/SD-CG-opt/Try1-1.4A-POS3A/HFTN-CG
REM
REM
REM
REM
REM
REM ./C.cell (11c1c37f851c82e70ff6c80c92926a4b)
REM
REM compiler GCC version 9.2.1 20190827 (Red Hat 9.2.1-1)
REM options -cpp -mtune=generic -march=x86-64 -g -O0 -fpre-include=/usr/include/finclude/math-vector-fortran.h
REM seed -1200477913 1738500560 47502783 1226209722 -1373467498 -1256863459 1793721509 -1872381859 2004753948 210088740 1278577852 -994172817 721341807 -1566379687 -1722532944 947103826 -367381042 1541489110 1079074709 -2121296423 73584376 -936995311 -37749420 105729281 1728822299 -1845692481 2065246942 -2145882997 -73244118 -23485498 -21145305 -1541761187 -2108706777
REM
CELL 1.54180   50.00000   50.00000   50.00000   90.00000   90.00000   90.00000
LATT -1
SFAC C  
C      1  0.4781270000000  0.4759520000000  0.5131780000000 1.0
C      1  0.4800700000000  0.5352490000000  0.5341410000000 1.0
C      1  0.4996840000000  0.5206130000000  0.5182190000000 1.0
C      1  0.5194030000000  0.5588260000000  0.5365880000000 1.0
C      1  0.4958500000000  0.4489630000000  0.4484830000000 1.0
C      1  0.5481470000000  0.5290410000000  0.5087500000000 1.0
C      1  0.4764570000000  0.4553900000000  0.4936570000000 1.0
C      1  0.4965760000000  0.5098360000000  0.4569860000000 1.0
C      1  0.5340520000000  0.4882470000000  0.4764990000000 1.0
C      1  0.5246610000000  0.5354640000000  0.5198930000000 1.0
C      1  0.4945450000000  0.4974290000000  0.5046330000000 1.0
C      1  0.5058050000000  0.4909320000000  0.4760420000000 1.0
C      1  0.4623330000000  0.4327490000000  0.4961670000000 1.0
C      1  0.4923130000000  0.5584070000000  0.5451150000000 1.0
C      1  0.4919750000000  0.4629010000000  0.4716500000000 1.0
END
