TITL C-2848501-3133-545 0.0545322827477113 125000 -89.88089633093 0 0 17 (C1) n - 1
REM
REM in /home/bkarasulu/work/CARBON/AIRSS/Generating-Clusters/AIREBO/with-SteepDescent/Only-C1/SD-CG-opt/Try1-1.4A-POS3A/HFTN-CG
REM
REM
REM
REM
REM
REM ./C.cell (11c1c37f851c82e70ff6c80c92926a4b)
REM
REM compiler GCC version 9.2.1 20190827 (Red Hat 9.2.1-1)
REM options -cpp -mtune=generic -march=x86-64 -g -O0 -fpre-include=/usr/include/finclude/math-vector-fortran.h
REM seed 1291661059 628724631 1560726279 -1880456315 1146146427 -421157787 -558918640 -690455543 -602745675 1505650768 1264284276 1588033844 59620227 1557373625 -500943515 2025326643 599134988 1166679060 294929276 -347653172 699941765 -102676008 -964565170 -1670507791 -660941508 -1497145236 -716205259 1664045450 -998037425 1373484023 -2069305174 1168519711 1024428893
REM
CELL 1.54180   50.00000   50.00000   50.00000   90.00000   90.00000   90.00000
LATT -1
SFAC C  
C      1  0.4579520000000  0.4912620000000  0.4686920000000 1.0
C      1  0.5208120000000  0.4536220000000  0.5047140000000 1.0
C      1  0.4851100000000  0.5317410000000  0.4553550000000 1.0
C      1  0.5244410000000  0.5086200000000  0.4559690000000 1.0
C      1  0.5112570000000  0.5305960000000  0.4443030000000 1.0
C      1  0.4903710000000  0.4916420000000  0.5472090000000 1.0
C      1  0.5213720000000  0.5474300000000  0.4260840000000 1.0
C      1  0.5139810000000  0.4733200000000  0.4888300000000 1.0
C      1  0.4838940000000  0.5063930000000  0.5259950000000 1.0
C      1  0.4978820000000  0.4790770000000  0.5694650000000 1.0
C      1  0.5152500000000  0.4523170000000  0.6115220000000 1.0
C      1  0.4747920000000  0.5203560000000  0.5041100000000 1.0
C      1  0.4787970000000  0.5084120000000  0.4767930000000 1.0
C      1  0.5077170000000  0.4956120000000  0.4741340000000 1.0
C      1  0.5061310000000  0.4645050000000  0.5901830000000 1.0
C      1  0.5496850000000  0.5013680000000  0.4504020000000 1.0
C      1  0.4605560000000  0.5437260000000  0.5062410000000 1.0
END
