TITL C-2848494-1720-707 -0.000874189129904168 125000 -801.295118378615 0 0 152 (C1) n - 1
REM
REM in /home/bkarasulu/work/CARBON/AIRSS/Generating-Clusters/AIREBO/with-SteepDescent/Only-C1/SD-CG-opt/Try1-1.4A-POS3A/HFTN-CG
REM
REM
REM
REM
REM
REM ./C.cell (11c1c37f851c82e70ff6c80c92926a4b)
REM
REM compiler GCC version 9.2.1 20190827 (Red Hat 9.2.1-1)
REM options -cpp -mtune=generic -march=x86-64 -g -O0 -fpre-include=/usr/include/finclude/math-vector-fortran.h
REM seed 1974595252 -100262756 746204086 -765080907 1791415829 -1418274013 1645148447 1899339519 -841806759 -416973721 -211785503 -1116402538 -1076222447 -1603376130 -1343296022 1517200814 226892756 -1085358744 1183047803 -1496527258 -35822491 195295566 2103303049 -769407967 194084859 1446117171 -1216847738 1163636378 -185397813 368376053 683051863 91184133 368386444
REM
CELL 1.54180   50.00000   50.00000   50.00000   90.00000   90.00000   90.00000
LATT -1
SFAC C  
C      1  0.4227200000000  0.5267340000000  0.4626980000000 1.0
C      1  0.4648730000000  0.5193530000000  0.5386820000000 1.0
C      1  0.4204220000000  0.5579530000000  0.4727270000000 1.0
C      1  0.4511720000000  0.4846280000000  0.5760020000000 1.0
C      1  0.5574970000000  0.5009130000000  0.4230340000000 1.0
C      1  0.5290310000000  0.4078990000000  0.5038700000000 1.0
C      1  0.5220100000000  0.4793100000000  0.5993360000000 1.0
C      1  0.4375930000000  0.5038550000000  0.4124910000000 1.0
C      1  0.4596480000000  0.5261130000000  0.4372700000000 1.0
C      1  0.4569160000000  0.4781140000000  0.4761950000000 1.0
C      1  0.4983860000000  0.4224670000000  0.5397350000000 1.0
C      1  0.4903800000000  0.5129540000000  0.4853410000000 1.0
C      1  0.5222400000000  0.4954090000000  0.4410060000000 1.0
C      1  0.4461660000000  0.4561260000000  0.4273340000000 1.0
C      1  0.5318220000000  0.5430590000000  0.4666630000000 1.0
C      1  0.5377760000000  0.4951340000000  0.4041620000000 1.0
C      1  0.4835940000000  0.5038850000000  0.4465240000000 1.0
C      1  0.4847400000000  0.5896500000000  0.5496240000000 1.0
C      1  0.5570660000000  0.4318780000000  0.4691640000000 1.0
C      1  0.4709120000000  0.4137220000000  0.5121420000000 1.0
C      1  0.5571980000000  0.5316410000000  0.4376570000000 1.0
C      1  0.4712870000000  0.4700470000000  0.5977740000000 1.0
C      1  0.5368670000000  0.5025990000000  0.5706310000000 1.0
C      1  0.4907560000000  0.5993150000000  0.5194440000000 1.0
C      1  0.4336310000000  0.5199510000000  0.5823030000000 1.0
C      1  0.5399220000000  0.5537770000000  0.4979760000000 1.0
C      1  0.4743240000000  0.5087090000000  0.5695720000000 1.0
C      1  0.5202800000000  0.5247590000000  0.4239460000000 1.0
C      1  0.4420440000000  0.5693610000000  0.5710030000000 1.0
C      1  0.4835630000000  0.4010900000000  0.4831550000000 1.0
C      1  0.5044730000000  0.5409460000000  0.4851450000000 1.0
C      1  0.5002070000000  0.5300620000000  0.4459490000000 1.0
C      1  0.5270050000000  0.5092230000000  0.5976230000000 1.0
C      1  0.5603690000000  0.4795750000000  0.5379280000000 1.0
C      1  0.5860610000000  0.4715010000000  0.6029990000000 1.0
C      1  0.5027200000000  0.5279920000000  0.5653080000000 1.0
C      1  0.4879130000000  0.4514990000000  0.5376760000000 1.0
C      1  0.5411310000000  0.5140000000000  0.4595880000000 1.0
C      1  0.5115000000000  0.5552630000000  0.5132620000000 1.0
C      1  0.5272140000000  0.4842040000000  0.5439120000000 1.0
C      1  0.5572250000000  0.5321250000000  0.5117910000000 1.0
C      1  0.4436710000000  0.5791780000000  0.5129870000000 1.0
C      1  0.5336990000000  0.5120250000000  0.5254600000000 1.0
C      1  0.5027300000000  0.5149120000000  0.5153900000000 1.0
C      1  0.5620720000000  0.4974780000000  0.4762620000000 1.0
C      1  0.5615210000000  0.5236460000000  0.5603550000000 1.0
C      1  0.4910080000000  0.5821500000000  0.3970070000000 1.0
C      1  0.4680140000000  0.4611600000000  0.4034010000000 1.0
C      1  0.4813770000000  0.5255460000000  0.4111020000000 1.0
C      1  0.5234160000000  0.3899220000000  0.4585250000000 1.0
C      1  0.4742290000000  0.4654520000000  0.4425990000000 1.0
C      1  0.5282670000000  0.4477940000000  0.5621480000000 1.0
C      1  0.5189740000000  0.4188690000000  0.5732610000000 1.0
C      1  0.5413670000000  0.4647930000000  0.5828880000000 1.0
C      1  0.4157830000000  0.4523450000000  0.5338270000000 1.0
C      1  0.4158190000000  0.5321020000000  0.5101870000000 1.0
C      1  0.5032640000000  0.4045220000000  0.5172310000000 1.0
C      1  0.4516320000000  0.5804930000000  0.5462260000000 1.0
C      1  0.5187940000000  0.5404720000000  0.5993630000000 1.0
C      1  0.4637350000000  0.4275810000000  0.4753150000000 1.0
C      1  0.4752730000000  0.5636920000000  0.5316870000000 1.0
C      1  0.4157500000000  0.4858050000000  0.5276200000000 1.0
C      1  0.5877710000000  0.4971800000000  0.4591660000000 1.0
C      1  0.5086130000000  0.4844540000000  0.5063670000000 1.0
C      1  0.5499050000000  0.5429170000000  0.5858540000000 1.0
C      1  0.4952250000000  0.3906910000000  0.4588990000000 1.0
C      1  0.6040460000000  0.4876940000000  0.5083380000000 1.0
C      1  0.4635640000000  0.5510240000000  0.4571160000000 1.0
C      1  0.4466000000000  0.4379440000000  0.5339610000000 1.0
C      1  0.5367350000000  0.4238500000000  0.5272870000000 1.0
C      1  0.5254430000000  0.4789820000000  0.4706050000000 1.0
C      1  0.4021440000000  0.5149790000000  0.5264010000000 1.0
C      1  0.5494950000000  0.6031260000000  0.5011010000000 1.0
C      1  0.5685770000000  0.4756150000000  0.5830000000000 1.0
C      1  0.4176860000000  0.4712800000000  0.4758580000000 1.0
C      1  0.5668190000000  0.3848610000000  0.4816110000000 1.0
C      1  0.4613270000000  0.4093750000000  0.5450490000000 1.0
C      1  0.4705840000000  0.5957660000000  0.5007860000000 1.0
C      1  0.5785310000000  0.5689680000000  0.5254830000000 1.0
C      1  0.6109440000000  0.5125510000000  0.4993120000000 1.0
C      1  0.5316480000000  0.5358760000000  0.5496180000000 1.0
C      1  0.5042640000000  0.5008900000000  0.4057860000000 1.0
C      1  0.5893970000000  0.5362160000000  0.5043510000000 1.0
C      1  0.5552070000000  0.4566230000000  0.4465180000000 1.0
C      1  0.4810820000000  0.5944280000000  0.4749670000000 1.0
C      1  0.4749780000000  0.4807320000000  0.5048890000000 1.0
C      1  0.4697090000000  0.4476880000000  0.5109930000000 1.0
C      1  0.5199270000000  0.5877730000000  0.5079430000000 1.0
C      1  0.5303100000000  0.5951370000000  0.5394780000000 1.0
C      1  0.4318240000000  0.5141930000000  0.4906770000000 1.0
C      1  0.5453200000000  0.4032410000000  0.4778610000000 1.0
C      1  0.4928270000000  0.4459610000000  0.4065540000000 1.0
C      1  0.4432390000000  0.4078080000000  0.4939120000000 1.0
C      1  0.4251060000000  0.4314790000000  0.5083910000000 1.0
C      1  0.4879930000000  0.4094980000000  0.5661410000000 1.0
C      1  0.4912970000000  0.4300250000000  0.4316680000000 1.0
C      1  0.5060110000000  0.4439440000000  0.4525050000000 1.0
C      1  0.4716510000000  0.4879630000000  0.5357100000000 1.0
C      1  0.4596480000000  0.4628670000000  0.5527730000000 1.0
C      1  0.5376470000000  0.4519590000000  0.4840140000000 1.0
C      1  0.5493460000000  0.4621220000000  0.5129180000000 1.0
C      1  0.4224880000000  0.4932540000000  0.5603110000000 1.0
C      1  0.4340440000000  0.5779730000000  0.4582260000000 1.0
C      1  0.5241490000000  0.5605410000000  0.5723580000000 1.0
C      1  0.4635040000000  0.5840310000000  0.4566240000000 1.0
C      1  0.5298840000000  0.5608430000000  0.4379180000000 1.0
C      1  0.4210400000000  0.4521160000000  0.4481190000000 1.0
C      1  0.5885310000000  0.5471070000000  0.4719750000000 1.0
C      1  0.5208330000000  0.4538350000000  0.5294850000000 1.0
C      1  0.4621010000000  0.5117710000000  0.4995950000000 1.0
C      1  0.4950830000000  0.4871030000000  0.4689120000000 1.0
C      1  0.5067980000000  0.4543800000000  0.4981140000000 1.0
C      1  0.5732650000000  0.4785410000000  0.5002430000000 1.0
C      1  0.5943010000000  0.4554640000000  0.4907130000000 1.0
C      1  0.4687380000000  0.5170300000000  0.6020680000000 1.0
C      1  0.4658000000000  0.4902400000000  0.4208790000000 1.0
C      1  0.4440920000000  0.5014640000000  0.4548260000000 1.0
C      1  0.4571570000000  0.5603190000000  0.4881070000000 1.0
C      1  0.4529210000000  0.5446260000000  0.5833350000000 1.0
C      1  0.4881970000000  0.5513730000000  0.4039630000000 1.0
C      1  0.5024420000000  0.4728020000000  0.4250920000000 1.0
C      1  0.5869070000000  0.4344090000000  0.4786510000000 1.0
C      1  0.4322070000000  0.5322030000000  0.4181390000000 1.0
C      1  0.5715670000000  0.4807710000000  0.4393030000000 1.0
C      1  0.4322950000000  0.4416650000000  0.4774140000000 1.0
C      1  0.5137680000000  0.5851720000000  0.5598500000000 1.0
C      1  0.5292180000000  0.4562640000000  0.4379900000000 1.0
C      1  0.5787350000000  0.5385240000000  0.5369550000000 1.0
C      1  0.5372870000000  0.4961100000000  0.4958790000000 1.0
C      1  0.4940630000000  0.5370850000000  0.5361020000000 1.0
C      1  0.4197140000000  0.5588040000000  0.5012660000000 1.0
C      1  0.5583580000000  0.5767930000000  0.5094820000000 1.0
C      1  0.4107160000000  0.5380350000000  0.4350300000000 1.0
C      1  0.5141190000000  0.5852640000000  0.4745050000000 1.0
C      1  0.5018510000000  0.5704510000000  0.4270750000000 1.0
C      1  0.4049660000000  0.4658780000000  0.5598200000000 1.0
C      1  0.5681920000000  0.5558190000000  0.4545280000000 1.0
C      1  0.4291100000000  0.4821670000000  0.4345720000000 1.0
C      1  0.5444340000000  0.5797680000000  0.4595800000000 1.0
C      1  0.4757550000000  0.4111600000000  0.4457360000000 1.0
C      1  0.5737430000000  0.4919070000000  0.5599660000000 1.0
C      1  0.4963850000000  0.4844090000000  0.5584480000000 1.0
C      1  0.6028300000000  0.5191420000000  0.4708340000000 1.0
C      1  0.4965060000000  0.4739060000000  0.5887180000000 1.0
C      1  0.4960320000000  0.5609360000000  0.4590890000000 1.0
C      1  0.4352150000000  0.4823440000000  0.5020420000000 1.0
C      1  0.5422150000000  0.5450240000000  0.4115490000000 1.0
C      1  0.5396620000000  0.4108210000000  0.5523850000000 1.0
C      1  0.4341150000000  0.4973290000000  0.6025440000000 1.0
C      1  0.4623260000000  0.5409790000000  0.5125590000000 1.0
C      1  0.4826270000000  0.4558940000000  0.4741490000000 1.0
C      1  0.4862240000000  0.5417440000000  0.5896320000000 1.0
END
