TITL C-2848508-1660-619 -0.00548964131475516 125000 -989.17553447518 0 0 180 (C1) n - 1
REM
REM in /home/bkarasulu/work/CARBON/AIRSS/Generating-Clusters/AIREBO/with-SteepDescent/Only-C1/SD-CG-opt/Try1-1.4A-POS3A/HFTN-CG
REM
REM
REM
REM
REM
REM ./C.cell (11c1c37f851c82e70ff6c80c92926a4b)
REM
REM compiler GCC version 9.2.1 20190827 (Red Hat 9.2.1-1)
REM options -cpp -mtune=generic -march=x86-64 -g -O0 -fpre-include=/usr/include/finclude/math-vector-fortran.h
REM seed -802609924 42346340 -920863700 777854433 140449831 1066726486 1919356446 1981626556 1970242627 -1494757321 653535039 -1954793360 -2121792093 -900152230 -990893053 -1643312327 -1703986210 917306009 -809071321 -741816924 1640488937 377272107 505912340 -1973642259 -935444787 -645268945 1494932649 2001133120 1855088362 67536924 -1952475880 1316136445 279629359
REM
CELL 1.54180   50.00000   50.00000   50.00000   90.00000   90.00000   90.00000
LATT -1
SFAC C  
C      1  0.4328810000000  0.4741280000000  0.4492460000000 1.0
C      1  0.5253350000000  0.5936320000000  0.4685830000000 1.0
C      1  0.4860420000000  0.5315320000000  0.4748800000000 1.0
C      1  0.5563640000000  0.5033910000000  0.4946630000000 1.0
C      1  0.5157710000000  0.4358010000000  0.4983840000000 1.0
C      1  0.4181520000000  0.5597560000000  0.4383470000000 1.0
C      1  0.4855600000000  0.4387150000000  0.4547300000000 1.0
C      1  0.4526190000000  0.5899330000000  0.4706660000000 1.0
C      1  0.5111630000000  0.4831090000000  0.3893080000000 1.0
C      1  0.5045560000000  0.4555750000000  0.4027760000000 1.0
C      1  0.5397700000000  0.4763760000000  0.4632590000000 1.0
C      1  0.4319190000000  0.4277980000000  0.5186400000000 1.0
C      1  0.4900510000000  0.3840240000000  0.5191080000000 1.0
C      1  0.4015590000000  0.4889660000000  0.4795270000000 1.0
C      1  0.5709770000000  0.5511990000000  0.5029700000000 1.0
C      1  0.4672660000000  0.5666910000000  0.4907130000000 1.0
C      1  0.5291440000000  0.4163380000000  0.4466080000000 1.0
C      1  0.4599140000000  0.4683640000000  0.4337520000000 1.0
C      1  0.4124790000000  0.4915220000000  0.4329400000000 1.0
C      1  0.4740770000000  0.4110000000000  0.4444910000000 1.0
C      1  0.5542090000000  0.4699690000000  0.5840640000000 1.0
C      1  0.5252940000000  0.4997380000000  0.6151220000000 1.0
C      1  0.5198880000000  0.4964900000000  0.4184460000000 1.0
C      1  0.4716830000000  0.5800830000000  0.5279940000000 1.0
C      1  0.4558280000000  0.4423150000000  0.4144510000000 1.0
C      1  0.5575970000000  0.4574160000000  0.4783030000000 1.0
C      1  0.5905970000000  0.4721440000000  0.4611900000000 1.0
C      1  0.5441410000000  0.5316200000000  0.4818430000000 1.0
C      1  0.5615630000000  0.4840090000000  0.3880860000000 1.0
C      1  0.4722700000000  0.4039180000000  0.5596750000000 1.0
C      1  0.5274550000000  0.4494460000000  0.5886730000000 1.0
C      1  0.4903750000000  0.5644230000000  0.5478310000000 1.0
C      1  0.4115300000000  0.5316710000000  0.4526230000000 1.0
C      1  0.5567430000000  0.4533350000000  0.4322720000000 1.0
C      1  0.5117710000000  0.4642250000000  0.4708160000000 1.0
C      1  0.4139570000000  0.5768280000000  0.4857720000000 1.0
C      1  0.4306150000000  0.5083650000000  0.5579310000000 1.0
C      1  0.5771670000000  0.5145660000000  0.5788470000000 1.0
C      1  0.5124950000000  0.4317480000000  0.4670970000000 1.0
C      1  0.5085350000000  0.5195070000000  0.5254390000000 1.0
C      1  0.4697310000000  0.5372880000000  0.5460280000000 1.0
C      1  0.5236210000000  0.3932040000000  0.4897650000000 1.0
C      1  0.5260840000000  0.4680730000000  0.4339570000000 1.0
C      1  0.5173750000000  0.6089260000000  0.5488170000000 1.0
C      1  0.4871190000000  0.4309050000000  0.5740800000000 1.0
C      1  0.3724670000000  0.5318790000000  0.5113400000000 1.0
C      1  0.4118990000000  0.5684990000000  0.5140750000000 1.0
C      1  0.5962790000000  0.5387880000000  0.4576560000000 1.0
C      1  0.5532800000000  0.5494260000000  0.4276640000000 1.0
C      1  0.5910430000000  0.4854730000000  0.4342990000000 1.0
C      1  0.4927880000000  0.4597060000000  0.4321640000000 1.0
C      1  0.4412410000000  0.4884120000000  0.4778140000000 1.0
C      1  0.4746340000000  0.4673950000000  0.6052140000000 1.0
C      1  0.4528440000000  0.5425570000000  0.3986690000000 1.0
C      1  0.5818060000000  0.5651330000000  0.5377550000000 1.0
C      1  0.6233810000000  0.4947910000000  0.5263450000000 1.0
C      1  0.4456670000000  0.4142690000000  0.5471260000000 1.0
C      1  0.5020940000000  0.4454680000000  0.5472350000000 1.0
C      1  0.5938100000000  0.4259420000000  0.4999980000000 1.0
C      1  0.5358130000000  0.5670580000000  0.4115850000000 1.0
C      1  0.4580630000000  0.4431240000000  0.5340610000000 1.0
C      1  0.4641650000000  0.4517580000000  0.5644180000000 1.0
C      1  0.5229850000000  0.4941210000000  0.5901340000000 1.0
C      1  0.5430420000000  0.4099670000000  0.5550960000000 1.0
C      1  0.5491140000000  0.4301380000000  0.5740970000000 1.0
C      1  0.5081690000000  0.5007980000000  0.4970290000000 1.0
C      1  0.4926590000000  0.5098150000000  0.4273580000000 1.0
C      1  0.5568980000000  0.5600510000000  0.4568290000000 1.0
C      1  0.4314370000000  0.5350830000000  0.4182060000000 1.0
C      1  0.5485180000000  0.5404150000000  0.5262200000000 1.0
C      1  0.4852420000000  0.4286540000000  0.5231840000000 1.0
C      1  0.4608110000000  0.4721150000000  0.5211520000000 1.0
C      1  0.4904740000000  0.5519900000000  0.5953900000000 1.0
C      1  0.4587010000000  0.5179320000000  0.5688820000000 1.0
C      1  0.5076920000000  0.5848580000000  0.4132230000000 1.0
C      1  0.4498080000000  0.5566170000000  0.5174630000000 1.0
C      1  0.4788820000000  0.6046590000000  0.4863370000000 1.0
C      1  0.5977430000000  0.5412970000000  0.5185160000000 1.0
C      1  0.4833330000000  0.5710560000000  0.4332780000000 1.0
C      1  0.4229220000000  0.5819460000000  0.4551590000000 1.0
C      1  0.6069970000000  0.4042780000000  0.4579340000000 1.0
C      1  0.5127200000000  0.5125860000000  0.4669070000000 1.0
C      1  0.4879100000000  0.5053790000000  0.3962020000000 1.0
C      1  0.5449390000000  0.5086480000000  0.4567790000000 1.0
C      1  0.5788760000000  0.5097050000000  0.4549430000000 1.0
C      1  0.5082280000000  0.4606650000000  0.5170420000000 1.0
C      1  0.5215520000000  0.5406940000000  0.5055050000000 1.0
C      1  0.5463340000000  0.4379590000000  0.5038150000000 1.0
C      1  0.4336170000000  0.4882740000000  0.5303230000000 1.0
C      1  0.4121630000000  0.5350400000000  0.5544250000000 1.0
C      1  0.4958140000000  0.5394860000000  0.4312790000000 1.0
C      1  0.5004920000000  0.6186230000000  0.5333010000000 1.0
C      1  0.5104430000000  0.5438710000000  0.4578020000000 1.0
C      1  0.4167590000000  0.4713620000000  0.5530230000000 1.0
C      1  0.4650550000000  0.5663300000000  0.4049950000000 1.0
C      1  0.4467440000000  0.4247880000000  0.4820840000000 1.0
C      1  0.5699200000000  0.4583090000000  0.5395900000000 1.0
C      1  0.5382280000000  0.4296550000000  0.4246480000000 1.0
C      1  0.4450480000000  0.5320150000000  0.4479460000000 1.0
C      1  0.5219760000000  0.4345390000000  0.4020790000000 1.0
C      1  0.4900370000000  0.4839890000000  0.5338650000000 1.0
C      1  0.5225640000000  0.4865700000000  0.5434540000000 1.0
C      1  0.4008910000000  0.5055670000000  0.4559410000000 1.0
C      1  0.5077330000000  0.5538690000000  0.4066830000000 1.0
C      1  0.4631930000000  0.4719140000000  0.4910390000000 1.0
C      1  0.4273820000000  0.5828240000000  0.5588780000000 1.0
C      1  0.5432790000000  0.5168040000000  0.4248710000000 1.0
C      1  0.5785370000000  0.5547020000000  0.4734050000000 1.0
C      1  0.4973910000000  0.5558990000000  0.4935810000000 1.0
C      1  0.5806540000000  0.5302060000000  0.4278650000000 1.0
C      1  0.4184230000000  0.4371030000000  0.4887090000000 1.0
C      1  0.4952440000000  0.4495700000000  0.5995620000000 1.0
C      1  0.5926160000000  0.4227560000000  0.4720600000000 1.0
C      1  0.4375880000000  0.5543230000000  0.4796530000000 1.0
C      1  0.3987170000000  0.4319670000000  0.5147370000000 1.0
C      1  0.4957270000000  0.5733030000000  0.5792690000000 1.0
C      1  0.5808090000000  0.4895780000000  0.5478310000000 1.0
C      1  0.4253420000000  0.4386060000000  0.5565550000000 1.0
C      1  0.4770060000000  0.5142160000000  0.5252670000000 1.0
C      1  0.4680620000000  0.4966090000000  0.5902770000000 1.0
C      1  0.4891740000000  0.5285700000000  0.5795800000000 1.0
C      1  0.5386610000000  0.4822580000000  0.3741960000000 1.0
C      1  0.4780720000000  0.4789660000000  0.5659380000000 1.0
C      1  0.5746290000000  0.4705230000000  0.4141580000000 1.0
C      1  0.5055660000000  0.5857870000000  0.4947000000000 1.0
C      1  0.5694600000000  0.5067310000000  0.4082210000000 1.0
C      1  0.5390610000000  0.5888760000000  0.4996870000000 1.0
C      1  0.5807560000000  0.4307850000000  0.5228220000000 1.0
C      1  0.5096700000000  0.4705980000000  0.5688590000000 1.0
C      1  0.5070960000000  0.5298800000000  0.5578760000000 1.0
C      1  0.5767930000000  0.5141610000000  0.5168210000000 1.0
C      1  0.4704950000000  0.4073610000000  0.4744280000000 1.0
C      1  0.4193430000000  0.4864120000000  0.5810480000000 1.0
C      1  0.5226230000000  0.5546050000000  0.5429540000000 1.0
C      1  0.5633530000000  0.4672230000000  0.5089130000000 1.0
C      1  0.5770250000000  0.4440030000000  0.4582530000000 1.0
C      1  0.5206580000000  0.3923420000000  0.5555240000000 1.0
C      1  0.5703460000000  0.4962290000000  0.5950100000000 1.0
C      1  0.5587260000000  0.5782460000000  0.5164560000000 1.0
C      1  0.6218840000000  0.4894990000000  0.5745390000000 1.0
C      1  0.3990210000000  0.4454980000000  0.5404650000000 1.0
C      1  0.5877080000000  0.4946110000000  0.4841020000000 1.0
C      1  0.4222530000000  0.4993940000000  0.5027100000000 1.0
C      1  0.4488850000000  0.6216110000000  0.5288040000000 1.0
C      1  0.4776900000000  0.4933160000000  0.4475440000000 1.0
C      1  0.5385540000000  0.4608070000000  0.5430940000000 1.0
C      1  0.4342410000000  0.6145860000000  0.5497590000000 1.0
C      1  0.4427570000000  0.4776880000000  0.5991470000000 1.0
C      1  0.4604210000000  0.5134360000000  0.4675640000000 1.0
C      1  0.6094270000000  0.4907940000000  0.5507020000000 1.0
C      1  0.4570130000000  0.5614670000000  0.4525980000000 1.0
C      1  0.5326420000000  0.4813730000000  0.5052690000000 1.0
C      1  0.4677600000000  0.5211020000000  0.3871080000000 1.0
C      1  0.4504560000000  0.5650460000000  0.5497640000000 1.0
C      1  0.4752250000000  0.6078790000000  0.5180700000000 1.0
C      1  0.5638310000000  0.5190750000000  0.5478750000000 1.0
C      1  0.5440280000000  0.3946840000000  0.5041430000000 1.0
C      1  0.5686380000000  0.5508550000000  0.5590240000000 1.0
C      1  0.5449290000000  0.4959980000000  0.5642290000000 1.0
C      1  0.4882230000000  0.4829270000000  0.4766100000000 1.0
C      1  0.5305040000000  0.5611540000000  0.4718550000000 1.0
C      1  0.4941740000000  0.3889640000000  0.5454240000000 1.0
C      1  0.4298910000000  0.5323230000000  0.5044510000000 1.0
C      1  0.4931290000000  0.5926490000000  0.4576800000000 1.0
C      1  0.4945100000000  0.4092980000000  0.4968070000000 1.0
C      1  0.4166530000000  0.5083510000000  0.4119300000000 1.0
C      1  0.5489800000000  0.5647440000000  0.5714030000000 1.0
C      1  0.3936550000000  0.4940750000000  0.5950650000000 1.0
C      1  0.4785640000000  0.4043970000000  0.5936000000000 1.0
C      1  0.6077410000000  0.5113400000000  0.5059100000000 1.0
C      1  0.4600380000000  0.5169010000000  0.5013910000000 1.0
C      1  0.4651930000000  0.4468240000000  0.4750390000000 1.0
C      1  0.5539360000000  0.4144840000000  0.5272100000000 1.0
C      1  0.5227120000000  0.5820980000000  0.5629670000000 1.0
C      1  0.4589630000000  0.4157600000000  0.4214110000000 1.0
C      1  0.5750940000000  0.4482490000000  0.5705920000000 1.0
C      1  0.4194740000000  0.6101710000000  0.5773010000000 1.0
C      1  0.3981690000000  0.5394740000000  0.5128940000000 1.0
C      1  0.4124220000000  0.4611820000000  0.4726570000000 1.0
C      1  0.4111470000000  0.5605320000000  0.5440450000000 1.0
END
