TITL C-2848508-1660-685 0.00140134882194549 125000 -740.046821054351 0 0 147 (C1) n - 1
REM
REM in /home/bkarasulu/work/CARBON/AIRSS/Generating-Clusters/AIREBO/with-SteepDescent/Only-C1/SD-CG-opt/Try1-1.4A-POS3A/HFTN-CG
REM
REM
REM
REM
REM
REM ./C.cell (11c1c37f851c82e70ff6c80c92926a4b)
REM
REM compiler GCC version 9.2.1 20190827 (Red Hat 9.2.1-1)
REM options -cpp -mtune=generic -march=x86-64 -g -O0 -fpre-include=/usr/include/finclude/math-vector-fortran.h
REM seed -1390450730 2085227914 614484723 -1207987328 1044691072 -422206811 722708191 -1427650938 762244554 -981893755 1593441521 -784635466 -700373105 1405136741 -2134440051 289316453 1202347966 -587900922 -1707816139 1094685526 294249528 1272720326 -1349915885 -536304409 -1073918578 -1060904901 -1928953154 -752339651 1152580870 -882915910 -331319388 429898155 -761642831
REM
CELL 1.54180   50.00000   50.00000   50.00000   90.00000   90.00000   90.00000
LATT -1
SFAC C  
C      1  0.5849420000000  0.5358460000000  0.5250240000000 1.0
C      1  0.5077110000000  0.5939250000000  0.4758810000000 1.0
C      1  0.5882410000000  0.5092450000000  0.4786510000000 1.0
C      1  0.4826050000000  0.5540780000000  0.4583370000000 1.0
C      1  0.4386940000000  0.5191720000000  0.4224830000000 1.0
C      1  0.4995810000000  0.4440740000000  0.5250500000000 1.0
C      1  0.4316760000000  0.5998320000000  0.4904210000000 1.0
C      1  0.4408010000000  0.4626080000000  0.4626590000000 1.0
C      1  0.4203140000000  0.4838360000000  0.4751040000000 1.0
C      1  0.5249680000000  0.5271170000000  0.5732170000000 1.0
C      1  0.4774270000000  0.4915350000000  0.4387210000000 1.0
C      1  0.5219840000000  0.4488740000000  0.5920380000000 1.0
C      1  0.5410810000000  0.5388300000000  0.4881140000000 1.0
C      1  0.5227040000000  0.5265720000000  0.4269130000000 1.0
C      1  0.5010910000000  0.3914790000000  0.4963050000000 1.0
C      1  0.4543410000000  0.4216660000000  0.5584540000000 1.0
C      1  0.5602220000000  0.5532220000000  0.5106260000000 1.0
C      1  0.5468530000000  0.4421120000000  0.4347520000000 1.0
C      1  0.4812430000000  0.4053440000000  0.4454470000000 1.0
C      1  0.4121100000000  0.4710000000000  0.5055060000000 1.0
C      1  0.4935580000000  0.5317410000000  0.4124980000000 1.0
C      1  0.4532710000000  0.5383890000000  0.4962680000000 1.0
C      1  0.4149610000000  0.5424630000000  0.4757760000000 1.0
C      1  0.5323730000000  0.4622730000000  0.5369730000000 1.0
C      1  0.4492580000000  0.4969450000000  0.5224240000000 1.0
C      1  0.5178340000000  0.6145240000000  0.4308680000000 1.0
C      1  0.3884370000000  0.5112210000000  0.4970050000000 1.0
C      1  0.4366730000000  0.5510040000000  0.4320550000000 1.0
C      1  0.5615440000000  0.5178140000000  0.4276820000000 1.0
C      1  0.5465860000000  0.5728050000000  0.4316470000000 1.0
C      1  0.5244910000000  0.4795700000000  0.4078980000000 1.0
C      1  0.4575380000000  0.5393690000000  0.5775920000000 1.0
C      1  0.4797910000000  0.5042480000000  0.4093860000000 1.0
C      1  0.5062140000000  0.5088180000000  0.5949110000000 1.0
C      1  0.4239550000000  0.4360980000000  0.4598830000000 1.0
C      1  0.4973020000000  0.5088820000000  0.5110730000000 1.0
C      1  0.5545400000000  0.4758730000000  0.4389880000000 1.0
C      1  0.5215430000000  0.5741240000000  0.4998180000000 1.0
C      1  0.5254780000000  0.5908790000000  0.4485390000000 1.0
C      1  0.5859800000000  0.5399720000000  0.4491570000000 1.0
C      1  0.4731210000000  0.5005230000000  0.5427140000000 1.0
C      1  0.5214130000000  0.4295750000000  0.5712050000000 1.0
C      1  0.5528830000000  0.4497340000000  0.4733940000000 1.0
C      1  0.4839880000000  0.4536160000000  0.5808390000000 1.0
C      1  0.5602520000000  0.4329570000000  0.5234420000000 1.0
C      1  0.5488430000000  0.5169030000000  0.5951690000000 1.0
C      1  0.4855890000000  0.5712400000000  0.4832580000000 1.0
C      1  0.4499100000000  0.4536330000000  0.5250270000000 1.0
C      1  0.5765020000000  0.4447040000000  0.4494520000000 1.0
C      1  0.4650260000000  0.5850290000000  0.5041300000000 1.0
C      1  0.5225230000000  0.4304130000000  0.4514330000000 1.0
C      1  0.4113540000000  0.4260380000000  0.4793790000000 1.0
C      1  0.5243640000000  0.4912170000000  0.5216590000000 1.0
C      1  0.5082570000000  0.4503180000000  0.4096680000000 1.0
C      1  0.4341040000000  0.5148400000000  0.4809620000000 1.0
C      1  0.4176870000000  0.4375580000000  0.5082380000000 1.0
C      1  0.4874120000000  0.4703030000000  0.5364640000000 1.0
C      1  0.5824630000000  0.5398910000000  0.4886350000000 1.0
C      1  0.5105800000000  0.5606690000000  0.5894100000000 1.0
C      1  0.4824640000000  0.4197560000000  0.5305690000000 1.0
C      1  0.4058670000000  0.5554920000000  0.4992500000000 1.0
C      1  0.5346990000000  0.5653620000000  0.4690430000000 1.0
C      1  0.4094820000000  0.4895480000000  0.4453540000000 1.0
C      1  0.4709260000000  0.5933240000000  0.5289990000000 1.0
C      1  0.4647170000000  0.4463920000000  0.4202280000000 1.0
C      1  0.5748320000000  0.4775120000000  0.5292530000000 1.0
C      1  0.6143340000000  0.4923950000000  0.5092320000000 1.0
C      1  0.5141040000000  0.5438160000000  0.4537650000000 1.0
C      1  0.5120730000000  0.4798560000000  0.5578510000000 1.0
C      1  0.5614190000000  0.4973310000000  0.5626560000000 1.0
C      1  0.5861960000000  0.4785710000000  0.5614220000000 1.0
C      1  0.5293370000000  0.4689890000000  0.4581600000000 1.0
C      1  0.4802420000000  0.5314560000000  0.5304430000000 1.0
C      1  0.4523720000000  0.4713160000000  0.4347070000000 1.0
C      1  0.4165430000000  0.5519670000000  0.5238810000000 1.0
C      1  0.5834560000000  0.4763620000000  0.4568770000000 1.0
C      1  0.4894760000000  0.4252460000000  0.5628970000000 1.0
C      1  0.4911470000000  0.5213260000000  0.4615910000000 1.0
C      1  0.5229140000000  0.6137190000000  0.4969960000000 1.0
C      1  0.5313640000000  0.5000970000000  0.4464330000000 1.0
C      1  0.5855570000000  0.4477460000000  0.5048040000000 1.0
C      1  0.4889300000000  0.4819190000000  0.4689960000000 1.0
C      1  0.4672500000000  0.5361870000000  0.4334170000000 1.0
C      1  0.4794950000000  0.5258540000000  0.4895600000000 1.0
C      1  0.5380550000000  0.5034540000000  0.4072500000000 1.0
C      1  0.5212280000000  0.5327390000000  0.5150390000000 1.0
C      1  0.5128370000000  0.4066760000000  0.4739320000000 1.0
C      1  0.4306950000000  0.4936200000000  0.4280800000000 1.0
C      1  0.4517810000000  0.4932090000000  0.5852470000000 1.0
C      1  0.4745430000000  0.4114700000000  0.4993090000000 1.0
C      1  0.5683740000000  0.5473880000000  0.5485530000000 1.0
C      1  0.5879230000000  0.5067800000000  0.4450580000000 1.0
C      1  0.5405990000000  0.5502900000000  0.5925880000000 1.0
C      1  0.5053790000000  0.4726700000000  0.4342990000000 1.0
C      1  0.4458490000000  0.5668200000000  0.4829950000000 1.0
C      1  0.4868800000000  0.5336340000000  0.5637180000000 1.0
C      1  0.4959270000000  0.5548960000000  0.5114080000000 1.0
C      1  0.4272580000000  0.4759010000000  0.5366110000000 1.0
C      1  0.4285360000000  0.5602150000000  0.4563680000000 1.0
C      1  0.4564580000000  0.5577400000000  0.5547670000000 1.0
C      1  0.4809050000000  0.4503710000000  0.4626560000000 1.0
C      1  0.5682040000000  0.5673530000000  0.4745350000000 1.0
C      1  0.5831560000000  0.5056620000000  0.5120870000000 1.0
C      1  0.4285820000000  0.4215510000000  0.5352610000000 1.0
C      1  0.5494440000000  0.5052270000000  0.5076760000000 1.0
C      1  0.5659670000000  0.4234570000000  0.4913010000000 1.0
C      1  0.5604120000000  0.4585680000000  0.5535310000000 1.0
C      1  0.4934600000000  0.5369590000000  0.5957070000000 1.0
C      1  0.5384350000000  0.5379240000000  0.5439200000000 1.0
C      1  0.5464540000000  0.5971930000000  0.5044670000000 1.0
C      1  0.4584740000000  0.5131730000000  0.4568730000000 1.0
C      1  0.5233400000000  0.4371560000000  0.4847770000000 1.0
C      1  0.4540980000000  0.4010360000000  0.5314280000000 1.0
C      1  0.5109180000000  0.4931360000000  0.4841330000000 1.0
C      1  0.4402070000000  0.4722570000000  0.5679880000000 1.0
C      1  0.4190210000000  0.5040590000000  0.5094800000000 1.0
C      1  0.5186360000000  0.3951950000000  0.5181290000000 1.0
C      1  0.4119890000000  0.5243590000000  0.5356510000000 1.0
C      1  0.4506980000000  0.4318720000000  0.5023890000000 1.0
C      1  0.4160780000000  0.5185130000000  0.5681260000000 1.0
C      1  0.5372220000000  0.4894950000000  0.5787320000000 1.0
C      1  0.5571040000000  0.5267020000000  0.4606630000000 1.0
C      1  0.5036990000000  0.4771650000000  0.5968260000000 1.0
C      1  0.4401970000000  0.5183330000000  0.5819640000000 1.0
C      1  0.4620080000000  0.4594060000000  0.4874670000000 1.0
C      1  0.5702480000000  0.5904730000000  0.4906600000000 1.0
C      1  0.4819120000000  0.4865130000000  0.5724340000000 1.0
C      1  0.4945510000000  0.5511660000000  0.3892880000000 1.0
C      1  0.5089340000000  0.5118130000000  0.5497990000000 1.0
C      1  0.4634300000000  0.4541790000000  0.5544100000000 1.0
C      1  0.4743570000000  0.5794600000000  0.5535560000000 1.0
C      1  0.4757550000000  0.4828600000000  0.5069810000000 1.0
C      1  0.4737500000000  0.4000500000000  0.4686430000000 1.0
C      1  0.4741750000000  0.4935820000000  0.3862000000000 1.0
C      1  0.5272990000000  0.4683190000000  0.4977950000000 1.0
C      1  0.4952880000000  0.5795820000000  0.5736060000000 1.0
C      1  0.5548340000000  0.5107940000000  0.5397490000000 1.0
C      1  0.5954140000000  0.4758990000000  0.4884460000000 1.0
C      1  0.4927240000000  0.4348190000000  0.4356580000000 1.0
C      1  0.4040000000000  0.4949810000000  0.5493820000000 1.0
C      1  0.5483130000000  0.5481810000000  0.4211480000000 1.0
C      1  0.5434660000000  0.5007420000000  0.4778840000000 1.0
C      1  0.5453230000000  0.4287350000000  0.5537550000000 1.0
C      1  0.4482200000000  0.5425520000000  0.5275090000000 1.0
C      1  0.5749950000000  0.5646960000000  0.5669630000000 1.0
C      1  0.5276210000000  0.4318870000000  0.5181020000000 1.0
C      1  0.5589760000000  0.4670120000000  0.5020390000000 1.0
END
