TITL C-2848495-5024-349 0.00135084676729035 125000 -541.247022128772 0 0 105 (C1) n - 1
REM
REM in /home/bkarasulu/work/CARBON/AIRSS/Generating-Clusters/AIREBO/with-SteepDescent/Only-C1/SD-CG-opt/Try1-1.4A-POS3A/HFTN-CG
REM
REM
REM
REM
REM
REM ./C.cell (11c1c37f851c82e70ff6c80c92926a4b)
REM
REM compiler GCC version 9.2.1 20190827 (Red Hat 9.2.1-1)
REM options -cpp -mtune=generic -march=x86-64 -g -O0 -fpre-include=/usr/include/finclude/math-vector-fortran.h
REM seed 1202627364 -854910410 -576640831 -553475841 720680459 -1830080499 1855250240 -1843010123 1025148463 949669995 1632646180 75963356 869898517 1632638501 1336022595 1626181201 275069280 -683893482 -196199264 2077034761 617427736 -1517647531 -335176341 1701168443 -1534520615 631608932 -1085704291 -1239358907 688050782 -1336103807 -200191301 1300752974 1735149968
REM
CELL 1.54180   50.00000   50.00000   50.00000   90.00000   90.00000   90.00000
LATT -1
SFAC C  
C      1  0.4775010000000  0.4189530000000  0.5155990000000 1.0
C      1  0.5887110000000  0.5522860000000  0.4929840000000 1.0
C      1  0.5819270000000  0.4742490000000  0.5161800000000 1.0
C      1  0.4987350000000  0.4073550000000  0.5020300000000 1.0
C      1  0.4659840000000  0.5486830000000  0.4314060000000 1.0
C      1  0.5459880000000  0.5245930000000  0.5294010000000 1.0
C      1  0.4742160000000  0.4197950000000  0.4561170000000 1.0
C      1  0.5015600000000  0.5143850000000  0.4187620000000 1.0
C      1  0.4948430000000  0.4820240000000  0.5350050000000 1.0
C      1  0.5470440000000  0.5280890000000  0.5814510000000 1.0
C      1  0.4575060000000  0.5745460000000  0.5121360000000 1.0
C      1  0.4392680000000  0.4971710000000  0.5130880000000 1.0
C      1  0.4715790000000  0.4755590000000  0.4098810000000 1.0
C      1  0.5125350000000  0.5449920000000  0.6162250000000 1.0
C      1  0.4317810000000  0.4526830000000  0.4614590000000 1.0
C      1  0.5105260000000  0.5283010000000  0.5115610000000 1.0
C      1  0.4918800000000  0.4937230000000  0.4934470000000 1.0
C      1  0.5507490000000  0.4663150000000  0.4662620000000 1.0
C      1  0.4416050000000  0.5163670000000  0.5761420000000 1.0
C      1  0.4061060000000  0.4813790000000  0.5109010000000 1.0
C      1  0.5730500000000  0.5521140000000  0.5391040000000 1.0
C      1  0.5178960000000  0.5715630000000  0.5340750000000 1.0
C      1  0.4409430000000  0.5276210000000  0.4873990000000 1.0
C      1  0.4403880000000  0.5050050000000  0.5441170000000 1.0
C      1  0.4688750000000  0.4691830000000  0.5293200000000 1.0
C      1  0.5510200000000  0.5444000000000  0.5036920000000 1.0
C      1  0.5139200000000  0.4789880000000  0.5629870000000 1.0
C      1  0.5586510000000  0.5314910000000  0.5579520000000 1.0
C      1  0.5149130000000  0.4455230000000  0.4694820000000 1.0
C      1  0.4922460000000  0.4942350000000  0.6069660000000 1.0
C      1  0.4128460000000  0.5126640000000  0.4993900000000 1.0
C      1  0.5855050000000  0.5084900000000  0.5167520000000 1.0
C      1  0.4804420000000  0.5247280000000  0.4636490000000 1.0
C      1  0.4651680000000  0.4201630000000  0.5402430000000 1.0
C      1  0.4815190000000  0.5539420000000  0.4996890000000 1.0
C      1  0.5343480000000  0.5837550000000  0.4842460000000 1.0
C      1  0.5446870000000  0.5678600000000  0.5492950000000 1.0
C      1  0.5538520000000  0.5011570000000  0.5077320000000 1.0
C      1  0.4233870000000  0.4627660000000  0.5258770000000 1.0
C      1  0.4546570000000  0.4328120000000  0.4714570000000 1.0
C      1  0.5303470000000  0.4357660000000  0.5344250000000 1.0
C      1  0.5243400000000  0.4718180000000  0.4859130000000 1.0
C      1  0.5237340000000  0.5041240000000  0.4922340000000 1.0
C      1  0.5653350000000  0.4540380000000  0.4944360000000 1.0
C      1  0.5032560000000  0.4365800000000  0.5757670000000 1.0
C      1  0.4913690000000  0.5595310000000  0.5516180000000 1.0
C      1  0.4906720000000  0.5805220000000  0.5177360000000 1.0
C      1  0.4660340000000  0.5589060000000  0.5404750000000 1.0
C      1  0.5196040000000  0.5436090000000  0.5893430000000 1.0
C      1  0.4367050000000  0.5127030000000  0.4571280000000 1.0
C      1  0.4769140000000  0.5051610000000  0.4111610000000 1.0
C      1  0.5194860000000  0.5319750000000  0.4640790000000 1.0
C      1  0.4520580000000  0.5202590000000  0.4274610000000 1.0
C      1  0.4613620000000  0.4491020000000  0.5526820000000 1.0
C      1  0.5029560000000  0.4711810000000  0.4521600000000 1.0
C      1  0.4362660000000  0.4421260000000  0.5143230000000 1.0
C      1  0.5507300000000  0.4345980000000  0.4556090000000 1.0
C      1  0.5193330000000  0.5910230000000  0.4479790000000 1.0
C      1  0.5289340000000  0.5527420000000  0.4315590000000 1.0
C      1  0.4244110000000  0.4822130000000  0.4532850000000 1.0
C      1  0.5399110000000  0.5670540000000  0.5765950000000 1.0
C      1  0.5292860000000  0.5063070000000  0.4221610000000 1.0
C      1  0.5015710000000  0.5565180000000  0.4754960000000 1.0
C      1  0.5654100000000  0.5598170000000  0.4770170000000 1.0
C      1  0.4777190000000  0.4302190000000  0.4310950000000 1.0
C      1  0.5249190000000  0.4305230000000  0.5600440000000 1.0
C      1  0.5490390000000  0.4739890000000  0.5248300000000 1.0
C      1  0.4970440000000  0.5385710000000  0.5695030000000 1.0
C      1  0.5047340000000  0.5037880000000  0.4570510000000 1.0
C      1  0.4905090000000  0.4572040000000  0.4237660000000 1.0
C      1  0.4450930000000  0.4876460000000  0.4272210000000 1.0
C      1  0.5670810000000  0.4930310000000  0.4774590000000 1.0
C      1  0.4995180000000  0.4168270000000  0.4720020000000 1.0
C      1  0.4528630000000  0.4880270000000  0.5776540000000 1.0
C      1  0.4747510000000  0.4750740000000  0.4707900000000 1.0
C      1  0.3906860000000  0.5291660000000  0.4985170000000 1.0
C      1  0.4664170000000  0.4438460000000  0.4987000000000 1.0
C      1  0.5713220000000  0.4652810000000  0.5473460000000 1.0
C      1  0.4364130000000  0.4722250000000  0.5524390000000 1.0
C      1  0.4583590000000  0.4636770000000  0.4465490000000 1.0
C      1  0.4960480000000  0.4608410000000  0.5012480000000 1.0
C      1  0.4980920000000  0.5405040000000  0.4390660000000 1.0
C      1  0.5335330000000  0.4179310000000  0.4750670000000 1.0
C      1  0.5442590000000  0.5703520000000  0.4546100000000 1.0
C      1  0.5174980000000  0.5175920000000  0.5412080000000 1.0
C      1  0.4463670000000  0.5428420000000  0.5173230000000 1.0
C      1  0.4952650000000  0.5895810000000  0.4538990000000 1.0
C      1  0.4888560000000  0.5090500000000  0.5547530000000 1.0
C      1  0.5224190000000  0.4565800000000  0.4204800000000 1.0
C      1  0.4469710000000  0.5460760000000  0.4594770000000 1.0
C      1  0.5203510000000  0.4638150000000  0.5248550000000 1.0
C      1  0.5435570000000  0.5313450000000  0.4203810000000 1.0
C      1  0.5878710000000  0.5378300000000  0.5177590000000 1.0
C      1  0.5245960000000  0.4042600000000  0.5114810000000 1.0
C      1  0.4568520000000  0.4764660000000  0.4997100000000 1.0
C      1  0.5210110000000  0.5589530000000  0.5033000000000 1.0
C      1  0.5451540000000  0.5263190000000  0.4779070000000 1.0
C      1  0.4734890000000  0.5218930000000  0.4968180000000 1.0
C      1  0.5450570000000  0.4305080000000  0.5044880000000 1.0
C      1  0.4674880000000  0.5195160000000  0.5302140000000 1.0
C      1  0.4744950000000  0.5661290000000  0.4586110000000 1.0
C      1  0.4818890000000  0.4531060000000  0.5749880000000 1.0
C      1  0.5337060000000  0.4800210000000  0.4400040000000 1.0
C      1  0.4851530000000  0.4865750000000  0.5800130000000 1.0
C      1  0.5851710000000  0.5052450000000  0.4632700000000 1.0
END
