TITL C-2847954-6904-185 1.4594062274473e-05 125000 -929.083560562179 0 0 172 (C1) n - 1
REM
REM in /home/bkarasulu/work/CARBON/AIRSS/Generating-Clusters/AIREBO/with-SteepDescent/Only-C1/SD-CG-opt/Try1-1.4A-POS3A/HFTN-CG
REM
REM
REM
REM
REM
REM ./C.cell (11c1c37f851c82e70ff6c80c92926a4b)
REM
REM compiler GCC version 9.2.1 20190827 (Red Hat 9.2.1-1)
REM options -cpp -mtune=generic -march=x86-64 -g -O0 -fpre-include=/usr/include/finclude/math-vector-fortran.h
REM seed 1580898524 -2085370619 -281563903 -1023461507 -849798137 408910143 -1314405303 967386095 518833801 116700950 -1827629870 -1127169280 -341619223 441282903 -1873928242 527105665 -1090137567 269830928 -1735120797 -468521767 352638817 -1446991267 1273348608 1908170770 -283896459 1304637394 -56606414 953238510 -320683526 1192288894 1481787192 1083357687 1969469210
REM
CELL 1.54180   50.00000   50.00000   50.00000   90.00000   90.00000   90.00000
LATT -1
SFAC C  
C      1  0.5741090000000  0.5550420000000  0.5495660000000 1.0
C      1  0.4922700000000  0.4609820000000  0.5285520000000 1.0
C      1  0.4626570000000  0.4120100000000  0.5553740000000 1.0
C      1  0.5375220000000  0.5093440000000  0.4565660000000 1.0
C      1  0.5114710000000  0.5200900000000  0.4980860000000 1.0
C      1  0.5202000000000  0.5513640000000  0.5081760000000 1.0
C      1  0.5568860000000  0.4248300000000  0.4765060000000 1.0
C      1  0.4474040000000  0.4668000000000  0.4507220000000 1.0
C      1  0.4935010000000  0.5749350000000  0.4174640000000 1.0
C      1  0.5806840000000  0.5246500000000  0.5229150000000 1.0
C      1  0.4186700000000  0.4815580000000  0.5855310000000 1.0
C      1  0.5782390000000  0.5396020000000  0.4233100000000 1.0
C      1  0.4495120000000  0.4842900000000  0.5885460000000 1.0
C      1  0.5070140000000  0.5395620000000  0.5695340000000 1.0
C      1  0.4730850000000  0.5255310000000  0.4707420000000 1.0
C      1  0.4461180000000  0.4094510000000  0.5304650000000 1.0
C      1  0.5079180000000  0.5201880000000  0.4121220000000 1.0
C      1  0.4542890000000  0.4339280000000  0.4458230000000 1.0
C      1  0.5193660000000  0.4308910000000  0.4144070000000 1.0
C      1  0.5860180000000  0.5287340000000  0.5540760000000 1.0
C      1  0.5162140000000  0.5516510000000  0.4176960000000 1.0
C      1  0.5171720000000  0.4609230000000  0.4481800000000 1.0
C      1  0.5448710000000  0.4039300000000  0.4620240000000 1.0
C      1  0.4373640000000  0.5551360000000  0.4891000000000 1.0
C      1  0.4893340000000  0.4762360000000  0.4845590000000 1.0
C      1  0.5933420000000  0.5448110000000  0.4999700000000 1.0
C      1  0.5297320000000  0.4950990000000  0.5017240000000 1.0
C      1  0.3952100000000  0.5034190000000  0.4780980000000 1.0
C      1  0.5893190000000  0.4482330000000  0.4873590000000 1.0
C      1  0.4630550000000  0.4936930000000  0.5588100000000 1.0
C      1  0.4503900000000  0.5202640000000  0.5037270000000 1.0
C      1  0.5943170000000  0.5477370000000  0.4440270000000 1.0
C      1  0.5400500000000  0.5898470000000  0.5072170000000 1.0
C      1  0.4744180000000  0.5753970000000  0.4369910000000 1.0
C      1  0.4820050000000  0.5593300000000  0.5630730000000 1.0
C      1  0.5016420000000  0.4776680000000  0.5856240000000 1.0
C      1  0.5907210000000  0.4526040000000  0.5159860000000 1.0
C      1  0.5796660000000  0.5117640000000  0.4184790000000 1.0
C      1  0.4556640000000  0.4400470000000  0.4851490000000 1.0
C      1  0.4436300000000  0.5120610000000  0.5402930000000 1.0
C      1  0.3973160000000  0.5167850000000  0.5093200000000 1.0
C      1  0.5317240000000  0.4380980000000  0.5425210000000 1.0
C      1  0.4279830000000  0.5250080000000  0.4838280000000 1.0
C      1  0.5541820000000  0.4556230000000  0.4622870000000 1.0
C      1  0.5035300000000  0.5096190000000  0.5394160000000 1.0
C      1  0.4532700000000  0.4632000000000  0.5473560000000 1.0
C      1  0.5621230000000  0.4743170000000  0.5749750000000 1.0
C      1  0.5058040000000  0.5182090000000  0.4650460000000 1.0
C      1  0.5125490000000  0.4691660000000  0.5057170000000 1.0
C      1  0.5167180000000  0.4860200000000  0.5575410000000 1.0
C      1  0.4254270000000  0.4681910000000  0.5330650000000 1.0
C      1  0.4877430000000  0.6004590000000  0.5564520000000 1.0
C      1  0.5709250000000  0.4191350000000  0.4330410000000 1.0
C      1  0.5324990000000  0.4802770000000  0.4711860000000 1.0
C      1  0.4948290000000  0.5059120000000  0.6004850000000 1.0
C      1  0.6008720000000  0.4535730000000  0.4629890000000 1.0
C      1  0.5222210000000  0.3939420000000  0.4764290000000 1.0
C      1  0.5290500000000  0.5313250000000  0.5452970000000 1.0
C      1  0.5256460000000  0.4962500000000  0.6111730000000 1.0
C      1  0.4315310000000  0.4904590000000  0.4361680000000 1.0
C      1  0.4974180000000  0.5439230000000  0.4448730000000 1.0
C      1  0.6072970000000  0.4815350000000  0.4612280000000 1.0
C      1  0.4994010000000  0.5546930000000  0.4832550000000 1.0
C      1  0.6147080000000  0.4956420000000  0.4853340000000 1.0
C      1  0.5153570000000  0.4294630000000  0.4541260000000 1.0
C      1  0.5690190000000  0.5093170000000  0.4678580000000 1.0
C      1  0.4847930000000  0.6043350000000  0.4856440000000 1.0
C      1  0.4271300000000  0.4960090000000  0.4690260000000 1.0
C      1  0.5852100000000  0.4947990000000  0.4440940000000 1.0
C      1  0.5143900000000  0.5569680000000  0.5977020000000 1.0
C      1  0.4142530000000  0.4437960000000  0.5175310000000 1.0
C      1  0.5589340000000  0.5584400000000  0.4745810000000 1.0
C      1  0.4234550000000  0.5823320000000  0.4761020000000 1.0
C      1  0.5855810000000  0.4408810000000  0.4402500000000 1.0
C      1  0.4881690000000  0.5310950000000  0.5202670000000 1.0
C      1  0.5903210000000  0.4781640000000  0.5561280000000 1.0
C      1  0.4600310000000  0.6024870000000  0.5072090000000 1.0
C      1  0.3994840000000  0.5412260000000  0.4897700000000 1.0
C      1  0.4653600000000  0.5878720000000  0.5349560000000 1.0
C      1  0.5396030000000  0.4412820000000  0.5760990000000 1.0
C      1  0.4299850000000  0.4224200000000  0.4962530000000 1.0
C      1  0.4985750000000  0.4348010000000  0.5493200000000 1.0
C      1  0.4965060000000  0.4870280000000  0.4550990000000 1.0
C      1  0.4701450000000  0.4410510000000  0.5668920000000 1.0
C      1  0.5133330000000  0.5887030000000  0.5570020000000 1.0
C      1  0.4174290000000  0.4172910000000  0.5335250000000 1.0
C      1  0.4789550000000  0.4190690000000  0.5099210000000 1.0
C      1  0.5287400000000  0.5729040000000  0.5733360000000 1.0
C      1  0.5275310000000  0.4003570000000  0.5056250000000 1.0
C      1  0.5471150000000  0.5564750000000  0.5593460000000 1.0
C      1  0.4566690000000  0.5385900000000  0.5292860000000 1.0
C      1  0.5153600000000  0.5801960000000  0.5255390000000 1.0
C      1  0.5422770000000  0.5607420000000  0.4546080000000 1.0
C      1  0.4255910000000  0.5474520000000  0.5380510000000 1.0
C      1  0.4540110000000  0.5416730000000  0.5689830000000 1.0
C      1  0.5385610000000  0.4708660000000  0.5431650000000 1.0
C      1  0.5360880000000  0.5180550000000  0.4256100000000 1.0
C      1  0.4942720000000  0.4039980000000  0.4621310000000 1.0
C      1  0.4390960000000  0.4690920000000  0.4838320000000 1.0
C      1  0.5561790000000  0.4183980000000  0.5088670000000 1.0
C      1  0.5154290000000  0.4233350000000  0.5765330000000 1.0
C      1  0.4273620000000  0.4356040000000  0.4654140000000 1.0
C      1  0.5285730000000  0.5074220000000  0.5791920000000 1.0
C      1  0.5693030000000  0.4675300000000  0.4369130000000 1.0
C      1  0.4042860000000  0.5231580000000  0.4518580000000 1.0
C      1  0.4593380000000  0.5132420000000  0.4195690000000 1.0
C      1  0.4657570000000  0.4407440000000  0.5276980000000 1.0
C      1  0.4382290000000  0.5669340000000  0.4510830000000 1.0
C      1  0.5494570000000  0.4942700000000  0.5250490000000 1.0
C      1  0.4352270000000  0.6045570000000  0.4946800000000 1.0
C      1  0.4452140000000  0.5696510000000  0.5517810000000 1.0
C      1  0.4491450000000  0.4833500000000  0.5131320000000 1.0
C      1  0.3965050000000  0.5662620000000  0.4813920000000 1.0
C      1  0.3875330000000  0.4724860000000  0.4791320000000 1.0
C      1  0.3791730000000  0.5304150000000  0.5534260000000 1.0
C      1  0.4084710000000  0.4545820000000  0.4866500000000 1.0
C      1  0.5111030000000  0.6003010000000  0.4657760000000 1.0
C      1  0.5817230000000  0.4836340000000  0.5236640000000 1.0
C      1  0.5568890000000  0.5660440000000  0.5029660000000 1.0
C      1  0.5115840000000  0.4312010000000  0.4857770000000 1.0
C      1  0.4877110000000  0.5628770000000  0.5323390000000 1.0
C      1  0.4759400000000  0.4667960000000  0.4385450000000 1.0
C      1  0.5582730000000  0.4603410000000  0.4941400000000 1.0
C      1  0.4703260000000  0.4985140000000  0.4912650000000 1.0
C      1  0.5491570000000  0.5367370000000  0.5184090000000 1.0
C      1  0.4577250000000  0.5449380000000  0.4102520000000 1.0
C      1  0.4076180000000  0.5099440000000  0.5714470000000 1.0
C      1  0.4901590000000  0.4577460000000  0.4114050000000 1.0
C      1  0.4357270000000  0.5237560000000  0.4416640000000 1.0
C      1  0.4383490000000  0.5162450000000  0.5852500000000 1.0
C      1  0.5546980000000  0.5010940000000  0.4084970000000 1.0
C      1  0.4071740000000  0.4800820000000  0.5544430000000 1.0
C      1  0.4919290000000  0.5021670000000  0.3906310000000 1.0
C      1  0.5674530000000  0.4540500000000  0.5494880000000 1.0
C      1  0.4795430000000  0.5196330000000  0.5733650000000 1.0
C      1  0.5025470000000  0.4098000000000  0.5266150000000 1.0
C      1  0.5341310000000  0.6069830000000  0.4865950000000 1.0
C      1  0.4989880000000  0.6069710000000  0.5141650000000 1.0
C      1  0.5345550000000  0.4700240000000  0.5914170000000 1.0
C      1  0.5329940000000  0.4430210000000  0.5088750000000 1.0
C      1  0.4071520000000  0.5228460000000  0.5399530000000 1.0
C      1  0.5503580000000  0.5074280000000  0.5559420000000 1.0
C      1  0.5238020000000  0.4627420000000  0.4169920000000 1.0
C      1  0.5752180000000  0.4315860000000  0.5294590000000 1.0
C      1  0.4757720000000  0.5816940000000  0.4655000000000 1.0
C      1  0.5480930000000  0.5484360000000  0.4266670000000 1.0
C      1  0.5787240000000  0.5042840000000  0.5704370000000 1.0
C      1  0.4862910000000  0.5073680000000  0.4298380000000 1.0
C      1  0.5714750000000  0.4898300000000  0.4918230000000 1.0
C      1  0.4764200000000  0.4187410000000  0.4388510000000 1.0
C      1  0.4757960000000  0.4812170000000  0.3974310000000 1.0
C      1  0.4787300000000  0.4887950000000  0.5290380000000 1.0
C      1  0.4627100000000  0.5443040000000  0.4443260000000 1.0
C      1  0.5117260000000  0.6190620000000  0.4417160000000 1.0
C      1  0.4843010000000  0.4456090000000  0.4902540000000 1.0
C      1  0.4674110000000  0.3897120000000  0.4748200000000 1.0
C      1  0.4664890000000  0.5568040000000  0.4819220000000 1.0
C      1  0.6042430000000  0.5044440000000  0.5089640000000 1.0
C      1  0.4807410000000  0.5526150000000  0.5964580000000 1.0
C      1  0.5811480000000  0.5645420000000  0.5235860000000 1.0
C      1  0.5271020000000  0.5293640000000  0.6032130000000 1.0
C      1  0.5378560000000  0.4143770000000  0.4331180000000 1.0
C      1  0.5135530000000  0.5701700000000  0.4593040000000 1.0
C      1  0.5338430000000  0.4042550000000  0.5387190000000 1.0
C      1  0.4741800000000  0.4648240000000  0.5858130000000 1.0
C      1  0.4659500000000  0.5242120000000  0.6042030000000 1.0
C      1  0.5511810000000  0.4733980000000  0.4132230000000 1.0
C      1  0.4898410000000  0.4255140000000  0.4155520000000 1.0
C      1  0.4215420000000  0.5655030000000  0.5125640000000 1.0
C      1  0.4471040000000  0.4865230000000  0.4061350000000 1.0
C      1  0.4563900000000  0.4016100000000  0.4990080000000 1.0
C      1  0.5822370000000  0.5391240000000  0.4713930000000 1.0
END
