TITL C-2847945-6269-317 -0.000544505186100673 125000 -314.317687689413 0 0 58 (C1) n - 1
REM
REM in /home/bkarasulu/work/CARBON/AIRSS/Generating-Clusters/AIREBO/with-SteepDescent/Only-C1/SD-CG-opt/Try1-1.4A-POS3A/HFTN-CG
REM
REM
REM
REM
REM
REM ./C.cell (11c1c37f851c82e70ff6c80c92926a4b)
REM
REM compiler GCC version 9.2.1 20190827 (Red Hat 9.2.1-1)
REM options -cpp -mtune=generic -march=x86-64 -g -O0 -fpre-include=/usr/include/finclude/math-vector-fortran.h
REM seed -1721989563 -743492150 -1532208944 -726923839 -1960533176 1509390019 -630821711 530879817 261495905 1519145598 1370712470 1337742468 -2124023915 -1733156029 -1064439648 -983829923 -78722996 477408554 1521424609 1678218712 -623747440 -676728856 -7779332 1030613394 1360808058 1194981430 -471104757 852117015 1079597154 -1926740412 1494439365 -500904364 368975870
REM
CELL 1.54180   50.00000   50.00000   50.00000   90.00000   90.00000   90.00000
LATT -1
SFAC C  
C      1  0.5555480000000  0.4732220000000  0.5451380000000 1.0
C      1  0.4991310000000  0.5236930000000  0.4812410000000 1.0
C      1  0.4678550000000  0.5612530000000  0.5077820000000 1.0
C      1  0.5466680000000  0.5215270000000  0.4858340000000 1.0
C      1  0.4745200000000  0.5575940000000  0.4779270000000 1.0
C      1  0.5237510000000  0.4884390000000  0.5640100000000 1.0
C      1  0.4787550000000  0.4637410000000  0.4457690000000 1.0
C      1  0.5639000000000  0.4798650000000  0.5146640000000 1.0
C      1  0.4610290000000  0.5125660000000  0.4445150000000 1.0
C      1  0.4732320000000  0.4598270000000  0.4901720000000 1.0
C      1  0.4394760000000  0.5245360000000  0.5258940000000 1.0
C      1  0.5511910000000  0.5049500000000  0.5573610000000 1.0
C      1  0.5246170000000  0.5461830000000  0.4778980000000 1.0
C      1  0.4950680000000  0.4523210000000  0.5413980000000 1.0
C      1  0.4990540000000  0.4981500000000  0.5692870000000 1.0
C      1  0.4934420000000  0.4908170000000  0.4349850000000 1.0
C      1  0.4554210000000  0.4886780000000  0.4876090000000 1.0
C      1  0.5204150000000  0.5120690000000  0.4573980000000 1.0
C      1  0.5541870000000  0.5495780000000  0.5286080000000 1.0
C      1  0.5324410000000  0.4922730000000  0.4942610000000 1.0
C      1  0.4619730000000  0.4582590000000  0.5341310000000 1.0
C      1  0.4985440000000  0.5615750000000  0.4364320000000 1.0
C      1  0.5502170000000  0.5074750000000  0.4568550000000 1.0
C      1  0.4794460000000  0.4332910000000  0.5192660000000 1.0
C      1  0.4776580000000  0.5514750000000  0.5348520000000 1.0
C      1  0.5651940000000  0.5084970000000  0.5104100000000 1.0
C      1  0.4617410000000  0.5294430000000  0.5436820000000 1.0
C      1  0.5249160000000  0.4598730000000  0.4676520000000 1.0
C      1  0.5749310000000  0.4578930000000  0.5587440000000 1.0
C      1  0.5617950000000  0.4827570000000  0.4583280000000 1.0
C      1  0.5239300000000  0.4620640000000  0.5507970000000 1.0
C      1  0.4857410000000  0.4296700000000  0.4868650000000 1.0
C      1  0.4911760000000  0.5417850000000  0.4186290000000 1.0
C      1  0.5205410000000  0.4993890000000  0.5233040000000 1.0
C      1  0.4692060000000  0.5184450000000  0.4831930000000 1.0
C      1  0.4523100000000  0.5386140000000  0.4616530000000 1.0
C      1  0.4263740000000  0.4974000000000  0.5311630000000 1.0
C      1  0.4990630000000  0.5600240000000  0.4646030000000 1.0
C      1  0.5259310000000  0.5240390000000  0.5461120000000 1.0
C      1  0.4963050000000  0.4823750000000  0.5302780000000 1.0
C      1  0.5115940000000  0.5267200000000  0.5096690000000 1.0
C      1  0.5140280000000  0.4413330000000  0.5010010000000 1.0
C      1  0.4580970000000  0.4894560000000  0.5214950000000 1.0
C      1  0.4766890000000  0.5027880000000  0.5466520000000 1.0
C      1  0.5030970000000  0.4737400000000  0.4980970000000 1.0
C      1  0.4971720000000  0.4469120000000  0.4609960000000 1.0
C      1  0.5529720000000  0.4665710000000  0.4856530000000 1.0
C      1  0.4281980000000  0.5501740000000  0.4552840000000 1.0
C      1  0.4592260000000  0.4868060000000  0.4551920000000 1.0
C      1  0.5051770000000  0.5458610000000  0.5362680000000 1.0
C      1  0.4308950000000  0.4694600000000  0.5421770000000 1.0
C      1  0.4498860000000  0.5367100000000  0.5015060000000 1.0
C      1  0.5047680000000  0.4857200000000  0.4663040000000 1.0
C      1  0.5347940000000  0.5510220000000  0.5099770000000 1.0
C      1  0.4393210000000  0.4579970000000  0.4918230000000 1.0
C      1  0.4825440000000  0.5160400000000  0.4253050000000 1.0
C      1  0.5638230000000  0.5234720000000  0.5338710000000 1.0
C      1  0.5310240000000  0.4235930000000  0.5100300000000 1.0
END
