TITL C-2848509-3138-642 -5.13260874242648e-07 125000 -98.5903250269667 0 0 18 (C1) n - 1
REM
REM in /home/bkarasulu/work/CARBON/AIRSS/Generating-Clusters/AIREBO/with-SteepDescent/Only-C1/SD-CG-opt/Try1-1.4A-POS3A/HFTN-CG
REM
REM
REM
REM
REM
REM ./C.cell (11c1c37f851c82e70ff6c80c92926a4b)
REM
REM compiler GCC version 9.2.1 20190827 (Red Hat 9.2.1-1)
REM options -cpp -mtune=generic -march=x86-64 -g -O0 -fpre-include=/usr/include/finclude/math-vector-fortran.h
REM seed -640970800 -1282531578 1658064092 54747373 -2075035095 1688199032 2025032582 1038828558 1508173092 1622114356 837785350 596368509 -1702702773 -2021434734 566911382 364526183 -1043258367 2036952592 55871133 1506494474 -1507915246 -1303893007 469549925 -835724649 -630741114 -733383987 -691717871 -1602869993 -174331382 -1331861167 -54655010 1056065833 267360186
REM
CELL 1.54180   50.00000   50.00000   50.00000   90.00000   90.00000   90.00000
LATT -1
SFAC C  
C      1  0.4903240000000  0.5144020000000  0.4914210000000 1.0
C      1  0.4953690000000  0.5046910000000  0.5175880000000 1.0
C      1  0.5769470000000  0.5512490000000  0.4840190000000 1.0
C      1  0.5107770000000  0.5185250000000  0.5349100000000 1.0
C      1  0.4975900000000  0.4352870000000  0.5344950000000 1.0
C      1  0.5183830000000  0.5563030000000  0.4115300000000 1.0
C      1  0.4391450000000  0.4596200000000  0.5289320000000 1.0
C      1  0.4963810000000  0.4097410000000  0.5287510000000 1.0
C      1  0.4829010000000  0.4802680000000  0.5253290000000 1.0
C      1  0.4651760000000  0.5073510000000  0.4807570000000 1.0
C      1  0.5227350000000  0.5507360000000  0.4367700000000 1.0
C      1  0.4571530000000  0.4741120000000  0.5151260000000 1.0
C      1  0.5087660000000  0.5295670000000  0.4775460000000 1.0
C      1  0.5282910000000  0.5424210000000  0.4626340000000 1.0
C      1  0.5528900000000  0.5481340000000  0.4740930000000 1.0
C      1  0.4965670000000  0.4619630000000  0.5420080000000 1.0
C      1  0.5087760000000  0.4706770000000  0.5644800000000 1.0
C      1  0.4518300000000  0.4849530000000  0.4896120000000 1.0
END
