TITL C-2847958-8115-728 -0.00148414721416156 125000 -682.966161549305 0 0 127 (C1) n - 1
REM
REM in /home/bkarasulu/work/CARBON/AIRSS/Generating-Clusters/AIREBO/with-SteepDescent/Only-C1/SD-CG-opt/Try1-1.4A-POS3A/HFTN-CG
REM
REM
REM
REM
REM
REM ./C.cell (11c1c37f851c82e70ff6c80c92926a4b)
REM
REM compiler GCC version 9.2.1 20190827 (Red Hat 9.2.1-1)
REM options -cpp -mtune=generic -march=x86-64 -g -O0 -fpre-include=/usr/include/finclude/math-vector-fortran.h
REM seed -1711397855 -1758728893 -1956932334 -1239041565 -46977524 1313935281 1864140846 -1264514112 1087351051 -501503045 -134410771 156512671 -1030848136 746086003 73789216 -1031962087 -641143920 -2121228556 35452193 -570522928 -871041115 -1836101716 -474067989 -554816718 1249268322 782734092 -232779545 -1841090189 1886209239 553056108 1922919379 2017096687 1317878754
REM
CELL 1.54180   50.00000   50.00000   50.00000   90.00000   90.00000   90.00000
LATT -1
SFAC C  
C      1  0.4616930000000  0.4746720000000  0.4249450000000 1.0
C      1  0.4952550000000  0.4272650000000  0.5472890000000 1.0
C      1  0.5235010000000  0.4756110000000  0.4707330000000 1.0
C      1  0.5088980000000  0.5695640000000  0.5606570000000 1.0
C      1  0.4774980000000  0.4580150000000  0.6092410000000 1.0
C      1  0.5619010000000  0.4537450000000  0.4346990000000 1.0
C      1  0.5066930000000  0.5384320000000  0.4478250000000 1.0
C      1  0.5098680000000  0.5893530000000  0.5054570000000 1.0
C      1  0.5033780000000  0.5246220000000  0.4169180000000 1.0
C      1  0.4982230000000  0.5460520000000  0.5827760000000 1.0
C      1  0.6126810000000  0.4583900000000  0.4795700000000 1.0
C      1  0.4661210000000  0.5737320000000  0.3976670000000 1.0
C      1  0.5361990000000  0.5881060000000  0.4834740000000 1.0
C      1  0.4067130000000  0.5101050000000  0.5473020000000 1.0
C      1  0.4174990000000  0.5326660000000  0.5376050000000 1.0
C      1  0.4966570000000  0.4785220000000  0.4576240000000 1.0
C      1  0.5144920000000  0.4021370000000  0.4857370000000 1.0
C      1  0.4131470000000  0.4687780000000  0.4664460000000 1.0
C      1  0.4723430000000  0.4198930000000  0.4452490000000 1.0
C      1  0.4540920000000  0.4534130000000  0.5528750000000 1.0
C      1  0.4104120000000  0.4815640000000  0.5494910000000 1.0
C      1  0.4856250000000  0.4124660000000  0.4734630000000 1.0
C      1  0.4353760000000  0.5500140000000  0.4283420000000 1.0
C      1  0.5783270000000  0.4768610000000  0.4357470000000 1.0
C      1  0.4495460000000  0.5057070000000  0.4938670000000 1.0
C      1  0.4495590000000  0.5439730000000  0.5394500000000 1.0
C      1  0.4237750000000  0.5510590000000  0.5100310000000 1.0
C      1  0.5711420000000  0.5411370000000  0.4931240000000 1.0
C      1  0.5426080000000  0.5129940000000  0.5903550000000 1.0
C      1  0.4588850000000  0.4463340000000  0.4718320000000 1.0
C      1  0.5414040000000  0.4295710000000  0.4760500000000 1.0
C      1  0.4622130000000  0.5858940000000  0.4905160000000 1.0
C      1  0.5333500000000  0.4607540000000  0.5240170000000 1.0
C      1  0.5881580000000  0.4615570000000  0.4712970000000 1.0
C      1  0.4947060000000  0.5122190000000  0.5490940000000 1.0
C      1  0.5140990000000  0.4844290000000  0.5098290000000 1.0
C      1  0.5623940000000  0.5380000000000  0.5668260000000 1.0
C      1  0.4630100000000  0.4944990000000  0.3973380000000 1.0
C      1  0.4812350000000  0.4878530000000  0.5351970000000 1.0
C      1  0.5130600000000  0.5959980000000  0.4662850000000 1.0
C      1  0.4732000000000  0.5252640000000  0.4086080000000 1.0
C      1  0.5631100000000  0.5370140000000  0.4454670000000 1.0
C      1  0.4933580000000  0.5614310000000  0.4952390000000 1.0
C      1  0.5878800000000  0.4782620000000  0.5411380000000 1.0
C      1  0.4208480000000  0.5208320000000  0.4946930000000 1.0
C      1  0.5397410000000  0.5183160000000  0.4387960000000 1.0
C      1  0.5342220000000  0.5743030000000  0.4194510000000 1.0
C      1  0.5639360000000  0.4886260000000  0.4984140000000 1.0
C      1  0.4835130000000  0.4697060000000  0.5074970000000 1.0
C      1  0.5316660000000  0.5473700000000  0.5555700000000 1.0
C      1  0.5604800000000  0.5623960000000  0.5469990000000 1.0
C      1  0.4728320000000  0.4510650000000  0.4411020000000 1.0
C      1  0.5201910000000  0.5067110000000  0.4060110000000 1.0
C      1  0.5897160000000  0.5271650000000  0.5168600000000 1.0
C      1  0.4802570000000  0.5425100000000  0.5540080000000 1.0
C      1  0.4675410000000  0.5344280000000  0.5909350000000 1.0
C      1  0.5699880000000  0.4324830000000  0.4923890000000 1.0
C      1  0.5140520000000  0.4237840000000  0.4590480000000 1.0
C      1  0.5528000000000  0.5076950000000  0.5583400000000 1.0
C      1  0.5279270000000  0.4124580000000  0.5113300000000 1.0
C      1  0.5059380000000  0.4457810000000  0.5136490000000 1.0
C      1  0.4991160000000  0.4121480000000  0.5685330000000 1.0
C      1  0.5620750000000  0.5737610000000  0.4892030000000 1.0
C      1  0.5381450000000  0.4602590000000  0.5533410000000 1.0
C      1  0.5761590000000  0.5257000000000  0.4673790000000 1.0
C      1  0.5573090000000  0.4593840000000  0.5054810000000 1.0
C      1  0.5776510000000  0.4545220000000  0.5544070000000 1.0
C      1  0.4825070000000  0.5602740000000  0.4436440000000 1.0
C      1  0.5250730000000  0.5790080000000  0.5323030000000 1.0
C      1  0.4735090000000  0.4728360000000  0.4785990000000 1.0
C      1  0.4221040000000  0.5230770000000  0.4444590000000 1.0
C      1  0.4639000000000  0.5542270000000  0.4178610000000 1.0
C      1  0.5229580000000  0.4510250000000  0.4867970000000 1.0
C      1  0.6142290000000  0.5317060000000  0.5238270000000 1.0
C      1  0.4544900000000  0.4618020000000  0.5851350000000 1.0
C      1  0.5433840000000  0.4894730000000  0.4503140000000 1.0
C      1  0.5685300000000  0.5031720000000  0.5283420000000 1.0
C      1  0.5735090000000  0.4917830000000  0.4659350000000 1.0
C      1  0.5349550000000  0.5514020000000  0.4340580000000 1.0
C      1  0.4686380000000  0.5406260000000  0.4963860000000 1.0
C      1  0.5686070000000  0.4371520000000  0.4592600000000 1.0
C      1  0.4850910000000  0.4552090000000  0.5443160000000 1.0
C      1  0.5611690000000  0.5678430000000  0.5206430000000 1.0
C      1  0.5026340000000  0.4900160000000  0.5689170000000 1.0
C      1  0.4283330000000  0.4445420000000  0.4787240000000 1.0
C      1  0.5536460000000  0.4216450000000  0.5183230000000 1.0
C      1  0.5163690000000  0.5426640000000  0.4803930000000 1.0
C      1  0.4341710000000  0.5501050000000  0.4595630000000 1.0
C      1  0.3926840000000  0.4926560000000  0.4703560000000 1.0
C      1  0.4946400000000  0.4166330000000  0.5171910000000 1.0
C      1  0.4302070000000  0.4720440000000  0.5661940000000 1.0
C      1  0.4816270000000  0.5056470000000  0.4825790000000 1.0
C      1  0.5295980000000  0.4859070000000  0.5643270000000 1.0
C      1  0.4966610000000  0.5529700000000  0.5261220000000 1.0
C      1  0.4496850000000  0.5103260000000  0.5443400000000 1.0
C      1  0.4178390000000  0.4401240000000  0.5043180000000 1.0
C      1  0.4683400000000  0.4275400000000  0.4985660000000 1.0
C      1  0.4513170000000  0.5693060000000  0.5181370000000 1.0
C      1  0.4566890000000  0.4522600000000  0.5189930000000 1.0
C      1  0.4785610000000  0.5903380000000  0.5185650000000 1.0
C      1  0.5082230000000  0.5166640000000  0.5007360000000 1.0
C      1  0.5346640000000  0.4575580000000  0.4278720000000 1.0
C      1  0.4898110000000  0.5093080000000  0.4526080000000 1.0
C      1  0.5239880000000  0.5319140000000  0.5948690000000 1.0
C      1  0.5319300000000  0.4851870000000  0.4185610000000 1.0
C      1  0.4278080000000  0.4810880000000  0.4946280000000 1.0
C      1  0.4850420000000  0.5792110000000  0.4674690000000 1.0
C      1  0.4367360000000  0.4990360000000  0.4334630000000 1.0
C      1  0.5566380000000  0.4860250000000  0.5937510000000 1.0
C      1  0.5498600000000  0.5296600000000  0.5180250000000 1.0
C      1  0.5361840000000  0.4987430000000  0.4884520000000 1.0
C      1  0.4446720000000  0.5506030000000  0.4838600000000 1.0
C      1  0.4854990000000  0.4762060000000  0.5843120000000 1.0
C      1  0.5596730000000  0.4630780000000  0.5771130000000 1.0
C      1  0.4225090000000  0.4735250000000  0.4374040000000 1.0
C      1  0.4796550000000  0.5758770000000  0.5474640000000 1.0
C      1  0.4453730000000  0.4049800000000  0.5023540000000 1.0
C      1  0.4058360000000  0.5165790000000  0.4709180000000 1.0
C      1  0.5704510000000  0.4295300000000  0.5412290000000 1.0
C      1  0.4675980000000  0.5068490000000  0.4342060000000 1.0
C      1  0.5186050000000  0.5274860000000  0.5312700000000 1.0
C      1  0.4507190000000  0.5251350000000  0.5746360000000 1.0
C      1  0.5072450000000  0.4498200000000  0.4430020000000 1.0
C      1  0.5318500000000  0.5565570000000  0.5076130000000 1.0
C      1  0.4127050000000  0.4672080000000  0.5217450000000 1.0
C      1  0.4427770000000  0.4824850000000  0.5260430000000 1.0
C      1  0.4689130000000  0.5150220000000  0.5187810000000 1.0
END
