TITL C-2847958-8115-359 -0.00167041390963158 125000 -501.324113638566 0 0 95 (C1) n - 1
REM
REM in /home/bkarasulu/work/CARBON/AIRSS/Generating-Clusters/AIREBO/with-SteepDescent/Only-C1/SD-CG-opt/Try1-1.4A-POS3A/HFTN-CG
REM
REM
REM
REM
REM
REM ./C.cell (11c1c37f851c82e70ff6c80c92926a4b)
REM
REM compiler GCC version 9.2.1 20190827 (Red Hat 9.2.1-1)
REM options -cpp -mtune=generic -march=x86-64 -g -O0 -fpre-include=/usr/include/finclude/math-vector-fortran.h
REM seed -1386870320 549517519 833657171 -1879985751 1402332651 459490032 63454010 402026085 921692325 774533752 2073113466 -666925298 -2038252874 159677399 819240652 1679848837 -358403250 1615093551 1344271236 883863153 689773139 1275033011 -295623136 334735607 949403969 -85950102 1933770901 1514799475 198247026 -1963076610 1826671032 1428955100 -1282505893
REM
CELL 1.54180   50.00000   50.00000   50.00000   90.00000   90.00000   90.00000
LATT -1
SFAC C  
C      1  0.5394690000000  0.4708120000000  0.5643760000000 1.0
C      1  0.5538200000000  0.4317300000000  0.4835180000000 1.0
C      1  0.4890300000000  0.5503460000000  0.5007530000000 1.0
C      1  0.5125160000000  0.5231290000000  0.5851170000000 1.0
C      1  0.4675210000000  0.4993750000000  0.4769420000000 1.0
C      1  0.5903520000000  0.5074660000000  0.5154110000000 1.0
C      1  0.5112190000000  0.4637440000000  0.5317400000000 1.0
C      1  0.5339880000000  0.4300550000000  0.5110930000000 1.0
C      1  0.4872090000000  0.5232510000000  0.5404110000000 1.0
C      1  0.4801760000000  0.4806050000000  0.5100390000000 1.0
C      1  0.4810430000000  0.4498320000000  0.5244900000000 1.0
C      1  0.4886620000000  0.4510690000000  0.4335730000000 1.0
C      1  0.4869330000000  0.5415020000000  0.5759270000000 1.0
C      1  0.4381320000000  0.5417990000000  0.4489380000000 1.0
C      1  0.4575470000000  0.4534540000000  0.4310910000000 1.0
C      1  0.5188190000000  0.4533370000000  0.4491570000000 1.0
C      1  0.3886430000000  0.5240800000000  0.4942080000000 1.0
C      1  0.4382820000000  0.5670260000000  0.5510640000000 1.0
C      1  0.4890760000000  0.5699880000000  0.5582150000000 1.0
C      1  0.5010130000000  0.5510680000000  0.5325930000000 1.0
C      1  0.5672650000000  0.4574640000000  0.4770120000000 1.0
C      1  0.5678860000000  0.4630360000000  0.5247640000000 1.0
C      1  0.4625770000000  0.5750730000000  0.5397600000000 1.0
C      1  0.4127020000000  0.4379240000000  0.4229320000000 1.0
C      1  0.5125240000000  0.5955950000000  0.5074270000000 1.0
C      1  0.5024690000000  0.5849330000000  0.5299000000000 1.0
C      1  0.5395970000000  0.4860870000000  0.4785700000000 1.0
C      1  0.4825510000000  0.5310440000000  0.4582800000000 1.0
C      1  0.4838490000000  0.4896710000000  0.4191100000000 1.0
C      1  0.5078930000000  0.4985340000000  0.5091850000000 1.0
C      1  0.5347030000000  0.5001920000000  0.5754290000000 1.0
C      1  0.5197840000000  0.5312270000000  0.4670240000000 1.0
C      1  0.5838510000000  0.5437020000000  0.4801110000000 1.0
C      1  0.4332590000000  0.4666620000000  0.5514920000000 1.0
C      1  0.5417500000000  0.4499510000000  0.5375750000000 1.0
C      1  0.5459260000000  0.5079570000000  0.5442740000000 1.0
C      1  0.4965920000000  0.5046410000000  0.5641910000000 1.0
C      1  0.5818820000000  0.5333200000000  0.4549000000000 1.0
C      1  0.4304820000000  0.4487290000000  0.4403230000000 1.0
C      1  0.5698750000000  0.4909260000000  0.5332160000000 1.0
C      1  0.4915530000000  0.4238330000000  0.5437450000000 1.0
C      1  0.4367540000000  0.5405970000000  0.5590920000000 1.0
C      1  0.4264640000000  0.4910220000000  0.5396150000000 1.0
C      1  0.5841430000000  0.4786240000000  0.4983280000000 1.0
C      1  0.5330970000000  0.4791280000000  0.4223230000000 1.0
C      1  0.4818590000000  0.5610620000000  0.4692820000000 1.0
C      1  0.4640140000000  0.5272230000000  0.4961480000000 1.0
C      1  0.5262270000000  0.5377640000000  0.4389840000000 1.0
C      1  0.4776640000000  0.4078440000000  0.5201100000000 1.0
C      1  0.5830160000000  0.4840540000000  0.4647830000000 1.0
C      1  0.5349450000000  0.5183510000000  0.5133200000000 1.0
C      1  0.4623950000000  0.5276050000000  0.5712320000000 1.0
C      1  0.4471970000000  0.5124320000000  0.5447540000000 1.0
C      1  0.4503730000000  0.5625500000000  0.4696890000000 1.0
C      1  0.5688190000000  0.5272790000000  0.5603770000000 1.0
C      1  0.4330470000000  0.4394340000000  0.4862930000000 1.0
C      1  0.4903720000000  0.4765380000000  0.5759420000000 1.0
C      1  0.4844700000000  0.4994820000000  0.4474580000000 1.0
C      1  0.4122480000000  0.5159400000000  0.4863460000000 1.0
C      1  0.4350510000000  0.5343870000000  0.4813630000000 1.0
C      1  0.4489350000000  0.4766350000000  0.4859520000000 1.0
C      1  0.4123910000000  0.4898440000000  0.5164470000000 1.0
C      1  0.4679370000000  0.5739120000000  0.5132460000000 1.0
C      1  0.5225170000000  0.5461000000000  0.4964070000000 1.0
C      1  0.4586480000000  0.5278280000000  0.4361440000000 1.0
C      1  0.4809330000000  0.4212430000000  0.4965720000000 1.0
C      1  0.5150620000000  0.4950920000000  0.5412220000000 1.0
C      1  0.4567180000000  0.4545600000000  0.5464410000000 1.0
C      1  0.5074500000000  0.4713260000000  0.4153590000000 1.0
C      1  0.5068420000000  0.4244610000000  0.4891950000000 1.0
C      1  0.5562060000000  0.5509950000000  0.5223630000000 1.0
C      1  0.5489880000000  0.4689540000000  0.4507380000000 1.0
C      1  0.5511330000000  0.5174800000000  0.4838520000000 1.0
C      1  0.5335320000000  0.5606080000000  0.5356290000000 1.0
C      1  0.4214970000000  0.4555090000000  0.4666410000000 1.0
C      1  0.5289370000000  0.4728030000000  0.5040800000000 1.0
C      1  0.5266070000000  0.4306800000000  0.4696700000000 1.0
C      1  0.5070220000000  0.5762390000000  0.4591600000000 1.0
C      1  0.4806980000000  0.4216510000000  0.5693400000000 1.0
C      1  0.5362680000000  0.5062350000000  0.4405490000000 1.0
C      1  0.5012650000000  0.4571310000000  0.5635760000000 1.0
C      1  0.5137170000000  0.4863910000000  0.4565170000000 1.0
C      1  0.5220620000000  0.4219960000000  0.5418990000000 1.0
C      1  0.4185110000000  0.4846010000000  0.4836130000000 1.0
C      1  0.4684500000000  0.5087410000000  0.5207000000000 1.0
C      1  0.6007270000000  0.5324040000000  0.4983110000000 1.0
C      1  0.5748910000000  0.5327310000000  0.5323720000000 1.0
C      1  0.5648260000000  0.5065220000000  0.4552660000000 1.0
C      1  0.5197020000000  0.5645440000000  0.4358510000000 1.0
C      1  0.4965150000000  0.4723070000000  0.4813980000000 1.0
C      1  0.4598130000000  0.4765500000000  0.4128570000000 1.0
C      1  0.4983760000000  0.5128050000000  0.4822230000000 1.0
C      1  0.4624730000000  0.4471210000000  0.4961290000000 1.0
C      1  0.5198800000000  0.5782260000000  0.4855560000000 1.0
C      1  0.5558920000000  0.5502900000000  0.4914140000000 1.0
END
