TITL C-2848500-1637-475 0.000160817225624654 125000 -785.390926103935 0 0 144 (C1) n - 1
REM
REM in /home/bkarasulu/work/CARBON/AIRSS/Generating-Clusters/AIREBO/with-SteepDescent/Only-C1/SD-CG-opt/Try1-1.4A-POS3A/HFTN-CG
REM
REM
REM
REM
REM
REM ./C.cell (11c1c37f851c82e70ff6c80c92926a4b)
REM
REM compiler GCC version 9.2.1 20190827 (Red Hat 9.2.1-1)
REM options -cpp -mtune=generic -march=x86-64 -g -O0 -fpre-include=/usr/include/finclude/math-vector-fortran.h
REM seed 712630002 429541283 -2086173734 512686390 -475644870 1876896138 -32884273 836462282 723989374 -178607701 1750850663 -1273011841 196560646 -179168263 608438520 -534348006 1542649252 1188610254 -1121776555 -2023095155 -460004376 -1297178252 153930491 133639373 -218561346 2034729427 -40481639 108478856 1820118095 336594866 -23937776 1326694788 -1165685715
REM
CELL 1.54180   50.00000   50.00000   50.00000   90.00000   90.00000   90.00000
LATT -1
SFAC C  
C      1  0.5138080000000  0.5743070000000  0.5546210000000 1.0
C      1  0.5733340000000  0.5716080000000  0.5118670000000 1.0
C      1  0.4846650000000  0.4407940000000  0.4969440000000 1.0
C      1  0.4397110000000  0.4478260000000  0.5640130000000 1.0
C      1  0.5539640000000  0.4292140000000  0.5467450000000 1.0
C      1  0.4539770000000  0.4121310000000  0.5245120000000 1.0
C      1  0.5334730000000  0.5755180000000  0.4896300000000 1.0
C      1  0.5033590000000  0.5067360000000  0.5360240000000 1.0
C      1  0.4822280000000  0.5032850000000  0.4499500000000 1.0
C      1  0.5281240000000  0.4280160000000  0.4670720000000 1.0
C      1  0.5001290000000  0.5041930000000  0.4788590000000 1.0
C      1  0.5638590000000  0.5864950000000  0.4453750000000 1.0
C      1  0.5198510000000  0.4861500000000  0.5203910000000 1.0
C      1  0.5494320000000  0.4805040000000  0.4816100000000 1.0
C      1  0.3894250000000  0.5187790000000  0.5254190000000 1.0
C      1  0.4575220000000  0.4595170000000  0.4290500000000 1.0
C      1  0.5270390000000  0.4976200000000  0.4466940000000 1.0
C      1  0.4242670000000  0.4949100000000  0.4162320000000 1.0
C      1  0.5921490000000  0.5293350000000  0.5063880000000 1.0
C      1  0.4368020000000  0.5544960000000  0.4233910000000 1.0
C      1  0.5877660000000  0.4711960000000  0.5374740000000 1.0
C      1  0.5592000000000  0.5640770000000  0.4705140000000 1.0
C      1  0.4549010000000  0.4262860000000  0.4477430000000 1.0
C      1  0.4316370000000  0.5143890000000  0.5713380000000 1.0
C      1  0.5769750000000  0.4481320000000  0.5477820000000 1.0
C      1  0.5610270000000  0.4749720000000  0.4506310000000 1.0
C      1  0.5058370000000  0.5647780000000  0.4729730000000 1.0
C      1  0.5090170000000  0.4116180000000  0.5506970000000 1.0
C      1  0.4698570000000  0.5539180000000  0.5712920000000 1.0
C      1  0.4568900000000  0.4130280000000  0.5546800000000 1.0
C      1  0.5223200000000  0.5251170000000  0.4064220000000 1.0
C      1  0.5082000000000  0.3971430000000  0.5055180000000 1.0
C      1  0.4290110000000  0.4949930000000  0.5217020000000 1.0
C      1  0.5108630000000  0.5905740000000  0.5101150000000 1.0
C      1  0.5103930000000  0.4664260000000  0.4290710000000 1.0
C      1  0.5848080000000  0.5127970000000  0.5518510000000 1.0
C      1  0.5538260000000  0.4447360000000  0.4650300000000 1.0
C      1  0.4233550000000  0.5479210000000  0.4516400000000 1.0
C      1  0.4330440000000  0.4748710000000  0.5728140000000 1.0
C      1  0.4157090000000  0.4910970000000  0.5527650000000 1.0
C      1  0.5287900000000  0.5217390000000  0.4850450000000 1.0
C      1  0.5579180000000  0.5063260000000  0.4376480000000 1.0
C      1  0.4619770000000  0.5225000000000  0.5602960000000 1.0
C      1  0.5934120000000  0.4457140000000  0.4734540000000 1.0
C      1  0.4840460000000  0.4304620000000  0.5439720000000 1.0
C      1  0.4199480000000  0.5277580000000  0.5229530000000 1.0
C      1  0.4785800000000  0.4119590000000  0.5074030000000 1.0
C      1  0.5724460000000  0.4881360000000  0.5132400000000 1.0
C      1  0.4309190000000  0.4685140000000  0.4157260000000 1.0
C      1  0.5889300000000  0.4593750000000  0.4526620000000 1.0
C      1  0.4759610000000  0.4992830000000  0.4190330000000 1.0
C      1  0.4744110000000  0.4999350000000  0.5006960000000 1.0
C      1  0.5484050000000  0.4763980000000  0.5342300000000 1.0
C      1  0.5694530000000  0.4376730000000  0.4930830000000 1.0
C      1  0.4842690000000  0.4704760000000  0.4127870000000 1.0
C      1  0.4829950000000  0.5674300000000  0.5429840000000 1.0
C      1  0.4578070000000  0.4080390000000  0.4734740000000 1.0
C      1  0.5546870000000  0.5391650000000  0.4459630000000 1.0
C      1  0.5240210000000  0.3981040000000  0.5276350000000 1.0
C      1  0.4351410000000  0.4258440000000  0.4823070000000 1.0
C      1  0.4684670000000  0.5403210000000  0.5340490000000 1.0
C      1  0.4589940000000  0.5618000000000  0.4959230000000 1.0
C      1  0.4699480000000  0.4425250000000  0.5724660000000 1.0
C      1  0.5206460000000  0.5180830000000  0.5592070000000 1.0
C      1  0.5465040000000  0.4599750000000  0.5044320000000 1.0
C      1  0.4563640000000  0.4537570000000  0.5021330000000 1.0
C      1  0.5118790000000  0.5670800000000  0.5860510000000 1.0
C      1  0.5091660000000  0.4543360000000  0.5162440000000 1.0
C      1  0.4931290000000  0.4247420000000  0.4370660000000 1.0
C      1  0.5222690000000  0.4417960000000  0.5450330000000 1.0
C      1  0.4395910000000  0.5609470000000  0.5621800000000 1.0
C      1  0.4932800000000  0.5596610000000  0.4314070000000 1.0
C      1  0.4607170000000  0.4841670000000  0.5275280000000 1.0
C      1  0.4848380000000  0.5353610000000  0.4536400000000 1.0
C      1  0.4855440000000  0.4689920000000  0.5706000000000 1.0
C      1  0.5687610000000  0.5066230000000  0.5732060000000 1.0
C      1  0.5343370000000  0.5478590000000  0.5061110000000 1.0
C      1  0.4326020000000  0.4317300000000  0.5124500000000 1.0
C      1  0.4840780000000  0.4947350000000  0.5924190000000 1.0
C      1  0.4837360000000  0.5849090000000  0.5171520000000 1.0
C      1  0.4359940000000  0.5225460000000  0.4704130000000 1.0
C      1  0.5151670000000  0.4878870000000  0.6031430000000 1.0
C      1  0.4888810000000  0.5502810000000  0.4952320000000 1.0
C      1  0.6003070000000  0.5010050000000  0.5247420000000 1.0
C      1  0.4485970000000  0.4724790000000  0.4781660000000 1.0
C      1  0.4891310000000  0.3975200000000  0.4780980000000 1.0
C      1  0.4732660000000  0.4712130000000  0.4568430000000 1.0
C      1  0.4682270000000  0.5449230000000  0.4156380000000 1.0
C      1  0.4315880000000  0.5896060000000  0.4873050000000 1.0
C      1  0.5140210000000  0.4589650000000  0.5682060000000 1.0
C      1  0.5685660000000  0.5250330000000  0.5272400000000 1.0
C      1  0.5479080000000  0.6084660000000  0.5275580000000 1.0
C      1  0.4284330000000  0.4499310000000  0.4693390000000 1.0
C      1  0.4263150000000  0.5388920000000  0.5526850000000 1.0
C      1  0.5215640000000  0.5662580000000  0.4216620000000 1.0
C      1  0.5553250000000  0.5510640000000  0.5818500000000 1.0
C      1  0.5129510000000  0.5253680000000  0.4373090000000 1.0
C      1  0.5680900000000  0.5657670000000  0.5596770000000 1.0
C      1  0.5337970000000  0.4817330000000  0.4174030000000 1.0
C      1  0.4877750000000  0.5252510000000  0.5149720000000 1.0
C      1  0.4536810000000  0.4927720000000  0.5855910000000 1.0
C      1  0.5199500000000  0.4541420000000  0.4839920000000 1.0
C      1  0.4486900000000  0.5172130000000  0.4182810000000 1.0
C      1  0.5327600000000  0.5474210000000  0.5566800000000 1.0
C      1  0.4931700000000  0.5470100000000  0.5891130000000 1.0
C      1  0.4850770000000  0.5827170000000  0.4550170000000 1.0
C      1  0.5237680000000  0.5960590000000  0.5354710000000 1.0
C      1  0.4582860000000  0.4512530000000  0.5357020000000 1.0
C      1  0.3872490000000  0.4996940000000  0.5425430000000 1.0
C      1  0.5459770000000  0.4978520000000  0.3727950000000 1.0
C      1  0.4616270000000  0.5948050000000  0.4973150000000 1.0
C      1  0.5844220000000  0.5537320000000  0.4912550000000 1.0
C      1  0.4291560000000  0.5738440000000  0.4660010000000 1.0
C      1  0.4809260000000  0.4395690000000  0.4651410000000 1.0
C      1  0.5018200000000  0.5204160000000  0.5843330000000 1.0
C      1  0.5446020000000  0.5074910000000  0.5106730000000 1.0
C      1  0.5546540000000  0.5525620000000  0.5311750000000 1.0
C      1  0.5088710000000  0.3971010000000  0.5770210000000 1.0
C      1  0.5082170000000  0.4114370000000  0.4580150000000 1.0
C      1  0.5654750000000  0.5270830000000  0.5922840000000 1.0
C      1  0.5571350000000  0.5087880000000  0.4714300000000 1.0
C      1  0.4771490000000  0.6051570000000  0.4716030000000 1.0
C      1  0.5676200000000  0.4097440000000  0.5056790000000 1.0
C      1  0.5299950000000  0.4763900000000  0.5827160000000 1.0
C      1  0.4057350000000  0.4533200000000  0.4545630000000 1.0
C      1  0.4803860000000  0.5206540000000  0.3951190000000 1.0
C      1  0.5510980000000  0.4069880000000  0.5283200000000 1.0
C      1  0.5347270000000  0.5010600000000  0.3969230000000 1.0
C      1  0.4574010000000  0.5677780000000  0.4466220000000 1.0
C      1  0.4295160000000  0.5094040000000  0.4436870000000 1.0
C      1  0.4420040000000  0.5004550000000  0.4904210000000 1.0
C      1  0.6137350000000  0.5088220000000  0.4529780000000 1.0
C      1  0.5073540000000  0.4750780000000  0.4628400000000 1.0
C      1  0.4436300000000  0.5469550000000  0.5176560000000 1.0
C      1  0.5458420000000  0.5668490000000  0.4329840000000 1.0
C      1  0.5574810000000  0.5943510000000  0.5046590000000 1.0
C      1  0.4795370000000  0.4374200000000  0.4163960000000 1.0
C      1  0.5433890000000  0.4942620000000  0.5629010000000 1.0
C      1  0.4776160000000  0.4955400000000  0.5513170000000 1.0
C      1  0.5248280000000  0.5439700000000  0.4607690000000 1.0
C      1  0.4211930000000  0.4280790000000  0.5702520000000 1.0
C      1  0.5890280000000  0.5089790000000  0.4596200000000 1.0
C      1  0.4589790000000  0.5447520000000  0.4694190000000 1.0
C      1  0.4196180000000  0.4631130000000  0.5145200000000 1.0
END
