TITL C-2848507-1641-295 -0.00191433675095106 125000 -750.809640620441 0 0 140 (C1) n - 1
REM
REM in /home/bkarasulu/work/CARBON/AIRSS/Generating-Clusters/AIREBO/with-SteepDescent/Only-C1/SD-CG-opt/Try1-1.4A-POS3A/HFTN-CG
REM
REM
REM
REM
REM
REM ./C.cell (11c1c37f851c82e70ff6c80c92926a4b)
REM
REM compiler GCC version 9.2.1 20190827 (Red Hat 9.2.1-1)
REM options -cpp -mtune=generic -march=x86-64 -g -O0 -fpre-include=/usr/include/finclude/math-vector-fortran.h
REM seed 1264127245 -1056090129 1889319734 1141794091 1756318534 1738595108 1307326035 1735262310 910280031 -742692645 1012237600 -403980019 -695253339 -309515236 211142225 1799542102 249042255 502484211 365113720 -1939243965 -1847612782 1391478361 -1138043052 1173310224 -1939790984 -1329324684 -1382782322 125060949 -1673758819 -1236582235 -1223397069 -875564667 39011760
REM
CELL 1.54180   50.00000   50.00000   50.00000   90.00000   90.00000   90.00000
LATT -1
SFAC C  
C      1  0.4462270000000  0.4650560000000  0.5684960000000 1.0
C      1  0.5507130000000  0.4988320000000  0.5019930000000 1.0
C      1  0.4993120000000  0.4977350000000  0.5338360000000 1.0
C      1  0.5877160000000  0.4431010000000  0.5603760000000 1.0
C      1  0.4281510000000  0.5241400000000  0.4347960000000 1.0
C      1  0.5116000000000  0.4876030000000  0.4590640000000 1.0
C      1  0.5195500000000  0.4503600000000  0.5022910000000 1.0
C      1  0.4749460000000  0.5105240000000  0.5779700000000 1.0
C      1  0.5691990000000  0.5535930000000  0.5411110000000 1.0
C      1  0.5190340000000  0.5880590000000  0.4513180000000 1.0
C      1  0.5523750000000  0.5443980000000  0.5871620000000 1.0
C      1  0.5041250000000  0.5117140000000  0.4389020000000 1.0
C      1  0.5371310000000  0.4238750000000  0.5349920000000 1.0
C      1  0.4461460000000  0.5603880000000  0.4674400000000 1.0
C      1  0.4464680000000  0.4626730000000  0.4372520000000 1.0
C      1  0.4900890000000  0.5704640000000  0.4725070000000 1.0
C      1  0.4828320000000  0.5325310000000  0.4261770000000 1.0
C      1  0.5247610000000  0.4151940000000  0.4542510000000 1.0
C      1  0.4963210000000  0.4197680000000  0.5593580000000 1.0
C      1  0.5544150000000  0.5603400000000  0.5646290000000 1.0
C      1  0.5371670000000  0.4342920000000  0.4795050000000 1.0
C      1  0.5182090000000  0.4851060000000  0.5666590000000 1.0
C      1  0.4208250000000  0.4482750000000  0.4546030000000 1.0
C      1  0.4685510000000  0.5118930000000  0.5371500000000 1.0
C      1  0.5878590000000  0.4953360000000  0.5256220000000 1.0
C      1  0.4358540000000  0.5390600000000  0.4125470000000 1.0
C      1  0.4146620000000  0.4245980000000  0.5097550000000 1.0
C      1  0.5398170000000  0.5344140000000  0.4230610000000 1.0
C      1  0.5554280000000  0.5470690000000  0.4437520000000 1.0
C      1  0.5005810000000  0.4754800000000  0.5937400000000 1.0
C      1  0.4781240000000  0.5023470000000  0.4777840000000 1.0
C      1  0.5115810000000  0.5266960000000  0.5434230000000 1.0
C      1  0.4794570000000  0.5051610000000  0.4062600000000 1.0
C      1  0.5055320000000  0.5078020000000  0.5044390000000 1.0
C      1  0.5038150000000  0.6130800000000  0.5264020000000 1.0
C      1  0.4948080000000  0.4309220000000  0.4751240000000 1.0
C      1  0.4764980000000  0.5677880000000  0.5035630000000 1.0
C      1  0.4011710000000  0.5203620000000  0.4753960000000 1.0
C      1  0.4190180000000  0.5457810000000  0.4818770000000 1.0
C      1  0.4299960000000  0.5096250000000  0.5473120000000 1.0
C      1  0.5735300000000  0.4845640000000  0.5822430000000 1.0
C      1  0.4377210000000  0.5824510000000  0.5684180000000 1.0
C      1  0.4596160000000  0.4356970000000  0.4212610000000 1.0
C      1  0.5172110000000  0.4954640000000  0.4143670000000 1.0
C      1  0.5445840000000  0.4987100000000  0.5775610000000 1.0
C      1  0.4768470000000  0.4380390000000  0.5023640000000 1.0
C      1  0.5037930000000  0.5533700000000  0.5752760000000 1.0
C      1  0.5698440000000  0.4987530000000  0.4738750000000 1.0
C      1  0.5256640000000  0.4875770000000  0.4891740000000 1.0
C      1  0.4997080000000  0.5274600000000  0.3905170000000 1.0
C      1  0.5191870000000  0.4338870000000  0.4259470000000 1.0
C      1  0.3937050000000  0.4763090000000  0.5003200000000 1.0
C      1  0.4443780000000  0.5620460000000  0.5421030000000 1.0
C      1  0.4664520000000  0.5822090000000  0.4510500000000 1.0
C      1  0.5477970000000  0.5282250000000  0.5094880000000 1.0
C      1  0.4400790000000  0.4245420000000  0.4463990000000 1.0
C      1  0.4877920000000  0.6132960000000  0.5023850000000 1.0
C      1  0.5589090000000  0.4159010000000  0.4920480000000 1.0
C      1  0.4407770000000  0.4371480000000  0.5550410000000 1.0
C      1  0.4986130000000  0.4533740000000  0.4204660000000 1.0
C      1  0.5768790000000  0.5437470000000  0.5029190000000 1.0
C      1  0.5074440000000  0.5186770000000  0.4722470000000 1.0
C      1  0.4648260000000  0.5958310000000  0.5000670000000 1.0
C      1  0.4647710000000  0.5778030000000  0.4209960000000 1.0
C      1  0.5380590000000  0.5832350000000  0.5113680000000 1.0
C      1  0.4754950000000  0.5412300000000  0.5816220000000 1.0
C      1  0.5272230000000  0.5761290000000  0.5613930000000 1.0
C      1  0.4263760000000  0.4829660000000  0.5583300000000 1.0
C      1  0.5354870000000  0.5673810000000  0.4542860000000 1.0
C      1  0.5485910000000  0.4343090000000  0.4411790000000 1.0
C      1  0.4612450000000  0.5519150000000  0.4129030000000 1.0
C      1  0.5027710000000  0.6016440000000  0.4774250000000 1.0
C      1  0.5554870000000  0.4416060000000  0.5496340000000 1.0
C      1  0.4367620000000  0.4220530000000  0.5280490000000 1.0
C      1  0.4459340000000  0.4818940000000  0.5235130000000 1.0
C      1  0.4624850000000  0.4127110000000  0.5141180000000 1.0
C      1  0.5076360000000  0.5593660000000  0.5423030000000 1.0
C      1  0.4421710000000  0.5126910000000  0.5157110000000 1.0
C      1  0.4537200000000  0.5558630000000  0.5740820000000 1.0
C      1  0.4451350000000  0.5262090000000  0.4879850000000 1.0
C      1  0.5642290000000  0.5323210000000  0.4734810000000 1.0
C      1  0.5057910000000  0.4360350000000  0.5298880000000 1.0
C      1  0.4738410000000  0.5435250000000  0.4571390000000 1.0
C      1  0.4558450000000  0.4834340000000  0.4119980000000 1.0
C      1  0.5175680000000  0.4022880000000  0.5121600000000 1.0
C      1  0.5502830000000  0.4835930000000  0.5292000000000 1.0
C      1  0.5738550000000  0.4419130000000  0.4505890000000 1.0
C      1  0.4290980000000  0.4609020000000  0.5078430000000 1.0
C      1  0.5084220000000  0.4035260000000  0.4817100000000 1.0
C      1  0.4849340000000  0.4595460000000  0.4490790000000 1.0
C      1  0.4074900000000  0.4480890000000  0.4861410000000 1.0
C      1  0.5717840000000  0.4567140000000  0.5827590000000 1.0
C      1  0.6245730000000  0.5371730000000  0.4852230000000 1.0
C      1  0.4803330000000  0.3928900000000  0.4928760000000 1.0
C      1  0.4118850000000  0.4791330000000  0.5289320000000 1.0
C      1  0.5131240000000  0.5423030000000  0.4133740000000 1.0
C      1  0.4407090000000  0.4695770000000  0.4810660000000 1.0
C      1  0.3861860000000  0.5009670000000  0.4902740000000 1.0
C      1  0.5240480000000  0.5315890000000  0.5913540000000 1.0
C      1  0.4488950000000  0.5929230000000  0.4769240000000 1.0
C      1  0.5487720000000  0.4035740000000  0.5142190000000 1.0
C      1  0.5222900000000  0.4737110000000  0.5266660000000 1.0
C      1  0.5421630000000  0.5062970000000  0.4232290000000 1.0
C      1  0.4817060000000  0.4598330000000  0.5266880000000 1.0
C      1  0.5229840000000  0.5952630000000  0.5348790000000 1.0
C      1  0.4675400000000  0.4593670000000  0.4782840000000 1.0
C      1  0.5161500000000  0.4539810000000  0.4614100000000 1.0
C      1  0.4722310000000  0.4860660000000  0.5071190000000 1.0
C      1  0.5228120000000  0.5432100000000  0.5158950000000 1.0
C      1  0.5224770000000  0.4997870000000  0.6033790000000 1.0
C      1  0.5641840000000  0.5716080000000  0.5176300000000 1.0
C      1  0.5750630000000  0.4641440000000  0.4726240000000 1.0
C      1  0.4729510000000  0.4278210000000  0.4516100000000 1.0
C      1  0.4977940000000  0.4764200000000  0.4049440000000 1.0
C      1  0.5682200000000  0.4997980000000  0.5531250000000 1.0
C      1  0.5775230000000  0.4648930000000  0.5367920000000 1.0
C      1  0.4663910000000  0.5430450000000  0.5245820000000 1.0
C      1  0.5961490000000  0.4987270000000  0.4954330000000 1.0
C      1  0.5058280000000  0.5138400000000  0.5702110000000 1.0
C      1  0.5308490000000  0.5399610000000  0.4738820000000 1.0
C      1  0.6045430000000  0.5552920000000  0.4903200000000 1.0
C      1  0.5171680000000  0.4482260000000  0.5901820000000 1.0
C      1  0.5431460000000  0.4473270000000  0.5811310000000 1.0
C      1  0.4680410000000  0.4805470000000  0.5852050000000 1.0
C      1  0.4657010000000  0.4875960000000  0.4502010000000 1.0
C      1  0.4367980000000  0.5517480000000  0.5102380000000 1.0
C      1  0.4967350000000  0.4706310000000  0.4916340000000 1.0
C      1  0.4911410000000  0.4718450000000  0.5543200000000 1.0
C      1  0.4130180000000  0.5069650000000  0.4537130000000 1.0
C      1  0.5855550000000  0.5285830000000  0.5323740000000 1.0
C      1  0.4904340000000  0.4056930000000  0.5292760000000 1.0
C      1  0.5510620000000  0.4946680000000  0.4458290000000 1.0
C      1  0.5465830000000  0.4691580000000  0.4605460000000 1.0
C      1  0.5343480000000  0.6016440000000  0.4854660000000 1.0
C      1  0.5186100000000  0.5652050000000  0.4902980000000 1.0
C      1  0.6192120000000  0.5103150000000  0.4877430000000 1.0
C      1  0.4513940000000  0.5180290000000  0.4555110000000 1.0
C      1  0.4206230000000  0.4814210000000  0.4606650000000 1.0
C      1  0.5014220000000  0.4258730000000  0.5842460000000 1.0
C      1  0.4927260000000  0.5377300000000  0.5041660000000 1.0
END
