TITL C-2848499-1157-338 -0.00100122022999983 125000 -944.128775113387 0 0 175 (C1) n - 1
REM
REM in /home/bkarasulu/work/CARBON/AIRSS/Generating-Clusters/AIREBO/with-SteepDescent/Only-C1/SD-CG-opt/Try1-1.4A-POS3A/HFTN-CG
REM
REM
REM
REM
REM
REM ./C.cell (11c1c37f851c82e70ff6c80c92926a4b)
REM
REM compiler GCC version 9.2.1 20190827 (Red Hat 9.2.1-1)
REM options -cpp -mtune=generic -march=x86-64 -g -O0 -fpre-include=/usr/include/finclude/math-vector-fortran.h
REM seed 1250541203 2124052016 1034792982 1131364341 -1644402249 609428975 -2121187841 -1865261912 -390739255 -1547300580 1378303427 -691881113 -131098297 -842873660 -659845720 36153327 632884233 2039461130 -1882482521 -2119747177 1609202875 -1712835188 870505633 1851603396 524704096 -465615961 -1957719973 -767236898 1983658536 -743065225 -1848243775 -1930612256 -1837392311
REM
CELL 1.54180   50.00000   50.00000   50.00000   90.00000   90.00000   90.00000
LATT -1
SFAC C  
C      1  0.5746920000000  0.4738280000000  0.5735540000000 1.0
C      1  0.5366630000000  0.4588120000000  0.4789120000000 1.0
C      1  0.5453170000000  0.4916710000000  0.4806150000000 1.0
C      1  0.5177780000000  0.4312880000000  0.5110030000000 1.0
C      1  0.5985860000000  0.4458850000000  0.4682310000000 1.0
C      1  0.4564680000000  0.5195590000000  0.6024830000000 1.0
C      1  0.5910080000000  0.4621910000000  0.5260600000000 1.0
C      1  0.5075740000000  0.4823670000000  0.5157540000000 1.0
C      1  0.5304440000000  0.4353020000000  0.5933330000000 1.0
C      1  0.5309310000000  0.5401650000000  0.5255500000000 1.0
C      1  0.4874370000000  0.5589840000000  0.5642570000000 1.0
C      1  0.4898580000000  0.4310150000000  0.5594610000000 1.0
C      1  0.4014820000000  0.4710150000000  0.5341340000000 1.0
C      1  0.4042940000000  0.5511070000000  0.4808310000000 1.0
C      1  0.4694270000000  0.5754480000000  0.4310430000000 1.0
C      1  0.4877600000000  0.5854580000000  0.5425310000000 1.0
C      1  0.4749910000000  0.5727980000000  0.4867940000000 1.0
C      1  0.4597320000000  0.4417080000000  0.4340190000000 1.0
C      1  0.5204170000000  0.5784090000000  0.5207510000000 1.0
C      1  0.4048310000000  0.4644610000000  0.5067470000000 1.0
C      1  0.4901740000000  0.4696580000000  0.4650730000000 1.0
C      1  0.4495300000000  0.5311080000000  0.5508470000000 1.0
C      1  0.5113740000000  0.4605270000000  0.6046460000000 1.0
C      1  0.4993890000000  0.4003020000000  0.4939770000000 1.0
C      1  0.4899900000000  0.5675830000000  0.5136910000000 1.0
C      1  0.5387010000000  0.5188480000000  0.4612620000000 1.0
C      1  0.4118700000000  0.5459190000000  0.4485450000000 1.0
C      1  0.4315030000000  0.4273550000000  0.4805430000000 1.0
C      1  0.5039400000000  0.4029950000000  0.5462850000000 1.0
C      1  0.4872200000000  0.4788870000000  0.4173060000000 1.0
C      1  0.4741430000000  0.5406710000000  0.5204210000000 1.0
C      1  0.3955460000000  0.5052880000000  0.4753840000000 1.0
C      1  0.4885170000000  0.3945160000000  0.5239330000000 1.0
C      1  0.5180820000000  0.5605500000000  0.5495890000000 1.0
C      1  0.5171830000000  0.3914350000000  0.4661700000000 1.0
C      1  0.5204010000000  0.5147820000000  0.5970290000000 1.0
C      1  0.5900120000000  0.5018880000000  0.5279480000000 1.0
C      1  0.5452870000000  0.5639360000000  0.4457550000000 1.0
C      1  0.4712070000000  0.5310780000000  0.5750380000000 1.0
C      1  0.4347400000000  0.5426940000000  0.4810430000000 1.0
C      1  0.5132310000000  0.4903860000000  0.4715730000000 1.0
C      1  0.4919510000000  0.5619880000000  0.5959030000000 1.0
C      1  0.4333370000000  0.4940840000000  0.5016540000000 1.0
C      1  0.4113410000000  0.5501830000000  0.5323370000000 1.0
C      1  0.4465880000000  0.4534530000000  0.5393250000000 1.0
C      1  0.5719160000000  0.5696150000000  0.4066860000000 1.0
C      1  0.5311520000000  0.4866760000000  0.6093190000000 1.0
C      1  0.4672020000000  0.5125140000000  0.4399450000000 1.0
C      1  0.4099480000000  0.5305000000000  0.5564840000000 1.0
C      1  0.5208830000000  0.3900640000000  0.4396490000000 1.0
C      1  0.6009160000000  0.5576220000000  0.4605060000000 1.0
C      1  0.5768180000000  0.4928840000000  0.4784920000000 1.0
C      1  0.5142090000000  0.5209290000000  0.5468990000000 1.0
C      1  0.5741380000000  0.5377370000000  0.4011730000000 1.0
C      1  0.4455050000000  0.4903880000000  0.5888750000000 1.0
C      1  0.4628660000000  0.4814690000000  0.5496450000000 1.0
C      1  0.5059510000000  0.4573060000000  0.4925460000000 1.0
C      1  0.4781240000000  0.6053700000000  0.5187780000000 1.0
C      1  0.5860930000000  0.4315910000000  0.5170820000000 1.0
C      1  0.4668820000000  0.5623460000000  0.6088020000000 1.0
C      1  0.4496680000000  0.6068910000000  0.5208250000000 1.0
C      1  0.5599970000000  0.5399520000000  0.5104800000000 1.0
C      1  0.4374950000000  0.5276100000000  0.4331480000000 1.0
C      1  0.4422890000000  0.4593400000000  0.5879330000000 1.0
C      1  0.5166970000000  0.4411850000000  0.4575890000000 1.0
C      1  0.5375290000000  0.4768530000000  0.5309460000000 1.0
C      1  0.5995510000000  0.5290810000000  0.5440980000000 1.0
C      1  0.4851290000000  0.5180880000000  0.4752520000000 1.0
C      1  0.5639660000000  0.5860710000000  0.4636000000000 1.0
C      1  0.5449070000000  0.5520960000000  0.4010400000000 1.0
C      1  0.4838650000000  0.5307980000000  0.4166110000000 1.0
C      1  0.5959380000000  0.4627350000000  0.4468570000000 1.0
C      1  0.5882830000000  0.5146500000000  0.4971820000000 1.0
C      1  0.4882400000000  0.4384550000000  0.5263200000000 1.0
C      1  0.4563040000000  0.5066210000000  0.5319380000000 1.0
C      1  0.5149500000000  0.5229590000000  0.5051170000000 1.0
C      1  0.4866850000000  0.5092360000000  0.5168420000000 1.0
C      1  0.4095050000000  0.5124040000000  0.4451900000000 1.0
C      1  0.5917810000000  0.5239490000000  0.4171800000000 1.0
C      1  0.4990940000000  0.5982260000000  0.4680500000000 1.0
C      1  0.4632910000000  0.4851510000000  0.4597570000000 1.0
C      1  0.5506470000000  0.4242250000000  0.5797610000000 1.0
C      1  0.5260500000000  0.5470860000000  0.4254850000000 1.0
C      1  0.5619470000000  0.5179410000000  0.5363300000000 1.0
C      1  0.5313020000000  0.4031060000000  0.5410870000000 1.0
C      1  0.4361620000000  0.5874790000000  0.4531670000000 1.0
C      1  0.4203000000000  0.4072060000000  0.4370660000000 1.0
C      1  0.5135520000000  0.5367450000000  0.4755360000000 1.0
C      1  0.4170860000000  0.4538820000000  0.5494890000000 1.0
C      1  0.5432520000000  0.5397230000000  0.5958490000000 1.0
C      1  0.4366350000000  0.5824420000000  0.5167170000000 1.0
C      1  0.5438830000000  0.4453260000000  0.5270590000000 1.0
C      1  0.5439760000000  0.6024440000000  0.5259120000000 1.0
C      1  0.5228530000000  0.4755470000000  0.5599310000000 1.0
C      1  0.5114540000000  0.4681220000000  0.4386000000000 1.0
C      1  0.4166780000000  0.4523060000000  0.5776260000000 1.0
C      1  0.4578120000000  0.5014450000000  0.3799520000000 1.0
C      1  0.5995630000000  0.5385610000000  0.5156430000000 1.0
C      1  0.5146790000000  0.5919120000000  0.5622810000000 1.0
C      1  0.4977870000000  0.5644700000000  0.4636550000000 1.0
C      1  0.4854560000000  0.4306450000000  0.4875160000000 1.0
C      1  0.5227920000000  0.4201180000000  0.4792720000000 1.0
C      1  0.4615120000000  0.4415050000000  0.5776810000000 1.0
C      1  0.5276050000000  0.5132750000000  0.4296010000000 1.0
C      1  0.4603260000000  0.4332720000000  0.5071290000000 1.0
C      1  0.4798450000000  0.6021670000000  0.4437860000000 1.0
C      1  0.5565570000000  0.4622930000000  0.4047860000000 1.0
C      1  0.5761620000000  0.5586650000000  0.4372140000000 1.0
C      1  0.4325440000000  0.5406740000000  0.5784450000000 1.0
C      1  0.5847960000000  0.5749700000000  0.4780870000000 1.0
C      1  0.4661350000000  0.4094920000000  0.4739730000000 1.0
C      1  0.5863490000000  0.5331230000000  0.5668730000000 1.0
C      1  0.5432640000000  0.5753090000000  0.4978380000000 1.0
C      1  0.4721380000000  0.5028650000000  0.4015600000000 1.0
C      1  0.6148030000000  0.5111640000000  0.4098440000000 1.0
C      1  0.5773370000000  0.4256630000000  0.4753650000000 1.0
C      1  0.4583650000000  0.4242070000000  0.5485690000000 1.0
C      1  0.4542180000000  0.4721760000000  0.5119650000000 1.0
C      1  0.4233890000000  0.4566410000000  0.4404450000000 1.0
C      1  0.4206090000000  0.5033960000000  0.5743680000000 1.0
C      1  0.5291800000000  0.4615080000000  0.4034750000000 1.0
C      1  0.5179480000000  0.5606860000000  0.6047240000000 1.0
C      1  0.5420490000000  0.5043460000000  0.5119980000000 1.0
C      1  0.5698020000000  0.4791610000000  0.5418610000000 1.0
C      1  0.5417940000000  0.5556460000000  0.4766290000000 1.0
C      1  0.5663250000000  0.4092670000000  0.5030420000000 1.0
C      1  0.5368160000000  0.4031320000000  0.5124620000000 1.0
C      1  0.4044520000000  0.5225060000000  0.4969990000000 1.0
C      1  0.4944840000000  0.5557500000000  0.4310990000000 1.0
C      1  0.5560000000000  0.5220690000000  0.5696830000000 1.0
C      1  0.4315720000000  0.4508270000000  0.5024130000000 1.0
C      1  0.4889090000000  0.4676090000000  0.5367600000000 1.0
C      1  0.5603860000000  0.4779560000000  0.6011050000000 1.0
C      1  0.5815040000000  0.5643650000000  0.5083190000000 1.0
C      1  0.5104060000000  0.4504290000000  0.5729840000000 1.0
C      1  0.5001920000000  0.4954660000000  0.5526670000000 1.0
C      1  0.5072260000000  0.5202950000000  0.3959100000000 1.0
C      1  0.3979490000000  0.4767890000000  0.4830170000000 1.0
C      1  0.5203120000000  0.4087190000000  0.4191450000000 1.0
C      1  0.4454460000000  0.4034080000000  0.5002600000000 1.0
C      1  0.4353270000000  0.5089490000000  0.4754780000000 1.0
C      1  0.4927900000000  0.4329910000000  0.4348390000000 1.0
C      1  0.4428490000000  0.5566730000000  0.5967190000000 1.0
C      1  0.4606630000000  0.3999240000000  0.5285090000000 1.0
C      1  0.4069420000000  0.4989340000000  0.5442120000000 1.0
C      1  0.4296090000000  0.4885210000000  0.4316210000000 1.0
C      1  0.4766270000000  0.4969000000000  0.5768140000000 1.0
C      1  0.4911210000000  0.6093010000000  0.4934140000000 1.0
C      1  0.5002770000000  0.5087810000000  0.4477460000000 1.0
C      1  0.5848350000000  0.5284310000000  0.4501630000000 1.0
C      1  0.5475560000000  0.4241470000000  0.5519770000000 1.0
C      1  0.4595970000000  0.5933800000000  0.4653460000000 1.0
C      1  0.4975560000000  0.4909630000000  0.6012140000000 1.0
C      1  0.4441550000000  0.5536430000000  0.5298740000000 1.0
C      1  0.5655540000000  0.5312140000000  0.4780640000000 1.0
C      1  0.5191310000000  0.5363810000000  0.5732490000000 1.0
C      1  0.5469280000000  0.4919510000000  0.5730020000000 1.0
C      1  0.5162400000000  0.4911970000000  0.4063340000000 1.0
C      1  0.4383700000000  0.5615870000000  0.4341060000000 1.0
C      1  0.4588710000000  0.5302820000000  0.4668230000000 1.0
C      1  0.5876740000000  0.4945350000000  0.4499800000000 1.0
C      1  0.5160900000000  0.4382320000000  0.4115790000000 1.0
C      1  0.5691830000000  0.4750770000000  0.4306700000000 1.0
C      1  0.5673290000000  0.5938000000000  0.5086620000000 1.0
C      1  0.5955220000000  0.4540250000000  0.4964320000000 1.0
C      1  0.4326280000000  0.4289010000000  0.4500980000000 1.0
C      1  0.4715010000000  0.4924830000000  0.4914470000000 1.0
C      1  0.5535860000000  0.4398480000000  0.4953840000000 1.0
C      1  0.4451380000000  0.5680200000000  0.4926300000000 1.0
C      1  0.4592070000000  0.4717450000000  0.4306660000000 1.0
C      1  0.4684070000000  0.4117650000000  0.4453950000000 1.0
C      1  0.3957790000000  0.5588430000000  0.5111630000000 1.0
C      1  0.4241150000000  0.5134870000000  0.5232390000000 1.0
C      1  0.5396710000000  0.4824320000000  0.4373080000000 1.0
C      1  0.4238840000000  0.4801830000000  0.4636580000000 1.0
END
