TITL C-2848498-1409-3 0.00137400989393152 125000 -211.484978838976 0 0 38 (C1) n - 1
REM
REM in /home/bkarasulu/work/CARBON/AIRSS/Generating-Clusters/AIREBO/with-SteepDescent/Only-C1/SD-CG-opt/Try1-1.4A-POS3A/HFTN-CG
REM
REM
REM
REM
REM
REM ./C.cell (11c1c37f851c82e70ff6c80c92926a4b)
REM
REM compiler GCC version 9.2.1 20190827 (Red Hat 9.2.1-1)
REM options -cpp -mtune=generic -march=x86-64 -g -O0 -fpre-include=/usr/include/finclude/math-vector-fortran.h
REM seed -1034008494 958577134 -1106038078 1874215715 1847563326 -1786953286 371313543 2069875816 -67305710 -1991892384 833575028 -192462965 49513976 758215845 1159542965 -1322415969 -937599096 227299028 957799370 668352806 -1798783667 -1285962976 169169007 1612078679 124746228 -463280796 1749685556 -107955587 -1952143113 496664732 -888527783 219406313 676276069
REM
CELL 1.54180   50.00000   50.00000   50.00000   90.00000   90.00000   90.00000
LATT -1
SFAC C  
C      1  0.5285690000000  0.5346990000000  0.5386010000000 1.0
C      1  0.4508650000000  0.5006220000000  0.5506990000000 1.0
C      1  0.4540480000000  0.5344320000000  0.5548090000000 1.0
C      1  0.4254900000000  0.5558660000000  0.5039770000000 1.0
C      1  0.5137430000000  0.5793430000000  0.4811720000000 1.0
C      1  0.4877220000000  0.5330000000000  0.5591780000000 1.0
C      1  0.5076210000000  0.4328730000000  0.4973530000000 1.0
C      1  0.5586970000000  0.5200640000000  0.4879990000000 1.0
C      1  0.4767600000000  0.4826010000000  0.5375050000000 1.0
C      1  0.4586090000000  0.4892800000000  0.4711880000000 1.0
C      1  0.5139220000000  0.5343370000000  0.5634570000000 1.0
C      1  0.5080210000000  0.4929210000000  0.5363660000000 1.0
C      1  0.5085080000000  0.3874470000000  0.4678070000000 1.0
C      1  0.5475210000000  0.5285160000000  0.4646400000000 1.0
C      1  0.4842820000000  0.4900180000000  0.4650930000000 1.0
C      1  0.5189080000000  0.5584660000000  0.5251820000000 1.0
C      1  0.4686970000000  0.5636340000000  0.4843040000000 1.0
C      1  0.4332660000000  0.4860070000000  0.4770070000000 1.0
C      1  0.4931730000000  0.5629070000000  0.4707490000000 1.0
C      1  0.5021930000000  0.5419350000000  0.4545560000000 1.0
C      1  0.5276810000000  0.5088880000000  0.5265430000000 1.0
C      1  0.5225950000000  0.4786510000000  0.4367940000000 1.0
C      1  0.5285540000000  0.5734710000000  0.5036050000000 1.0
C      1  0.4740560000000  0.4533590000000  0.5312900000000 1.0
C      1  0.4918050000000  0.5639360000000  0.5326960000000 1.0
C      1  0.4908170000000  0.4360390000000  0.5193700000000 1.0
C      1  0.5289360000000  0.4805430000000  0.4851090000000 1.0
C      1  0.5148040000000  0.4925820000000  0.4604220000000 1.0
C      1  0.5458790000000  0.4972340000000  0.5052310000000 1.0
C      1  0.4522910000000  0.5575980000000  0.5063030000000 1.0
C      1  0.4653600000000  0.5543800000000  0.5307850000000 1.0
C      1  0.5105740000000  0.3452490000000  0.4361580000000 1.0
C      1  0.5105980000000  0.3657600000000  0.4524790000000 1.0
C      1  0.5211870000000  0.5219930000000  0.4578800000000 1.0
C      1  0.5231870000000  0.4550650000000  0.4908730000000 1.0
C      1  0.4755680000000  0.5157690000000  0.5329120000000 1.0
C      1  0.5090500000000  0.4092530000000  0.4830940000000 1.0
C      1  0.5664450000000  0.4812590000000  0.5168140000000 1.0
END
