TITL C-2847955-7945-497 0.000882299448104594 125000 -290.510521602277 0 0 52 (C1) n - 1
REM
REM in /home/bkarasulu/work/CARBON/AIRSS/Generating-Clusters/AIREBO/with-SteepDescent/Only-C1/SD-CG-opt/Try1-1.4A-POS3A/HFTN-CG
REM
REM
REM
REM
REM
REM ./C.cell (11c1c37f851c82e70ff6c80c92926a4b)
REM
REM compiler GCC version 9.2.1 20190827 (Red Hat 9.2.1-1)
REM options -cpp -mtune=generic -march=x86-64 -g -O0 -fpre-include=/usr/include/finclude/math-vector-fortran.h
REM seed 634803503 958451381 11363722 -85094398 2081057852 -2103277160 1573657174 -661428979 1053242409 -1589462718 1869993851 -562134432 -2009158370 -1872861031 504680971 720365146 -1344451139 2028171882 181082416 -1696387482 -1363738562 336663042 1328413026 462090817 335624970 804319319 -1542150423 486834518 86429698 -2125023237 -1071515898 -405555568 -849008260
REM
CELL 1.54180   50.00000   50.00000   50.00000   90.00000   90.00000   90.00000
LATT -1
SFAC C  
C      1  0.5043860000000  0.4928210000000  0.5401510000000 1.0
C      1  0.5020880000000  0.5451180000000  0.5201090000000 1.0
C      1  0.5248980000000  0.5340570000000  0.5674690000000 1.0
C      1  0.5120110000000  0.5298000000000  0.4846900000000 1.0
C      1  0.5112520000000  0.4618020000000  0.4108330000000 1.0
C      1  0.5040140000000  0.5188070000000  0.4394540000000 1.0
C      1  0.5363100000000  0.4715850000000  0.4156340000000 1.0
C      1  0.5040520000000  0.5114700000000  0.5687200000000 1.0
C      1  0.4790770000000  0.4946640000000  0.4746650000000 1.0
C      1  0.5446000000000  0.5341670000000  0.4852440000000 1.0
C      1  0.5235680000000  0.4590030000000  0.5512330000000 1.0
C      1  0.4957870000000  0.5136930000000  0.4653170000000 1.0
C      1  0.4675780000000  0.5293160000000  0.5396370000000 1.0
C      1  0.4877890000000  0.5142640000000  0.5196390000000 1.0
C      1  0.5508820000000  0.5158740000000  0.5278650000000 1.0
C      1  0.5315880000000  0.4221420000000  0.5075250000000 1.0
C      1  0.5497900000000  0.4751430000000  0.4634270000000 1.0
C      1  0.5124580000000  0.5524860000000  0.5444520000000 1.0
C      1  0.5045990000000  0.4548650000000  0.5277270000000 1.0
C      1  0.4714180000000  0.5665410000000  0.5060310000000 1.0
C      1  0.4557640000000  0.5556920000000  0.5247410000000 1.0
C      1  0.5220930000000  0.5119460000000  0.5101950000000 1.0
C      1  0.5127760000000  0.4793390000000  0.5702160000000 1.0
C      1  0.5454770000000  0.4885510000000  0.4361260000000 1.0
C      1  0.4565200000000  0.4587950000000  0.4347930000000 1.0
C      1  0.4762920000000  0.5229930000000  0.5704300000000 1.0
C      1  0.4075470000000  0.5420530000000  0.5356490000000 1.0
C      1  0.5505270000000  0.4425960000000  0.5143440000000 1.0
C      1  0.5494500000000  0.4493150000000  0.5426040000000 1.0
C      1  0.5290090000000  0.4501690000000  0.4655760000000 1.0
C      1  0.4769400000000  0.4703430000000  0.4589350000000 1.0
C      1  0.4169910000000  0.5015060000000  0.5091450000000 1.0
C      1  0.5350610000000  0.5141160000000  0.4364770000000 1.0
C      1  0.5503660000000  0.5229080000000  0.5533640000000 1.0
C      1  0.5254940000000  0.4795720000000  0.5170200000000 1.0
C      1  0.4011740000000  0.5181620000000  0.5237390000000 1.0
C      1  0.4428600000000  0.4943010000000  0.5064280000000 1.0
C      1  0.4692170000000  0.4990290000000  0.4997240000000 1.0
C      1  0.4329600000000  0.4513150000000  0.4279790000000 1.0
C      1  0.5054390000000  0.4301540000000  0.5137600000000 1.0
C      1  0.5463350000000  0.4676380000000  0.4968430000000 1.0
C      1  0.5217240000000  0.5452470000000  0.4380550000000 1.0
C      1  0.5167080000000  0.5617940000000  0.4611730000000 1.0
C      1  0.4086780000000  0.4459030000000  0.4197290000000 1.0
C      1  0.5603970000000  0.5160400000000  0.4996430000000 1.0
C      1  0.4333000000000  0.5488230000000  0.5448470000000 1.0
C      1  0.4453910000000  0.5319060000000  0.5672210000000 1.0
C      1  0.5298210000000  0.5469910000000  0.5918770000000 1.0
C      1  0.5660620000000  0.4918520000000  0.4873520000000 1.0
C      1  0.5025740000000  0.4486720000000  0.4609170000000 1.0
C      1  0.4896660000000  0.4552690000000  0.4310320000000 1.0
C      1  0.4992390000000  0.5593910000000  0.4902450000000 1.0
END
