TITL C-2847944-5688-529 -0.000790627729881206 125000 -853.396451100886 0 0 163 (C1) n - 1
REM
REM in /home/bkarasulu/work/CARBON/AIRSS/Generating-Clusters/AIREBO/with-SteepDescent/Only-C1/SD-CG-opt/Try1-1.4A-POS3A/HFTN-CG
REM
REM
REM
REM
REM
REM ./C.cell (11c1c37f851c82e70ff6c80c92926a4b)
REM
REM compiler GCC version 9.2.1 20190827 (Red Hat 9.2.1-1)
REM options -cpp -mtune=generic -march=x86-64 -g -O0 -fpre-include=/usr/include/finclude/math-vector-fortran.h
REM seed -1628772565 -327562354 800752070 1234397015 64399128 1436592403 -1719918644 2050723449 -1544945612 30085552 1853849383 1970917896 -1630459571 44508602 -2014176223 -1135451613 -453912794 -1022191642 -1798730481 307567747 -623014621 -1957318348 -1633510689 1003123773 2020646654 1952111866 211451229 538107332 1001678893 -1738339887 536980225 -1956269935 972804728
REM
CELL 1.54180   50.00000   50.00000   50.00000   90.00000   90.00000   90.00000
LATT -1
SFAC C  
C      1  0.5235810000000  0.5197750000000  0.5156230000000 1.0
C      1  0.4773870000000  0.6065320000000  0.5374730000000 1.0
C      1  0.4334140000000  0.5749410000000  0.5286200000000 1.0
C      1  0.5056300000000  0.4597860000000  0.4526200000000 1.0
C      1  0.5454190000000  0.5333160000000  0.4565530000000 1.0
C      1  0.5142110000000  0.4879010000000  0.3998030000000 1.0
C      1  0.4118940000000  0.5087270000000  0.5490990000000 1.0
C      1  0.5209940000000  0.4868620000000  0.4644190000000 1.0
C      1  0.5819790000000  0.5641390000000  0.5531620000000 1.0
C      1  0.5003330000000  0.4655050000000  0.5687280000000 1.0
C      1  0.6114690000000  0.4934880000000  0.4810850000000 1.0
C      1  0.5002210000000  0.5146180000000  0.5547880000000 1.0
C      1  0.4781690000000  0.5298760000000  0.4482870000000 1.0
C      1  0.5412640000000  0.5116990000000  0.4898550000000 1.0
C      1  0.5755740000000  0.5656850000000  0.4845070000000 1.0
C      1  0.5668730000000  0.5862370000000  0.4963740000000 1.0
C      1  0.4329120000000  0.5851250000000  0.4757520000000 1.0
C      1  0.5148780000000  0.5632000000000  0.5131870000000 1.0
C      1  0.5114550000000  0.4421510000000  0.5466180000000 1.0
C      1  0.5597820000000  0.4916730000000  0.4102450000000 1.0
C      1  0.5240200000000  0.5039750000000  0.6001010000000 1.0
C      1  0.4969180000000  0.5377340000000  0.4997660000000 1.0
C      1  0.4468700000000  0.4296050000000  0.5401950000000 1.0
C      1  0.4806920000000  0.5803920000000  0.5502600000000 1.0
C      1  0.4668260000000  0.4632750000000  0.5473070000000 1.0
C      1  0.5456450000000  0.3947680000000  0.5466600000000 1.0
C      1  0.5060850000000  0.5686670000000  0.5416210000000 1.0
C      1  0.4864250000000  0.3911330000000  0.4681090000000 1.0
C      1  0.4878950000000  0.6020880000000  0.4733590000000 1.0
C      1  0.4725430000000  0.5147830000000  0.5432980000000 1.0
C      1  0.4934260000000  0.4656570000000  0.4149890000000 1.0
C      1  0.5479820000000  0.4082470000000  0.4518960000000 1.0
C      1  0.5578480000000  0.5166760000000  0.5601580000000 1.0
C      1  0.4028650000000  0.4670360000000  0.4573820000000 1.0
C      1  0.4370790000000  0.5574810000000  0.5544610000000 1.0
C      1  0.4859710000000  0.5499310000000  0.5912300000000 1.0
C      1  0.5176290000000  0.5870390000000  0.4437970000000 1.0
C      1  0.5794900000000  0.4954310000000  0.4442180000000 1.0
C      1  0.4799730000000  0.5744540000000  0.4598940000000 1.0
C      1  0.5670030000000  0.5328090000000  0.4828260000000 1.0
C      1  0.4998230000000  0.5210110000000  0.5855250000000 1.0
C      1  0.4204790000000  0.5934770000000  0.5028840000000 1.0
C      1  0.4697340000000  0.4450770000000  0.4612920000000 1.0
C      1  0.5091790000000  0.5139270000000  0.4787980000000 1.0
C      1  0.6066570000000  0.4804580000000  0.5112620000000 1.0
C      1  0.5173380000000  0.6035390000000  0.4736350000000 1.0
C      1  0.4114500000000  0.4850450000000  0.5737300000000 1.0
C      1  0.4022950000000  0.5455510000000  0.4785730000000 1.0
C      1  0.5117990000000  0.5339770000000  0.4514490000000 1.0
C      1  0.4613050000000  0.5060080000000  0.4042390000000 1.0
C      1  0.5423300000000  0.4906070000000  0.5755160000000 1.0
C      1  0.4370830000000  0.5387080000000  0.4838590000000 1.0
C      1  0.4432860000000  0.4840610000000  0.5498850000000 1.0
C      1  0.5457330000000  0.4763720000000  0.4852670000000 1.0
C      1  0.4222890000000  0.5130830000000  0.4671850000000 1.0
C      1  0.5860840000000  0.4642520000000  0.5579030000000 1.0
C      1  0.5151350000000  0.4925340000000  0.5249580000000 1.0
C      1  0.5805350000000  0.5028780000000  0.4916500000000 1.0
C      1  0.4195100000000  0.5666550000000  0.4603340000000 1.0
C      1  0.5170600000000  0.4687390000000  0.5018920000000 1.0
C      1  0.5167080000000  0.5390740000000  0.4181770000000 1.0
C      1  0.4174000000000  0.5071040000000  0.4200950000000 1.0
C      1  0.4709690000000  0.6103010000000  0.4928660000000 1.0
C      1  0.5601620000000  0.5169600000000  0.4311700000000 1.0
C      1  0.5822460000000  0.4278180000000  0.5337770000000 1.0
C      1  0.4579210000000  0.4125900000000  0.4957180000000 1.0
C      1  0.4698170000000  0.5411180000000  0.4794810000000 1.0
C      1  0.5470660000000  0.5542450000000  0.5099150000000 1.0
C      1  0.5087090000000  0.5620500000000  0.4644890000000 1.0
C      1  0.4195790000000  0.5595050000000  0.5032100000000 1.0
C      1  0.5441000000000  0.5658480000000  0.4463160000000 1.0
C      1  0.4242270000000  0.4359100000000  0.5155490000000 1.0
C      1  0.5359730000000  0.5646550000000  0.4795060000000 1.0
C      1  0.5669490000000  0.5058260000000  0.5289920000000 1.0
C      1  0.5422780000000  0.4670400000000  0.4190190000000 1.0
C      1  0.4592580000000  0.5732130000000  0.4835260000000 1.0
C      1  0.5620020000000  0.4455300000000  0.5631480000000 1.0
C      1  0.4306450000000  0.4976910000000  0.5229440000000 1.0
C      1  0.4694870000000  0.4756960000000  0.5788530000000 1.0
C      1  0.5200550000000  0.4442990000000  0.4167380000000 1.0
C      1  0.4836790000000  0.5256280000000  0.4001990000000 1.0
C      1  0.5551300000000  0.5647530000000  0.5533100000000 1.0
C      1  0.4193790000000  0.5272950000000  0.4388560000000 1.0
C      1  0.5942360000000  0.4882080000000  0.5390450000000 1.0
C      1  0.4105660000000  0.4634120000000  0.5170060000000 1.0
C      1  0.4887560000000  0.4757230000000  0.5294660000000 1.0
C      1  0.4558900000000  0.5068870000000  0.5717070000000 1.0
C      1  0.5152000000000  0.4302840000000  0.5782630000000 1.0
C      1  0.4984180000000  0.5649470000000  0.4261060000000 1.0
C      1  0.4316130000000  0.4805450000000  0.4636830000000 1.0
C      1  0.5439350000000  0.4246450000000  0.5087220000000 1.0
C      1  0.5335100000000  0.5909040000000  0.5009810000000 1.0
C      1  0.5391260000000  0.4543250000000  0.4503940000000 1.0
C      1  0.5659570000000  0.4127740000000  0.5547630000000 1.0
C      1  0.5272030000000  0.4191320000000  0.4279990000000 1.0
C      1  0.4783570000000  0.5012790000000  0.4860200000000 1.0
C      1  0.5307430000000  0.5815690000000  0.5581250000000 1.0
C      1  0.4361530000000  0.4725740000000  0.5873930000000 1.0
C      1  0.5221350000000  0.4900190000000  0.4327990000000 1.0
C      1  0.4785120000000  0.3948350000000  0.4945360000000 1.0
C      1  0.4772460000000  0.4159700000000  0.4464120000000 1.0
C      1  0.5072030000000  0.4225290000000  0.4939090000000 1.0
C      1  0.5552680000000  0.4437800000000  0.4873850000000 1.0
C      1  0.4646590000000  0.4883980000000  0.4655310000000 1.0
C      1  0.4936810000000  0.5079070000000  0.4274540000000 1.0
C      1  0.4625850000000  0.5858220000000  0.5149300000000 1.0
C      1  0.4338630000000  0.4781930000000  0.4975270000000 1.0
C      1  0.4866760000000  0.4242830000000  0.5723180000000 1.0
C      1  0.3934700000000  0.5119770000000  0.5241850000000 1.0
C      1  0.5478630000000  0.5455790000000  0.4192780000000 1.0
C      1  0.5482520000000  0.4016610000000  0.4852530000000 1.0
C      1  0.4712280000000  0.4430310000000  0.4273060000000 1.0
C      1  0.4547390000000  0.5100660000000  0.4335960000000 1.0
C      1  0.5854270000000  0.4440520000000  0.4470770000000 1.0
C      1  0.5687610000000  0.4515170000000  0.5242180000000 1.0
C      1  0.4343180000000  0.4294730000000  0.4898350000000 1.0
C      1  0.5738820000000  0.5342600000000  0.5160940000000 1.0
C      1  0.4647280000000  0.5433790000000  0.5417550000000 1.0
C      1  0.4757990000000  0.5565510000000  0.5185380000000 1.0
C      1  0.4692300000000  0.4420970000000  0.5861370000000 1.0
C      1  0.4633160000000  0.4651050000000  0.5006580000000 1.0
C      1  0.5412200000000  0.5373100000000  0.5388240000000 1.0
C      1  0.4644770000000  0.4372810000000  0.5148030000000 1.0
C      1  0.5384580000000  0.5306280000000  0.5846990000000 1.0
C      1  0.4830800000000  0.4821330000000  0.4428820000000 1.0
C      1  0.4903840000000  0.4625860000000  0.4818950000000 1.0
C      1  0.3923780000000  0.4859660000000  0.5055910000000 1.0
C      1  0.5917940000000  0.5162710000000  0.5580950000000 1.0
C      1  0.4646260000000  0.4951620000000  0.5165300000000 1.0
C      1  0.5248080000000  0.4281720000000  0.4668550000000 1.0
C      1  0.5664800000000  0.4792370000000  0.5117710000000 1.0
C      1  0.4417150000000  0.4488740000000  0.4708530000000 1.0
C      1  0.4435480000000  0.4478890000000  0.5667420000000 1.0
C      1  0.5944710000000  0.5341300000000  0.4628230000000 1.0
C      1  0.4629790000000  0.5270520000000  0.5981530000000 1.0
C      1  0.5673500000000  0.4303660000000  0.4652100000000 1.0
C      1  0.4327990000000  0.5529040000000  0.4394550000000 1.0
C      1  0.4362750000000  0.4820450000000  0.4300330000000 1.0
C      1  0.5171920000000  0.4883540000000  0.5562430000000 1.0
C      1  0.4660300000000  0.5584150000000  0.4343400000000 1.0
C      1  0.6010680000000  0.5084150000000  0.4566510000000 1.0
C      1  0.4682950000000  0.4792530000000  0.3965510000000 1.0
C      1  0.4968300000000  0.4044480000000  0.5207840000000 1.0
C      1  0.5677200000000  0.4700100000000  0.4600860000000 1.0
C      1  0.5027890000000  0.6186290000000  0.5340720000000 1.0
C      1  0.4921500000000  0.4913020000000  0.5988480000000 1.0
C      1  0.4974490000000  0.4452290000000  0.5171950000000 1.0
C      1  0.5119250000000  0.5165520000000  0.3931520000000 1.0
C      1  0.5075230000000  0.4064080000000  0.4488410000000 1.0
C      1  0.4306530000000  0.5278780000000  0.5628340000000 1.0
C      1  0.5350340000000  0.4577080000000  0.5746730000000 1.0
C      1  0.4662080000000  0.5620260000000  0.5701780000000 1.0
C      1  0.4775310000000  0.4159580000000  0.5458860000000 1.0
C      1  0.5250310000000  0.6024840000000  0.5319130000000 1.0
C      1  0.5284280000000  0.4033390000000  0.5271480000000 1.0
C      1  0.4455010000000  0.4549190000000  0.4185740000000 1.0
C      1  0.5917030000000  0.4659630000000  0.4838700000000 1.0
C      1  0.5181350000000  0.5571870000000  0.5821610000000 1.0
C      1  0.3991880000000  0.5159010000000  0.4916160000000 1.0
C      1  0.5916790000000  0.5407610000000  0.5409570000000 1.0
C      1  0.5403280000000  0.4400600000000  0.5375280000000 1.0
C      1  0.4142190000000  0.4693520000000  0.5458470000000 1.0
C      1  0.5145780000000  0.5412250000000  0.5544160000000 1.0
END
