TITL C-2847950-6905-235 0.00245329075035286 125000 -460.104332809767 0 0 83 (C1) n - 1
REM
REM in /home/bkarasulu/work/CARBON/AIRSS/Generating-Clusters/AIREBO/with-SteepDescent/Only-C1/SD-CG-opt/Try1-1.4A-POS3A/HFTN-CG
REM
REM
REM
REM
REM
REM ./C.cell (11c1c37f851c82e70ff6c80c92926a4b)
REM
REM compiler GCC version 9.2.1 20190827 (Red Hat 9.2.1-1)
REM options -cpp -mtune=generic -march=x86-64 -g -O0 -fpre-include=/usr/include/finclude/math-vector-fortran.h
REM seed 1030844493 -1787870819 1045878486 1799900833 223141036 12185536 -124043548 944745843 -2039711173 -864468063 -1487008053 -1061079717 -991681567 1925529112 -1386500728 -982178348 1223145358 1464920812 -2119199146 911817035 -1050860742 1904719181 -2003978813 -892518805 -2072648247 294456935 679584235 -920850803 1297472732 -1275360534 1376778399 -1982986295 -1465807949
REM
CELL 1.54180   50.00000   50.00000   50.00000   90.00000   90.00000   90.00000
LATT -1
SFAC C  
C      1  0.4829730000000  0.5877530000000  0.4803390000000 1.0
C      1  0.4607970000000  0.5357310000000  0.5049550000000 1.0
C      1  0.4631570000000  0.4811960000000  0.5082410000000 1.0
C      1  0.4499270000000  0.4989020000000  0.5316280000000 1.0
C      1  0.4978910000000  0.5100340000000  0.5281790000000 1.0
C      1  0.5053590000000  0.5815420000000  0.4967830000000 1.0
C      1  0.5755200000000  0.4541620000000  0.5249590000000 1.0
C      1  0.4396720000000  0.5034840000000  0.5697980000000 1.0
C      1  0.5334380000000  0.4674980000000  0.4706190000000 1.0
C      1  0.5707780000000  0.5232930000000  0.5335290000000 1.0
C      1  0.5377630000000  0.5491490000000  0.5528780000000 1.0
C      1  0.5196070000000  0.5304090000000  0.5653490000000 1.0
C      1  0.4331880000000  0.5232890000000  0.4546670000000 1.0
C      1  0.4202400000000  0.5382950000000  0.4817640000000 1.0
C      1  0.4825560000000  0.4750260000000  0.5678720000000 1.0
C      1  0.5187170000000  0.4793590000000  0.5520650000000 1.0
C      1  0.5108950000000  0.4972270000000  0.4111690000000 1.0
C      1  0.4780080000000  0.4940350000000  0.4510940000000 1.0
C      1  0.5505010000000  0.5130000000000  0.4882490000000 1.0
C      1  0.4716710000000  0.5071530000000  0.5706020000000 1.0
C      1  0.4891220000000  0.5325880000000  0.5599060000000 1.0
C      1  0.4552650000000  0.4285600000000  0.4903190000000 1.0
C      1  0.5671580000000  0.5341280000000  0.5055110000000 1.0
C      1  0.4762660000000  0.4796300000000  0.4204860000000 1.0
C      1  0.5210750000000  0.4400510000000  0.5215400000000 1.0
C      1  0.4981320000000  0.5490790000000  0.4572680000000 1.0
C      1  0.5248730000000  0.5197690000000  0.5181060000000 1.0
C      1  0.5747740000000  0.4704780000000  0.4459210000000 1.0
C      1  0.5627390000000  0.4589320000000  0.4693640000000 1.0
C      1  0.4220750000000  0.4679940000000  0.5177000000000 1.0
C      1  0.5084650000000  0.4534320000000  0.5721720000000 1.0
C      1  0.5298900000000  0.5507810000000  0.5232080000000 1.0
C      1  0.4941310000000  0.5268290000000  0.4735240000000 1.0
C      1  0.5235580000000  0.4614310000000  0.5005390000000 1.0
C      1  0.5320710000000  0.4499660000000  0.5479450000000 1.0
C      1  0.5177780000000  0.4587220000000  0.4443600000000 1.0
C      1  0.4987620000000  0.4797570000000  0.5260210000000 1.0
C      1  0.4550140000000  0.5165020000000  0.4386100000000 1.0
C      1  0.5802190000000  0.4871480000000  0.4915970000000 1.0
C      1  0.5040860000000  0.5667700000000  0.5209000000000 1.0
C      1  0.4780620000000  0.4547800000000  0.4707730000000 1.0
C      1  0.5516380000000  0.5629010000000  0.5003370000000 1.0
C      1  0.4393130000000  0.5520910000000  0.4975580000000 1.0
C      1  0.5654480000000  0.5416890000000  0.5535800000000 1.0
C      1  0.4460210000000  0.4566280000000  0.4747570000000 1.0
C      1  0.5476480000000  0.4998130000000  0.5336360000000 1.0
C      1  0.5505980000000  0.4971870000000  0.5882350000000 1.0
C      1  0.4680200000000  0.4960810000000  0.3997420000000 1.0
C      1  0.5663810000000  0.5465210000000  0.4738560000000 1.0
C      1  0.4900310000000  0.4531450000000  0.5429390000000 1.0
C      1  0.5229120000000  0.4912990000000  0.4359930000000 1.0
C      1  0.5780040000000  0.4573120000000  0.4967390000000 1.0
C      1  0.5251510000000  0.5580620000000  0.4579720000000 1.0
C      1  0.4188590000000  0.4569880000000  0.4921250000000 1.0
C      1  0.5724910000000  0.4991710000000  0.4455290000000 1.0
C      1  0.5290370000000  0.5743740000000  0.4817110000000 1.0
C      1  0.5081940000000  0.4899980000000  0.4669540000000 1.0
C      1  0.4681500000000  0.5254120000000  0.5341040000000 1.0
C      1  0.4563550000000  0.4889640000000  0.4768140000000 1.0
C      1  0.4571940000000  0.5545140000000  0.5500150000000 1.0
C      1  0.4926600000000  0.4735520000000  0.4931440000000 1.0
C      1  0.4179780000000  0.5104060000000  0.5543960000000 1.0
C      1  0.4974480000000  0.4154700000000  0.4676230000000 1.0
C      1  0.4174470000000  0.4995100000000  0.5228930000000 1.0
C      1  0.4972030000000  0.4411020000000  0.4536100000000 1.0
C      1  0.5797800000000  0.5085710000000  0.4715330000000 1.0
C      1  0.4830910000000  0.4162970000000  0.4922840000000 1.0
C      1  0.4527750000000  0.4753180000000  0.5568320000000 1.0
C      1  0.5191360000000  0.5143030000000  0.4863680000000 1.0
C      1  0.4790910000000  0.5703500000000  0.4588520000000 1.0
C      1  0.5486670000000  0.4834250000000  0.5038640000000 1.0
C      1  0.4601040000000  0.4327270000000  0.5202300000000 1.0
C      1  0.4700110000000  0.5191170000000  0.4846180000000 1.0
C      1  0.5474020000000  0.5124650000000  0.4409690000000 1.0
C      1  0.5570060000000  0.4678010000000  0.5403400000000 1.0
C      1  0.4863100000000  0.5603360000000  0.5404450000000 1.0
C      1  0.4107970000000  0.5118740000000  0.4966180000000 1.0
C      1  0.4564800000000  0.5189570000000  0.4103900000000 1.0
C      1  0.5331560000000  0.5033500000000  0.5641950000000 1.0
C      1  0.5474470000000  0.5398860000000  0.4522700000000 1.0
C      1  0.4498700000000  0.4592320000000  0.5292850000000 1.0
C      1  0.4929320000000  0.4260090000000  0.5229890000000 1.0
C      1  0.4255910000000  0.4999270000000  0.4731430000000 1.0
END
