TITL C-2848508-1660-433 0.00269371279367729 125000 -431.023599593243 0 0 77 (C1) n - 1
REM
REM in /home/bkarasulu/work/CARBON/AIRSS/Generating-Clusters/AIREBO/with-SteepDescent/Only-C1/SD-CG-opt/Try1-1.4A-POS3A/HFTN-CG
REM
REM
REM
REM
REM
REM ./C.cell (11c1c37f851c82e70ff6c80c92926a4b)
REM
REM compiler GCC version 9.2.1 20190827 (Red Hat 9.2.1-1)
REM options -cpp -mtune=generic -march=x86-64 -g -O0 -fpre-include=/usr/include/finclude/math-vector-fortran.h
REM seed -569749296 1791339761 1979946912 -1478003192 715424256 -1781494013 1327901407 -891722765 -1143153790 -1215012072 1671238910 -1586022228 1416818882 1756230918 -1693258586 -1243651869 1533180940 -1287252061 -1858136870 1163680684 1519567748 444667578 -1707815297 1918204410 -1649661290 -972022412 1592485593 1748425645 305452422 1932725108 -1263421054 -81448693 1388006930
REM
CELL 1.54180   50.00000   50.00000   50.00000   90.00000   90.00000   90.00000
LATT -1
SFAC C  
C      1  0.4453930000000  0.5054730000000  0.5107190000000 1.0
C      1  0.4480650000000  0.4052400000000  0.4346250000000 1.0
C      1  0.4374230000000  0.4917560000000  0.4574260000000 1.0
C      1  0.5105830000000  0.5902080000000  0.4717360000000 1.0
C      1  0.4356120000000  0.5425170000000  0.5208650000000 1.0
C      1  0.4689340000000  0.5178990000000  0.4314340000000 1.0
C      1  0.5222230000000  0.4878750000000  0.5202370000000 1.0
C      1  0.4303260000000  0.5694710000000  0.5229330000000 1.0
C      1  0.4835210000000  0.5371950000000  0.4453650000000 1.0
C      1  0.5692270000000  0.4398110000000  0.4932220000000 1.0
C      1  0.4882270000000  0.5877450000000  0.4890440000000 1.0
C      1  0.4586460000000  0.4685880000000  0.5465790000000 1.0
C      1  0.4680860000000  0.4276170000000  0.5323150000000 1.0
C      1  0.4860250000000  0.5135710000000  0.5304870000000 1.0
C      1  0.4551180000000  0.4303080000000  0.4375660000000 1.0
C      1  0.5094170000000  0.4335000000000  0.5041450000000 1.0
C      1  0.4981240000000  0.4742860000000  0.5312770000000 1.0
C      1  0.4688710000000  0.4863710000000  0.5194250000000 1.0
C      1  0.5874080000000  0.4585420000000  0.4821500000000 1.0
C      1  0.5007800000000  0.5131900000000  0.5583060000000 1.0
C      1  0.5235870000000  0.4552740000000  0.4505720000000 1.0
C      1  0.5626430000000  0.5373060000000  0.4644000000000 1.0
C      1  0.4984670000000  0.5210890000000  0.4785590000000 1.0
C      1  0.4423970000000  0.5132450000000  0.4407860000000 1.0
C      1  0.4140940000000  0.5160920000000  0.5171440000000 1.0
C      1  0.5239680000000  0.4302310000000  0.5320180000000 1.0
C      1  0.4566890000000  0.4882890000000  0.5701070000000 1.0
C      1  0.5463540000000  0.4836280000000  0.4246490000000 1.0
C      1  0.4549740000000  0.4428020000000  0.5098340000000 1.0
C      1  0.5732690000000  0.5136190000000  0.5335840000000 1.0
C      1  0.5460730000000  0.5192350000000  0.5138570000000 1.0
C      1  0.5481530000000  0.4865220000000  0.4545040000000 1.0
C      1  0.4371900000000  0.5079860000000  0.5672940000000 1.0
C      1  0.5530770000000  0.4751490000000  0.5624850000000 1.0
C      1  0.4279120000000  0.4547500000000  0.5465330000000 1.0
C      1  0.4645940000000  0.4558190000000  0.4422250000000 1.0
C      1  0.4841110000000  0.4683690000000  0.4253010000000 1.0
C      1  0.5099310000000  0.4574860000000  0.4271080000000 1.0
C      1  0.5534610000000  0.5711420000000  0.4972550000000 1.0
C      1  0.5409410000000  0.5523750000000  0.4795920000000 1.0
C      1  0.4795380000000  0.4953560000000  0.4178560000000 1.0
C      1  0.5109490000000  0.4421900000000  0.5542090000000 1.0
C      1  0.5041290000000  0.4805960000000  0.5627290000000 1.0
C      1  0.5658240000000  0.5107870000000  0.4671960000000 1.0
C      1  0.4723930000000  0.5426830000000  0.4752800000000 1.0
C      1  0.5245180000000  0.4782750000000  0.4729930000000 1.0
C      1  0.4866930000000  0.4528210000000  0.5075050000000 1.0
C      1  0.5279000000000  0.5450300000000  0.5858890000000 1.0
C      1  0.4942940000000  0.5388980000000  0.5137470000000 1.0
C      1  0.5584810000000  0.5361520000000  0.5476700000000 1.0
C      1  0.5767570000000  0.4807790000000  0.4700590000000 1.0
C      1  0.4560650000000  0.4716520000000  0.4641940000000 1.0
C      1  0.4294300000000  0.5214570000000  0.5462500000000 1.0
C      1  0.4671190000000  0.5728990000000  0.4768070000000 1.0
C      1  0.4942000000000  0.5461480000000  0.5530670000000 1.0
C      1  0.5221370000000  0.5668250000000  0.4606460000000 1.0
C      1  0.4627420000000  0.5314550000000  0.5034350000000 1.0
C      1  0.5231560000000  0.5326780000000  0.4963610000000 1.0
C      1  0.5073300000000  0.5519320000000  0.4416740000000 1.0
C      1  0.4755480000000  0.4770200000000  0.4869680000000 1.0
C      1  0.4820240000000  0.4445340000000  0.5523360000000 1.0
C      1  0.5336580000000  0.4722390000000  0.5001250000000 1.0
C      1  0.5433060000000  0.4831790000000  0.3993030000000 1.0
C      1  0.5419890000000  0.4433120000000  0.5063240000000 1.0
C      1  0.5352240000000  0.5045080000000  0.5405440000000 1.0
C      1  0.5788580000000  0.5521190000000  0.4478350000000 1.0
C      1  0.4912440000000  0.5838880000000  0.5169330000000 1.0
C      1  0.5294980000000  0.5300140000000  0.5622990000000 1.0
C      1  0.4989370000000  0.4930480000000  0.4763260000000 1.0
C      1  0.4229730000000  0.4819480000000  0.5069350000000 1.0
C      1  0.6140190000000  0.4548090000000  0.4845960000000 1.0
C      1  0.4806720000000  0.4887130000000  0.5826630000000 1.0
C      1  0.4438860000000  0.5836580000000  0.4671990000000 1.0
C      1  0.5730510000000  0.4884690000000  0.5484170000000 1.0
C      1  0.5290060000000  0.4617680000000  0.5697060000000 1.0
C      1  0.4968460000000  0.5694890000000  0.5392410000000 1.0
C      1  0.4317080000000  0.4571000000000  0.5170210000000 1.0
END
