TITL C-2848506-1665-572 -0.00336091560986048 125000 -204.87445265033 0 0 37 (C1) n - 1
REM
REM in /home/bkarasulu/work/CARBON/AIRSS/Generating-Clusters/AIREBO/with-SteepDescent/Only-C1/SD-CG-opt/Try1-1.4A-POS3A/HFTN-CG
REM
REM
REM
REM
REM
REM ./C.cell (11c1c37f851c82e70ff6c80c92926a4b)
REM
REM compiler GCC version 9.2.1 20190827 (Red Hat 9.2.1-1)
REM options -cpp -mtune=generic -march=x86-64 -g -O0 -fpre-include=/usr/include/finclude/math-vector-fortran.h
REM seed 1684730496 1110330606 -1134165056 1340080410 -578335398 1413069625 1694050441 -1427496324 -182022046 176168363 -17008376 1358314628 595665209 1703705089 -1460198023 1893394470 1928516173 609307648 -1526679669 173389210 -464446841 1432618047 -1306581437 -1272664162 2035332489 83487561 1881815877 -890029342 722699630 -300172799 -18072172 45908590 -1062334522
REM
CELL 1.54180   50.00000   50.00000   50.00000   90.00000   90.00000   90.00000
LATT -1
SFAC C  
C      1  0.4551800000000  0.4661940000000  0.5345950000000 1.0
C      1  0.4968360000000  0.5606260000000  0.5580570000000 1.0
C      1  0.4576440000000  0.5132360000000  0.5149570000000 1.0
C      1  0.4576660000000  0.5603880000000  0.4873790000000 1.0
C      1  0.4487590000000  0.4832430000000  0.5134580000000 1.0
C      1  0.5148550000000  0.5155740000000  0.5428120000000 1.0
C      1  0.4855750000000  0.5580000000000  0.4844850000000 1.0
C      1  0.5401760000000  0.4848790000000  0.5440970000000 1.0
C      1  0.5667470000000  0.5280650000000  0.4886810000000 1.0
C      1  0.4492040000000  0.4724890000000  0.4884770000000 1.0
C      1  0.5527280000000  0.4607850000000  0.5056650000000 1.0
C      1  0.4790370000000  0.4550890000000  0.5419150000000 1.0
C      1  0.5441600000000  0.5101970000000  0.5275670000000 1.0
C      1  0.5277640000000  0.4775030000000  0.4664140000000 1.0
C      1  0.5088480000000  0.4485740000000  0.5280230000000 1.0
C      1  0.4436750000000  0.5381410000000  0.4969900000000 1.0
C      1  0.4627530000000  0.4993970000000  0.4623640000000 1.0
C      1  0.5371420000000  0.4805030000000  0.4401610000000 1.0
C      1  0.5051450000000  0.4368160000000  0.5011770000000 1.0
C      1  0.5005360000000  0.4926170000000  0.4725770000000 1.0
C      1  0.5536950000000  0.5081020000000  0.5011800000000 1.0
C      1  0.5017220000000  0.4647770000000  0.5595860000000 1.0
C      1  0.5201020000000  0.4480970000000  0.4747520000000 1.0
C      1  0.4869030000000  0.5165360000000  0.5198080000000 1.0
C      1  0.4470140000000  0.5117310000000  0.4812500000000 1.0
C      1  0.4892530000000  0.5155910000000  0.4525290000000 1.0
C      1  0.5229000000000  0.5581150000000  0.4529220000000 1.0
C      1  0.5378130000000  0.4606100000000  0.5295130000000 1.0
C      1  0.4992830000000  0.5552040000000  0.5073770000000 1.0
C      1  0.4762810000000  0.4698030000000  0.4706520000000 1.0
C      1  0.5484440000000  0.4831100000000  0.4886910000000 1.0
C      1  0.4889450000000  0.4433120000000  0.4741200000000 1.0
C      1  0.4788440000000  0.5400800000000  0.4314910000000 1.0
C      1  0.5160690000000  0.4883050000000  0.5614260000000 1.0
C      1  0.4975790000000  0.5479240000000  0.4588510000000 1.0
C      1  0.5015620000000  0.5031710000000  0.4990400000000 1.0
C      1  0.4991600000000  0.5432140000000  0.5369610000000 1.0
END
