TITL C-2847950-6905-660 0.00213511878006199 125000 -399.173084963693 0 0 71 (C1) n - 1
REM
REM in /home/bkarasulu/work/CARBON/AIRSS/Generating-Clusters/AIREBO/with-SteepDescent/Only-C1/SD-CG-opt/Try1-1.4A-POS3A/HFTN-CG
REM
REM
REM
REM
REM
REM ./C.cell (11c1c37f851c82e70ff6c80c92926a4b)
REM
REM compiler GCC version 9.2.1 20190827 (Red Hat 9.2.1-1)
REM options -cpp -mtune=generic -march=x86-64 -g -O0 -fpre-include=/usr/include/finclude/math-vector-fortran.h
REM seed -1611078968 1052164854 -1439254719 1255558621 975010604 -1940180532 -276149906 -398409 -1679220791 -541248565 1947453439 -1959096684 -2135209743 401343321 1184404217 -86752621 -1433603262 -1696575444 -406387482 -28210711 -1357054093 912750402 -1684219924 -1314776832 -1986365061 583131646 897224172 2074040028 1814010065 21867734 2000787592 -780023794 1384130540
REM
CELL 1.54180   50.00000   50.00000   50.00000   90.00000   90.00000   90.00000
LATT -1
SFAC C  
C      1  0.5735270000000  0.4676090000000  0.5346160000000 1.0
C      1  0.5702480000000  0.5484030000000  0.4218960000000 1.0
C      1  0.4775470000000  0.5393150000000  0.4355480000000 1.0
C      1  0.4544040000000  0.4942020000000  0.4350570000000 1.0
C      1  0.5205750000000  0.4841890000000  0.4837510000000 1.0
C      1  0.5914750000000  0.4520100000000  0.5481050000000 1.0
C      1  0.5571090000000  0.5412220000000  0.5236270000000 1.0
C      1  0.4709190000000  0.6195420000000  0.5041760000000 1.0
C      1  0.5135210000000  0.4609570000000  0.4626660000000 1.0
C      1  0.5153620000000  0.5686050000000  0.5339570000000 1.0
C      1  0.5241120000000  0.4929010000000  0.5136720000000 1.0
C      1  0.5178690000000  0.4908300000000  0.5753140000000 1.0
C      1  0.5493050000000  0.4945120000000  0.5677010000000 1.0
C      1  0.4929890000000  0.4926190000000  0.4252090000000 1.0
C      1  0.4326500000000  0.5449700000000  0.5003970000000 1.0
C      1  0.5546950000000  0.4723820000000  0.4515150000000 1.0
C      1  0.5646530000000  0.5292860000000  0.4395280000000 1.0
C      1  0.5624120000000  0.4910160000000  0.5435650000000 1.0
C      1  0.4458290000000  0.5014170000000  0.4610600000000 1.0
C      1  0.4799770000000  0.4565320000000  0.4577560000000 1.0
C      1  0.4662020000000  0.5164870000000  0.4182280000000 1.0
C      1  0.4564760000000  0.5051850000000  0.5471150000000 1.0
C      1  0.4697290000000  0.5558720000000  0.5422810000000 1.0
C      1  0.4585970000000  0.4308190000000  0.5033380000000 1.0
C      1  0.4977930000000  0.5051230000000  0.4750090000000 1.0
C      1  0.5473280000000  0.5280380000000  0.4950050000000 1.0
C      1  0.4430900000000  0.5717170000000  0.4617200000000 1.0
C      1  0.5500500000000  0.5079710000000  0.5224640000000 1.0
C      1  0.4292940000000  0.5685390000000  0.4858730000000 1.0
C      1  0.4815880000000  0.4878030000000  0.5429270000000 1.0
C      1  0.4512710000000  0.5269860000000  0.4700350000000 1.0
C      1  0.5191750000000  0.5377480000000  0.5477190000000 1.0
C      1  0.4455760000000  0.5081030000000  0.5791900000000 1.0
C      1  0.4556200000000  0.4488650000000  0.4807640000000 1.0
C      1  0.4796530000000  0.5988910000000  0.5177440000000 1.0
C      1  0.4633340000000  0.5304070000000  0.4987870000000 1.0
C      1  0.4931110000000  0.4485790000000  0.4943410000000 1.0
C      1  0.4811600000000  0.4784970000000  0.4834530000000 1.0
C      1  0.5453020000000  0.5637400000000  0.5323700000000 1.0
C      1  0.4841170000000  0.4335550000000  0.5220120000000 1.0
C      1  0.5640000000000  0.4594330000000  0.5070060000000 1.0
C      1  0.4993000000000  0.4703060000000  0.5197700000000 1.0
C      1  0.5381790000000  0.4406330000000  0.5072940000000 1.0
C      1  0.4934510000000  0.4797380000000  0.5700240000000 1.0
C      1  0.5290500000000  0.4365220000000  0.4818720000000 1.0
C      1  0.4474090000000  0.4815250000000  0.4841390000000 1.0
C      1  0.5443110000000  0.4495210000000  0.4376190000000 1.0
C      1  0.4951820000000  0.5151260000000  0.4455810000000 1.0
C      1  0.4394890000000  0.4129170000000  0.5100350000000 1.0
C      1  0.5870300000000  0.4749850000000  0.4882850000000 1.0
C      1  0.4801510000000  0.4616830000000  0.5856950000000 1.0
C      1  0.4554480000000  0.5325700000000  0.5304800000000 1.0
C      1  0.4576050000000  0.5490040000000  0.4533450000000 1.0
C      1  0.4914980000000  0.5498700000000  0.5599720000000 1.0
C      1  0.5857510000000  0.4983070000000  0.4795080000000 1.0
C      1  0.4061340000000  0.4742670000000  0.5103780000000 1.0
C      1  0.5194770000000  0.5325820000000  0.5140700000000 1.0
C      1  0.4995850000000  0.5089790000000  0.5283930000000 1.0
C      1  0.4277960000000  0.4903090000000  0.5051840000000 1.0
C      1  0.4725420000000  0.4702490000000  0.4325510000000 1.0
C      1  0.5191010000000  0.4331070000000  0.4439780000000 1.0
C      1  0.5295690000000  0.5192850000000  0.5677490000000 1.0
C      1  0.5484430000000  0.4712900000000  0.4791890000000 1.0
C      1  0.4888080000000  0.5757940000000  0.5296650000000 1.0
C      1  0.5167190000000  0.4426730000000  0.5256980000000 1.0
C      1  0.4300020000000  0.5160450000000  0.5149800000000 1.0
C      1  0.5615050000000  0.4983860000000  0.4452030000000 1.0
C      1  0.5631040000000  0.5201110000000  0.4715850000000 1.0
C      1  0.4283230000000  0.4916210000000  0.5609370000000 1.0
C      1  0.5015240000000  0.4245230000000  0.4717900000000 1.0
C      1  0.4918660000000  0.5231960000000  0.4985310000000 1.0
END
