TITL C-2847945-6269-687 0.00166936215485534 125000 -415.63760755758 0 0 76 (C1) n - 1
REM
REM in /home/bkarasulu/work/CARBON/AIRSS/Generating-Clusters/AIREBO/with-SteepDescent/Only-C1/SD-CG-opt/Try1-1.4A-POS3A/HFTN-CG
REM
REM
REM
REM
REM
REM ./C.cell (11c1c37f851c82e70ff6c80c92926a4b)
REM
REM compiler GCC version 9.2.1 20190827 (Red Hat 9.2.1-1)
REM options -cpp -mtune=generic -march=x86-64 -g -O0 -fpre-include=/usr/include/finclude/math-vector-fortran.h
REM seed 710872863 -1628848418 -726278037 -879072489 463272456 -2000329393 823972538 1141796038 282511658 -623545512 -1303109589 -723352830 1857838096 1838609106 -1013772037 -956529393 1948065824 1647642217 1397900418 -171021882 2079750086 1269561227 450721848 33328381 -1468247472 -645304833 1839993425 1688947019 -642438874 -372821316 -1338152768 -1919950791 932729544
REM
CELL 1.54180   50.00000   50.00000   50.00000   90.00000   90.00000   90.00000
LATT -1
SFAC C  
C      1  0.4658880000000  0.4988970000000  0.4885620000000 1.0
C      1  0.5177240000000  0.4440980000000  0.5159490000000 1.0
C      1  0.4904920000000  0.5836050000000  0.5130860000000 1.0
C      1  0.4862690000000  0.4573290000000  0.5517180000000 1.0
C      1  0.5329290000000  0.4371640000000  0.5430190000000 1.0
C      1  0.5783160000000  0.5011210000000  0.5205670000000 1.0
C      1  0.5269440000000  0.4768050000000  0.5171590000000 1.0
C      1  0.5046100000000  0.4758270000000  0.5633660000000 1.0
C      1  0.4929700000000  0.5052100000000  0.5647800000000 1.0
C      1  0.4710220000000  0.4408250000000  0.5040950000000 1.0
C      1  0.4682920000000  0.5551830000000  0.5580510000000 1.0
C      1  0.5086310000000  0.4725990000000  0.4894200000000 1.0
C      1  0.4436550000000  0.4785120000000  0.4878860000000 1.0
C      1  0.5158930000000  0.4473490000000  0.4730840000000 1.0
C      1  0.4861650000000  0.4525390000000  0.4465980000000 1.0
C      1  0.5756960000000  0.4775800000000  0.4757370000000 1.0
C      1  0.4694010000000  0.4074130000000  0.4971990000000 1.0
C      1  0.5642420000000  0.4647540000000  0.4550100000000 1.0
C      1  0.5076830000000  0.5669360000000  0.5270330000000 1.0
C      1  0.5220740000000  0.5739550000000  0.4905950000000 1.0
C      1  0.5445080000000  0.5094490000000  0.4809950000000 1.0
C      1  0.4748130000000  0.5388440000000  0.4639630000000 1.0
C      1  0.5260250000000  0.5475280000000  0.5096470000000 1.0
C      1  0.4560020000000  0.4212860000000  0.4726110000000 1.0
C      1  0.4857930000000  0.5327590000000  0.5266520000000 1.0
C      1  0.5496310000000  0.5295790000000  0.5447590000000 1.0
C      1  0.4852170000000  0.5435760000000  0.4959980000000 1.0
C      1  0.4262810000000  0.4949270000000  0.4489310000000 1.0
C      1  0.5324620000000  0.4765990000000  0.5496530000000 1.0
C      1  0.4661710000000  0.4720110000000  0.4437340000000 1.0
C      1  0.4508060000000  0.5491570000000  0.5368270000000 1.0
C      1  0.4410450000000  0.4520670000000  0.5073580000000 1.0
C      1  0.4360740000000  0.4409860000000  0.4769690000000 1.0
C      1  0.5596000000000  0.5444430000000  0.4483300000000 1.0
C      1  0.4483180000000  0.4801530000000  0.5429330000000 1.0
C      1  0.4954260000000  0.4977610000000  0.4717440000000 1.0
C      1  0.4725050000000  0.5034630000000  0.5376710000000 1.0
C      1  0.4748440000000  0.5034740000000  0.4452900000000 1.0
C      1  0.5789710000000  0.5462270000000  0.4676170000000 1.0
C      1  0.4703590000000  0.5727100000000  0.4884820000000 1.0
C      1  0.5336400000000  0.5369460000000  0.4641710000000 1.0
C      1  0.4448420000000  0.5214930000000  0.5384370000000 1.0
C      1  0.5333120000000  0.4669340000000  0.4512240000000 1.0
C      1  0.5217010000000  0.5164260000000  0.4321810000000 1.0
C      1  0.5102120000000  0.4529290000000  0.4339950000000 1.0
C      1  0.5187290000000  0.5269920000000  0.5600490000000 1.0
C      1  0.5534470000000  0.5373090000000  0.5178660000000 1.0
C      1  0.4924870000000  0.5299660000000  0.4363020000000 1.0
C      1  0.4851460000000  0.4355330000000  0.4736150000000 1.0
C      1  0.5088140000000  0.5544910000000  0.4523930000000 1.0
C      1  0.5567720000000  0.4542630000000  0.5425290000000 1.0
C      1  0.5440560000000  0.5312380000000  0.4260090000000 1.0
C      1  0.4747540000000  0.5178090000000  0.5876070000000 1.0
C      1  0.5547940000000  0.4844630000000  0.5016630000000 1.0
C      1  0.4981060000000  0.5504780000000  0.5509210000000 1.0
C      1  0.4376720000000  0.4666200000000  0.4576980000000 1.0
C      1  0.5894660000000  0.5006570000000  0.4907330000000 1.0
C      1  0.4897360000000  0.4902660000000  0.5114930000000 1.0
C      1  0.5084530000000  0.5263750000000  0.4806620000000 1.0
C      1  0.4279160000000  0.4818360000000  0.5174010000000 1.0
C      1  0.5427200000000  0.5029540000000  0.5599430000000 1.0
C      1  0.5107550000000  0.5171630000000  0.5112030000000 1.0
C      1  0.5347240000000  0.4313700000000  0.4925850000000 1.0
C      1  0.5007200000000  0.5723800000000  0.4731170000000 1.0
C      1  0.5254530000000  0.4963780000000  0.4558370000000 1.0
C      1  0.4588350000000  0.4599830000000  0.5577140000000 1.0
C      1  0.5674310000000  0.4563210000000  0.5159600000000 1.0
C      1  0.4506920000000  0.5284810000000  0.4830750000000 1.0
C      1  0.5707920000000  0.5279410000000  0.4921280000000 1.0
C      1  0.4185270000000  0.5343820000000  0.5057850000000 1.0
C      1  0.4461760000000  0.5135120000000  0.4542910000000 1.0
C      1  0.4246660000000  0.5124650000000  0.5216780000000 1.0
C      1  0.5613960000000  0.4342100000000  0.4983800000000 1.0
C      1  0.4633110000000  0.5428170000000  0.5833150000000 1.0
C      1  0.4899070000000  0.4577390000000  0.5214620000000 1.0
C      1  0.4460950000000  0.5541800000000  0.5034980000000 1.0
END
