TITL C-2847954-6904-670 -0.000108039946128039 125000 -629.396047832083 0 0 116 (C1) n - 1
REM
REM in /home/bkarasulu/work/CARBON/AIRSS/Generating-Clusters/AIREBO/with-SteepDescent/Only-C1/SD-CG-opt/Try1-1.4A-POS3A/HFTN-CG
REM
REM
REM
REM
REM
REM ./C.cell (11c1c37f851c82e70ff6c80c92926a4b)
REM
REM compiler GCC version 9.2.1 20190827 (Red Hat 9.2.1-1)
REM options -cpp -mtune=generic -march=x86-64 -g -O0 -fpre-include=/usr/include/finclude/math-vector-fortran.h
REM seed 976666892 -1779349099 1430539952 1774752088 -301586641 1271392160 1476085100 1322455677 542734310 -1111032677 2127269957 1203046044 -1216586762 -1570431442 -1913832875 1000107396 -1870226455 1917412158 145974314 1037328847 693592502 1306237071 595466118 1458013076 -470677520 -2069619854 -1412133588 836178864 470293582 -6849536 33111942 891230954 1359840331
REM
CELL 1.54180   50.00000   50.00000   50.00000   90.00000   90.00000   90.00000
LATT -1
SFAC C  
C      1  0.5345920000000  0.4795090000000  0.4545950000000 1.0
C      1  0.4722950000000  0.4882360000000  0.5017510000000 1.0
C      1  0.4232960000000  0.4769010000000  0.5575670000000 1.0
C      1  0.4272950000000  0.5464460000000  0.5350360000000 1.0
C      1  0.4406420000000  0.5502370000000  0.4959440000000 1.0
C      1  0.5341140000000  0.4864690000000  0.4155760000000 1.0
C      1  0.4864330000000  0.5257250000000  0.4291090000000 1.0
C      1  0.5094290000000  0.4560760000000  0.5248660000000 1.0
C      1  0.5861750000000  0.4350880000000  0.5067060000000 1.0
C      1  0.4368340000000  0.5185870000000  0.4890350000000 1.0
C      1  0.5381140000000  0.5126590000000  0.4612990000000 1.0
C      1  0.5329210000000  0.5028000000000  0.5874980000000 1.0
C      1  0.5208400000000  0.4616930000000  0.4096650000000 1.0
C      1  0.5299460000000  0.5268390000000  0.5299500000000 1.0
C      1  0.5550950000000  0.5722380000000  0.4961290000000 1.0
C      1  0.5067600000000  0.5645870000000  0.5624700000000 1.0
C      1  0.5594210000000  0.4255130000000  0.4345450000000 1.0
C      1  0.5165140000000  0.5258010000000  0.4777680000000 1.0
C      1  0.4610550000000  0.4890620000000  0.4445840000000 1.0
C      1  0.5294960000000  0.5832990000000  0.5354580000000 1.0
C      1  0.4880760000000  0.5513680000000  0.5769560000000 1.0
C      1  0.4518160000000  0.6056420000000  0.5370400000000 1.0
C      1  0.4227440000000  0.4531190000000  0.5137450000000 1.0
C      1  0.5111880000000  0.5607400000000  0.5206000000000 1.0
C      1  0.4301090000000  0.4645690000000  0.4507910000000 1.0
C      1  0.5823080000000  0.4974230000000  0.4954170000000 1.0
C      1  0.4519270000000  0.5493090000000  0.4684330000000 1.0
C      1  0.5483500000000  0.4507770000000  0.4544270000000 1.0
C      1  0.4165850000000  0.4848490000000  0.4557340000000 1.0
C      1  0.5239580000000  0.5012200000000  0.5083980000000 1.0
C      1  0.5261210000000  0.4442800000000  0.5040420000000 1.0
C      1  0.4732750000000  0.4463140000000  0.5388400000000 1.0
C      1  0.4584410000000  0.5145340000000  0.4364470000000 1.0
C      1  0.5556100000000  0.5703000000000  0.5494230000000 1.0
C      1  0.4158750000000  0.5154460000000  0.4645950000000 1.0
C      1  0.5348630000000  0.5891940000000  0.5056750000000 1.0
C      1  0.4697470000000  0.4194520000000  0.4487020000000 1.0
C      1  0.5437470000000  0.4773630000000  0.5798350000000 1.0
C      1  0.4590100000000  0.4484830000000  0.4543180000000 1.0
C      1  0.5365910000000  0.5234970000000  0.4318710000000 1.0
C      1  0.5361290000000  0.5524510000000  0.4239610000000 1.0
C      1  0.4910420000000  0.4554680000000  0.4885580000000 1.0
C      1  0.4836400000000  0.4668270000000  0.4407990000000 1.0
C      1  0.5726320000000  0.5349680000000  0.4674080000000 1.0
C      1  0.4359430000000  0.5288890000000  0.5550620000000 1.0
C      1  0.5332240000000  0.5489780000000  0.5555600000000 1.0
C      1  0.5605150000000  0.4918250000000  0.4363580000000 1.0
C      1  0.4538940000000  0.4643800000000  0.5175170000000 1.0
C      1  0.5119170000000  0.5122330000000  0.5548160000000 1.0
C      1  0.4220460000000  0.5031050000000  0.5133550000000 1.0
C      1  0.5402960000000  0.5689420000000  0.4457020000000 1.0
C      1  0.4528790000000  0.4201660000000  0.5480370000000 1.0
C      1  0.5033380000000  0.5031820000000  0.5880370000000 1.0
C      1  0.4702680000000  0.4010670000000  0.4694370000000 1.0
C      1  0.4743250000000  0.5301910000000  0.5242430000000 1.0
C      1  0.4820640000000  0.5517550000000  0.4717880000000 1.0
C      1  0.5653760000000  0.4189300000000  0.4964620000000 1.0
C      1  0.5459930000000  0.4777800000000  0.5462820000000 1.0
C      1  0.3787230000000  0.5497620000000  0.4804940000000 1.0
C      1  0.5407760000000  0.4189170000000  0.5172750000000 1.0
C      1  0.4622220000000  0.4882970000000  0.5935710000000 1.0
C      1  0.4970870000000  0.5872560000000  0.5450020000000 1.0
C      1  0.4871060000000  0.4021640000000  0.4984040000000 1.0
C      1  0.4896360000000  0.4759420000000  0.5355180000000 1.0
C      1  0.5794330000000  0.5112230000000  0.5241960000000 1.0
C      1  0.5802910000000  0.5609930000000  0.5439790000000 1.0
C      1  0.4001610000000  0.5344340000000  0.4880610000000 1.0
C      1  0.4158010000000  0.4269330000000  0.5113010000000 1.0
C      1  0.4845870000000  0.5223100000000  0.5694250000000 1.0
C      1  0.5843990000000  0.4685060000000  0.5010220000000 1.0
C      1  0.4618600000000  0.5099430000000  0.5473670000000 1.0
C      1  0.5190750000000  0.3974770000000  0.5019410000000 1.0
C      1  0.5131480000000  0.5105510000000  0.4142610000000 1.0
C      1  0.4885930000000  0.5475600000000  0.5018370000000 1.0
C      1  0.4469860000000  0.5064740000000  0.5781320000000 1.0
C      1  0.5137020000000  0.5431380000000  0.4059210000000 1.0
C      1  0.4068520000000  0.4753120000000  0.5111650000000 1.0
C      1  0.5773580000000  0.5056940000000  0.4624350000000 1.0
C      1  0.4926090000000  0.5029250000000  0.5195190000000 1.0
C      1  0.4563340000000  0.5590040000000  0.5224880000000 1.0
C      1  0.5543170000000  0.4200790000000  0.4677800000000 1.0
C      1  0.4701090000000  0.4081560000000  0.5273290000000 1.0
C      1  0.4409530000000  0.5306540000000  0.4511550000000 1.0
C      1  0.5282210000000  0.5431740000000  0.5001460000000 1.0
C      1  0.5122090000000  0.4779220000000  0.4874940000000 1.0
C      1  0.5121640000000  0.5944540000000  0.4915050000000 1.0
C      1  0.5708760000000  0.4555280000000  0.4759990000000 1.0
C      1  0.4991170000000  0.4487280000000  0.4223880000000 1.0
C      1  0.5020740000000  0.4887950000000  0.4582750000000 1.0
C      1  0.4871100000000  0.5935880000000  0.4446080000000 1.0
C      1  0.5549720000000  0.5045550000000  0.5357620000000 1.0
C      1  0.4708860000000  0.5870680000000  0.5263040000000 1.0
C      1  0.5518670000000  0.5122930000000  0.4924120000000 1.0
C      1  0.4883090000000  0.5196300000000  0.4625230000000 1.0
C      1  0.4404930000000  0.4886800000000  0.5348170000000 1.0
C      1  0.4896710000000  0.5818180000000  0.4695730000000 1.0
C      1  0.5746770000000  0.4537330000000  0.5300870000000 1.0
C      1  0.5681410000000  0.5411110000000  0.5004480000000 1.0
C      1  0.4904720000000  0.4513420000000  0.5677510000000 1.0
C      1  0.5428840000000  0.5285610000000  0.5794670000000 1.0
C      1  0.5245200000000  0.4515190000000  0.5663930000000 1.0
C      1  0.4808420000000  0.5970190000000  0.4986170000000 1.0
C      1  0.4572450000000  0.4556000000000  0.4848360000000 1.0
C      1  0.4758120000000  0.4648770000000  0.5866950000000 1.0
C      1  0.4815710000000  0.4327240000000  0.5087930000000 1.0
C      1  0.5442900000000  0.5536510000000  0.4719950000000 1.0
C      1  0.4858560000000  0.5526050000000  0.4082840000000 1.0
C      1  0.4629130000000  0.5060290000000  0.4806160000000 1.0
C      1  0.4881260000000  0.4223000000000  0.4262050000000 1.0
C      1  0.4106830000000  0.5327170000000  0.5155640000000 1.0
C      1  0.5102220000000  0.4299700000000  0.4813140000000 1.0
C      1  0.5439980000000  0.4662510000000  0.4910090000000 1.0
C      1  0.5447510000000  0.4444640000000  0.5394110000000 1.0
C      1  0.5133250000000  0.4815160000000  0.5549490000000 1.0
C      1  0.5854300000000  0.5401140000000  0.5259600000000 1.0
C      1  0.5270280000000  0.4071790000000  0.4720000000000 1.0
END
