TITL C-2848508-1660-376 0.00127472523429437 125000 -760.401529053257 0 0 143 (C1) n - 1
REM
REM in /home/bkarasulu/work/CARBON/AIRSS/Generating-Clusters/AIREBO/with-SteepDescent/Only-C1/SD-CG-opt/Try1-1.4A-POS3A/HFTN-CG
REM
REM
REM
REM
REM
REM ./C.cell (11c1c37f851c82e70ff6c80c92926a4b)
REM
REM compiler GCC version 9.2.1 20190827 (Red Hat 9.2.1-1)
REM options -cpp -mtune=generic -march=x86-64 -g -O0 -fpre-include=/usr/include/finclude/math-vector-fortran.h
REM seed 965420696 994105094 736936434 679658243 1350841595 842608834 -416451800 1526409438 -2077211609 -304086403 2045398703 -2125372046 -1768804452 -1791211455 -146384557 -620266175 -1488498839 1724198362 528871782 1429598106 -1935187286 1992918031 2034760776 1372841699 -114034803 -467782869 -13348359 1729124564 1713861254 -1147026846 -1609371767 -315427554 703193325
REM
CELL 1.54180   50.00000   50.00000   50.00000   90.00000   90.00000   90.00000
LATT -1
SFAC C  
C      1  0.5658970000000  0.4997590000000  0.5720550000000 1.0
C      1  0.4980980000000  0.4415740000000  0.5215850000000 1.0
C      1  0.4675720000000  0.5259340000000  0.5891540000000 1.0
C      1  0.4400270000000  0.4449180000000  0.5730120000000 1.0
C      1  0.4928280000000  0.5144540000000  0.4749250000000 1.0
C      1  0.4308970000000  0.4273680000000  0.4939270000000 1.0
C      1  0.4958690000000  0.4675130000000  0.4669970000000 1.0
C      1  0.5441920000000  0.5042430000000  0.4541000000000 1.0
C      1  0.5193840000000  0.4547460000000  0.4459830000000 1.0
C      1  0.4703890000000  0.6095950000000  0.5042310000000 1.0
C      1  0.5016110000000  0.6202920000000  0.5026000000000 1.0
C      1  0.5612820000000  0.4243510000000  0.4779030000000 1.0
C      1  0.5342260000000  0.4042620000000  0.5340990000000 1.0
C      1  0.4895580000000  0.6039530000000  0.4762720000000 1.0
C      1  0.5232180000000  0.5121980000000  0.4766550000000 1.0
C      1  0.4565410000000  0.5307770000000  0.5084180000000 1.0
C      1  0.4994380000000  0.5232390000000  0.5411480000000 1.0
C      1  0.5709020000000  0.4724560000000  0.4468310000000 1.0
C      1  0.5689230000000  0.4680020000000  0.5449560000000 1.0
C      1  0.4929270000000  0.4141680000000  0.5021250000000 1.0
C      1  0.5412600000000  0.5550990000000  0.5443230000000 1.0
C      1  0.5288220000000  0.4465530000000  0.5933080000000 1.0
C      1  0.4630740000000  0.4038780000000  0.5265050000000 1.0
C      1  0.5645490000000  0.4444080000000  0.5119100000000 1.0
C      1  0.4858660000000  0.5371340000000  0.5183620000000 1.0
C      1  0.5658660000000  0.4446920000000  0.5615600000000 1.0
C      1  0.4631170000000  0.5725070000000  0.4922770000000 1.0
C      1  0.5334090000000  0.6041320000000  0.5304290000000 1.0
C      1  0.5448660000000  0.4738430000000  0.5304770000000 1.0
C      1  0.4115930000000  0.4550890000000  0.4979360000000 1.0
C      1  0.5930710000000  0.5174570000000  0.4829410000000 1.0
C      1  0.4431160000000  0.5004160000000  0.4615410000000 1.0
C      1  0.5745910000000  0.5680620000000  0.5265930000000 1.0
C      1  0.4155390000000  0.4115580000000  0.4704260000000 1.0
C      1  0.5474760000000  0.4160730000000  0.5053830000000 1.0
C      1  0.4241120000000  0.5075340000000  0.4958330000000 1.0
C      1  0.4404110000000  0.5296060000000  0.5732930000000 1.0
C      1  0.4982540000000  0.4249400000000  0.5622510000000 1.0
C      1  0.5341850000000  0.5520880000000  0.5109700000000 1.0
C      1  0.5020320000000  0.5609340000000  0.5110690000000 1.0
C      1  0.5386340000000  0.5387090000000  0.4735880000000 1.0
C      1  0.5610130000000  0.4979910000000  0.4961950000000 1.0
C      1  0.4812210000000  0.4272930000000  0.4414810000000 1.0
C      1  0.4878300000000  0.5657150000000  0.4096620000000 1.0
C      1  0.4979660000000  0.5507350000000  0.4541480000000 1.0
C      1  0.4901980000000  0.5346940000000  0.4145950000000 1.0
C      1  0.5743450000000  0.5764730000000  0.4759180000000 1.0
C      1  0.5518570000000  0.5858170000000  0.5342980000000 1.0
C      1  0.4446940000000  0.4771150000000  0.5341370000000 1.0
C      1  0.4204580000000  0.4661950000000  0.4440380000000 1.0
C      1  0.5399810000000  0.4287460000000  0.4535300000000 1.0
C      1  0.5395490000000  0.5461480000000  0.4265080000000 1.0
C      1  0.5122660000000  0.4592480000000  0.5480400000000 1.0
C      1  0.4915730000000  0.5762070000000  0.5461520000000 1.0
C      1  0.4020160000000  0.4677870000000  0.4725590000000 1.0
C      1  0.4506370000000  0.4465130000000  0.5477800000000 1.0
C      1  0.5740320000000  0.4977790000000  0.4666680000000 1.0
C      1  0.4401370000000  0.4756440000000  0.4795110000000 1.0
C      1  0.4704960000000  0.4931220000000  0.4496780000000 1.0
C      1  0.5628760000000  0.5356010000000  0.4379040000000 1.0
C      1  0.5402410000000  0.4639170000000  0.4982840000000 1.0
C      1  0.4612990000000  0.4628190000000  0.4092470000000 1.0
C      1  0.5441560000000  0.5223270000000  0.5357390000000 1.0
C      1  0.4704750000000  0.4852750000000  0.5547640000000 1.0
C      1  0.4119000000000  0.5470020000000  0.4723380000000 1.0
C      1  0.5330970000000  0.5020770000000  0.4089100000000 1.0
C      1  0.4051770000000  0.4947950000000  0.4513470000000 1.0
C      1  0.4580700000000  0.4128140000000  0.4982610000000 1.0
C      1  0.4305100000000  0.4896830000000  0.5827970000000 1.0
C      1  0.4137760000000  0.4717620000000  0.5210370000000 1.0
C      1  0.4804270000000  0.4668560000000  0.5096140000000 1.0
C      1  0.5527900000000  0.4564340000000  0.4678290000000 1.0
C      1  0.4769370000000  0.4730960000000  0.5847810000000 1.0
C      1  0.5234180000000  0.5277640000000  0.4122740000000 1.0
C      1  0.4782460000000  0.5909710000000  0.4496010000000 1.0
C      1  0.4665810000000  0.5844800000000  0.5239460000000 1.0
C      1  0.4087390000000  0.5177650000000  0.4722100000000 1.0
C      1  0.5441110000000  0.4302700000000  0.5739250000000 1.0
C      1  0.5054150000000  0.5931180000000  0.5215850000000 1.0
C      1  0.5251500000000  0.4157650000000  0.5573370000000 1.0
C      1  0.5290370000000  0.4958370000000  0.5017960000000 1.0
C      1  0.5510420000000  0.4768270000000  0.5795420000000 1.0
C      1  0.4464020000000  0.4677650000000  0.5884650000000 1.0
C      1  0.4766020000000  0.5143520000000  0.5590240000000 1.0
C      1  0.4350070000000  0.5035870000000  0.5531120000000 1.0
C      1  0.4508940000000  0.4693670000000  0.4377900000000 1.0
C      1  0.5805780000000  0.4735270000000  0.5047480000000 1.0
C      1  0.5696350000000  0.5374310000000  0.4685190000000 1.0
C      1  0.4242970000000  0.4200370000000  0.4457980000000 1.0
C      1  0.5104810000000  0.5505820000000  0.5580920000000 1.0
C      1  0.4362100000000  0.4454980000000  0.4660160000000 1.0
C      1  0.4602020000000  0.5210230000000  0.4234050000000 1.0
C      1  0.4668140000000  0.5401400000000  0.4503060000000 1.0
C      1  0.4790850000000  0.4883350000000  0.4880060000000 1.0
C      1  0.5210510000000  0.4973890000000  0.5364140000000 1.0
C      1  0.5260360000000  0.5298810000000  0.5801280000000 1.0
C      1  0.4789040000000  0.4106020000000  0.4716490000000 1.0
C      1  0.4499690000000  0.4915240000000  0.5053370000000 1.0
C      1  0.4098330000000  0.5252870000000  0.5304620000000 1.0
C      1  0.5743850000000  0.5489760000000  0.5498450000000 1.0
C      1  0.4307120000000  0.5060600000000  0.4318320000000 1.0
C      1  0.5119520000000  0.5064330000000  0.5857150000000 1.0
C      1  0.5500420000000  0.5222270000000  0.5667880000000 1.0
C      1  0.5893070000000  0.5282190000000  0.5570620000000 1.0
C      1  0.5963870000000  0.5021260000000  0.5141430000000 1.0
C      1  0.4566920000000  0.5694090000000  0.4590320000000 1.0
C      1  0.5879460000000  0.4960400000000  0.5464290000000 1.0
C      1  0.5428440000000  0.4695030000000  0.6079730000000 1.0
C      1  0.4741000000000  0.4283210000000  0.5417060000000 1.0
C      1  0.4614290000000  0.5226580000000  0.4777380000000 1.0
C      1  0.4799870000000  0.5510670000000  0.5743450000000 1.0
C      1  0.5866370000000  0.4457640000000  0.4860770000000 1.0
C      1  0.5273370000000  0.4695480000000  0.4023140000000 1.0
C      1  0.5405270000000  0.4783170000000  0.4324080000000 1.0
C      1  0.4967830000000  0.4869260000000  0.4390880000000 1.0
C      1  0.5230770000000  0.4846600000000  0.5678850000000 1.0
C      1  0.5912010000000  0.4523780000000  0.4574740000000 1.0
C      1  0.4249490000000  0.5662590000000  0.4584610000000 1.0
C      1  0.6062580000000  0.5340100000000  0.5076290000000 1.0
C      1  0.4346740000000  0.5710610000000  0.5046770000000 1.0
C      1  0.5784610000000  0.5512870000000  0.4984070000000 1.0
C      1  0.4416010000000  0.5338620000000  0.5390640000000 1.0
C      1  0.5185640000000  0.3996100000000  0.5069250000000 1.0
C      1  0.4972640000000  0.5822010000000  0.4298100000000 1.0
C      1  0.4919820000000  0.4789220000000  0.5344580000000 1.0
C      1  0.4688280000000  0.4507970000000  0.4580020000000 1.0
C      1  0.4999390000000  0.5190430000000  0.4431680000000 1.0
C      1  0.4865330000000  0.5012480000000  0.5953330000000 1.0
C      1  0.4027470000000  0.4986380000000  0.5286560000000 1.0
C      1  0.4809040000000  0.4416360000000  0.4121000000000 1.0
C      1  0.5007490000000  0.4531450000000  0.5794480000000 1.0
C      1  0.5246870000000  0.5682120000000  0.4423380000000 1.0
C      1  0.5280000000000  0.5675460000000  0.4820220000000 1.0
C      1  0.4242780000000  0.5404330000000  0.5036660000000 1.0
C      1  0.4947200000000  0.5707180000000  0.4798400000000 1.0
C      1  0.5564180000000  0.5269770000000  0.5073600000000 1.0
C      1  0.5495460000000  0.5791380000000  0.4628440000000 1.0
C      1  0.5080810000000  0.4503260000000  0.4142210000000 1.0
C      1  0.4495710000000  0.4935260000000  0.4064560000000 1.0
C      1  0.4615630000000  0.5602560000000  0.5472800000000 1.0
C      1  0.5064700000000  0.4290850000000  0.4642010000000 1.0
C      1  0.5116170000000  0.4499850000000  0.4915260000000 1.0
C      1  0.5668890000000  0.5081330000000  0.4290680000000 1.0
END
