TITL C-2847952-8118-327 -0.00205817333008937 125000 -225.643970868245 0 0 43 (C1) n - 1
REM
REM in /home/bkarasulu/work/CARBON/AIRSS/Generating-Clusters/AIREBO/with-SteepDescent/Only-C1/SD-CG-opt/Try1-1.4A-POS3A/HFTN-CG
REM
REM
REM
REM
REM
REM ./C.cell (11c1c37f851c82e70ff6c80c92926a4b)
REM
REM compiler GCC version 9.2.1 20190827 (Red Hat 9.2.1-1)
REM options -cpp -mtune=generic -march=x86-64 -g -O0 -fpre-include=/usr/include/finclude/math-vector-fortran.h
REM seed 1357921520 1727044390 1472000344 -298899793 -503809157 -1600815721 -901675067 868297430 1597230214 1521178385 -1168259418 -893169366 1355236557 -1029423885 -373948064 -575350784 -2079697864 -388273204 -558199303 629644710 819064789 -595398711 1974801223 1578287841 -1588129908 1398386215 180869770 1839171998 -452765882 -110374933 -1367453516 -1631748685 -1801935926
REM
CELL 1.54180   50.00000   50.00000   50.00000   90.00000   90.00000   90.00000
LATT -1
SFAC C  
C      1  0.5417390000000  0.4452150000000  0.5425420000000 1.0
C      1  0.5511670000000  0.5242730000000  0.5720990000000 1.0
C      1  0.4996290000000  0.5583410000000  0.4952520000000 1.0
C      1  0.5544040000000  0.5442580000000  0.5271510000000 1.0
C      1  0.4515810000000  0.4445300000000  0.4609480000000 1.0
C      1  0.4909070000000  0.5030590000000  0.4730010000000 1.0
C      1  0.5144130000000  0.5340660000000  0.4579850000000 1.0
C      1  0.4481060000000  0.4956060000000  0.4600380000000 1.0
C      1  0.4582900000000  0.5134050000000  0.5178140000000 1.0
C      1  0.4923490000000  0.4476150000000  0.5424000000000 1.0
C      1  0.5574850000000  0.4562330000000  0.4758700000000 1.0
C      1  0.5187210000000  0.4579120000000  0.5377420000000 1.0
C      1  0.5073430000000  0.5144630000000  0.5187560000000 1.0
C      1  0.4310560000000  0.5088730000000  0.5379720000000 1.0
C      1  0.4820210000000  0.4752340000000  0.4860660000000 1.0
C      1  0.4821110000000  0.4918410000000  0.5157350000000 1.0
C      1  0.4590660000000  0.5335280000000  0.4955540000000 1.0
C      1  0.5223710000000  0.5000830000000  0.4772860000000 1.0
C      1  0.5401760000000  0.5345400000000  0.5493040000000 1.0
C      1  0.5480340000000  0.5395770000000  0.5009460000000 1.0
C      1  0.5108200000000  0.5327030000000  0.5435310000000 1.0
C      1  0.5694230000000  0.4867440000000  0.4640740000000 1.0
C      1  0.4652130000000  0.5210300000000  0.4692160000000 1.0
C      1  0.4072230000000  0.5152620000000  0.5496910000000 1.0
C      1  0.5561070000000  0.5087450000000  0.4555340000000 1.0
C      1  0.5182510000000  0.5306510000000  0.4916010000000 1.0
C      1  0.5087730000000  0.4760420000000  0.4384850000000 1.0
C      1  0.4357230000000  0.4684470000000  0.5013030000000 1.0
C      1  0.4340200000000  0.4818890000000  0.5216570000000 1.0
C      1  0.5888580000000  0.4643500000000  0.4757670000000 1.0
C      1  0.5234780000000  0.4225020000000  0.4802230000000 1.0
C      1  0.4725320000000  0.5568310000000  0.4994960000000 1.0
C      1  0.4800470000000  0.5372330000000  0.5570750000000 1.0
C      1  0.5142790000000  0.4832830000000  0.5287920000000 1.0
C      1  0.4582440000000  0.5244290000000  0.5487150000000 1.0
C      1  0.4964140000000  0.5628050000000  0.5509840000000 1.0
C      1  0.4535580000000  0.4680600000000  0.4760660000000 1.0
C      1  0.4725630000000  0.4664560000000  0.5362490000000 1.0
C      1  0.5315880000000  0.4484130000000  0.4763800000000 1.0
C      1  0.5110670000000  0.4690470000000  0.4699600000000 1.0
C      1  0.5204370000000  0.4979850000000  0.4264210000000 1.0
C      1  0.5325450000000  0.5179160000000  0.4429700000000 1.0
C      1  0.4878670000000  0.5365230000000  0.4513470000000 1.0
END
