TITL C-2848497-6229-562 0.000276351070641417 125000 -979.848172686794 0 0 182 (C1) n - 1
REM
REM in /home/bkarasulu/work/CARBON/AIRSS/Generating-Clusters/AIREBO/with-SteepDescent/Only-C1/SD-CG-opt/Try1-1.4A-POS3A/HFTN-CG
REM
REM
REM
REM
REM
REM ./C.cell (11c1c37f851c82e70ff6c80c92926a4b)
REM
REM compiler GCC version 9.2.1 20190827 (Red Hat 9.2.1-1)
REM options -cpp -mtune=generic -march=x86-64 -g -O0 -fpre-include=/usr/include/finclude/math-vector-fortran.h
REM seed 748162772 393531148 1081446527 1771648664 -216459481 -2145111925 262373999 -127941318 559342886 -725170982 1139011922 1144327002 -1387022264 1271498017 273190765 -1247813981 1422090799 -1534661599 -48864970 -960062297 799093790 -345422110 531569690 316145199 1086460745 280268242 -2078972174 1883408390 1843838284 853904065 -1658269225 1537550372 96195744
REM
CELL 1.54180   50.00000   50.00000   50.00000   90.00000   90.00000   90.00000
LATT -1
SFAC C  
C      1  0.5018690000000  0.4901720000000  0.6141310000000 1.0
C      1  0.3998030000000  0.5024950000000  0.4903560000000 1.0
C      1  0.4793190000000  0.3987320000000  0.4464170000000 1.0
C      1  0.4039210000000  0.5440680000000  0.4404110000000 1.0
C      1  0.4983300000000  0.5668630000000  0.5211800000000 1.0
C      1  0.4702160000000  0.5073070000000  0.5011670000000 1.0
C      1  0.4385000000000  0.5826970000000  0.4956010000000 1.0
C      1  0.4796100000000  0.4858730000000  0.5905300000000 1.0
C      1  0.4594040000000  0.4340120000000  0.4166430000000 1.0
C      1  0.4701210000000  0.5924130000000  0.5512230000000 1.0
C      1  0.5460560000000  0.4683070000000  0.4061730000000 1.0
C      1  0.5530250000000  0.4378410000000  0.5732500000000 1.0
C      1  0.5605700000000  0.4697750000000  0.5434410000000 1.0
C      1  0.4345440000000  0.5498200000000  0.5723470000000 1.0
C      1  0.5060440000000  0.5613500000000  0.4220370000000 1.0
C      1  0.4629400000000  0.4578780000000  0.4482210000000 1.0
C      1  0.5061440000000  0.4472260000000  0.4297110000000 1.0
C      1  0.5246770000000  0.4488010000000  0.5114070000000 1.0
C      1  0.4785220000000  0.4284000000000  0.5651280000000 1.0
C      1  0.4573930000000  0.5206960000000  0.4186050000000 1.0
C      1  0.5572100000000  0.5333410000000  0.4808850000000 1.0
C      1  0.5090480000000  0.4793850000000  0.5763080000000 1.0
C      1  0.4929050000000  0.5601420000000  0.5531290000000 1.0
C      1  0.5714170000000  0.4776200000000  0.4467930000000 1.0
C      1  0.6138850000000  0.4895050000000  0.5445380000000 1.0
C      1  0.4892370000000  0.4674270000000  0.3901800000000 1.0
C      1  0.5969740000000  0.4799180000000  0.5011280000000 1.0
C      1  0.5889660000000  0.4789470000000  0.5597520000000 1.0
C      1  0.5451350000000  0.5301180000000  0.5580760000000 1.0
C      1  0.5558620000000  0.3833580000000  0.5213950000000 1.0
C      1  0.4222380000000  0.4379900000000  0.4740190000000 1.0
C      1  0.4942590000000  0.5000300000000  0.5211750000000 1.0
C      1  0.5012320000000  0.5069080000000  0.5599210000000 1.0
C      1  0.5267060000000  0.5734970000000  0.5698180000000 1.0
C      1  0.4220120000000  0.5608800000000  0.4266830000000 1.0
C      1  0.5365690000000  0.5384620000000  0.4084500000000 1.0
C      1  0.4904860000000  0.6051230000000  0.5277500000000 1.0
C      1  0.4573920000000  0.4145090000000  0.4390710000000 1.0
C      1  0.4699680000000  0.5544120000000  0.4841310000000 1.0
C      1  0.4855490000000  0.5404160000000  0.4392930000000 1.0
C      1  0.4086600000000  0.4802600000000  0.4765790000000 1.0
C      1  0.4077890000000  0.5007580000000  0.5233650000000 1.0
C      1  0.4989820000000  0.5465560000000  0.3974710000000 1.0
C      1  0.5856880000000  0.4574770000000  0.5240490000000 1.0
C      1  0.4237570000000  0.5690700000000  0.5567330000000 1.0
C      1  0.4383490000000  0.4957170000000  0.4984100000000 1.0
C      1  0.5875790000000  0.4384770000000  0.4747340000000 1.0
C      1  0.5284470000000  0.4033840000000  0.5233420000000 1.0
C      1  0.5798820000000  0.5151660000000  0.4933090000000 1.0
C      1  0.4994290000000  0.5906800000000  0.4318310000000 1.0
C      1  0.5192440000000  0.4795620000000  0.3890520000000 1.0
C      1  0.5225510000000  0.5359870000000  0.5143500000000 1.0
C      1  0.4735050000000  0.4679690000000  0.5622740000000 1.0
C      1  0.5210760000000  0.5092010000000  0.5344260000000 1.0
C      1  0.4351690000000  0.4544800000000  0.4288910000000 1.0
C      1  0.5055740000000  0.4565540000000  0.5528280000000 1.0
C      1  0.4298610000000  0.4624900000000  0.4963520000000 1.0
C      1  0.5008310000000  0.4047780000000  0.5431310000000 1.0
C      1  0.5516490000000  0.5523470000000  0.5078480000000 1.0
C      1  0.4478660000000  0.4510060000000  0.5767690000000 1.0
C      1  0.4746810000000  0.4014710000000  0.5308160000000 1.0
C      1  0.4875530000000  0.5193050000000  0.4019950000000 1.0
C      1  0.4668240000000  0.4840780000000  0.5330870000000 1.0
C      1  0.5755630000000  0.5764500000000  0.5059900000000 1.0
C      1  0.5135560000000  0.4923910000000  0.4976880000000 1.0
C      1  0.4959980000000  0.4741300000000  0.4776130000000 1.0
C      1  0.4976150000000  0.5876360000000  0.5709910000000 1.0
C      1  0.5362100000000  0.5613670000000  0.5990720000000 1.0
C      1  0.5799140000000  0.5509850000000  0.4627180000000 1.0
C      1  0.5417930000000  0.5908360000000  0.4670610000000 1.0
C      1  0.5932270000000  0.5028200000000  0.4686440000000 1.0
C      1  0.5268690000000  0.5173710000000  0.4862210000000 1.0
C      1  0.5181010000000  0.3933420000000  0.4812780000000 1.0
C      1  0.5871160000000  0.5415840000000  0.5431190000000 1.0
C      1  0.5197430000000  0.4764550000000  0.4231030000000 1.0
C      1  0.5673520000000  0.4114630000000  0.5273800000000 1.0
C      1  0.5594060000000  0.4329400000000  0.4361660000000 1.0
C      1  0.5497420000000  0.5883060000000  0.5496580000000 1.0
C      1  0.5798930000000  0.4501720000000  0.5723410000000 1.0
C      1  0.5264980000000  0.5351330000000  0.5809280000000 1.0
C      1  0.4921130000000  0.4451750000000  0.4602160000000 1.0
C      1  0.5409130000000  0.4488710000000  0.4561800000000 1.0
C      1  0.5528170000000  0.4639140000000  0.5993470000000 1.0
C      1  0.5986730000000  0.5305830000000  0.5158360000000 1.0
C      1  0.4708590000000  0.5897860000000  0.4880700000000 1.0
C      1  0.5208330000000  0.5012370000000  0.4463810000000 1.0
C      1  0.4867250000000  0.5658960000000  0.4604590000000 1.0
C      1  0.5497250000000  0.3951440000000  0.4794260000000 1.0
C      1  0.5563120000000  0.5707190000000  0.4522000000000 1.0
C      1  0.4446990000000  0.5116230000000  0.3883960000000 1.0
C      1  0.3993700000000  0.4717990000000  0.5311430000000 1.0
C      1  0.5105210000000  0.4263470000000  0.5676460000000 1.0
C      1  0.4948420000000  0.4423140000000  0.5142720000000 1.0
C      1  0.5402950000000  0.4222630000000  0.4976430000000 1.0
C      1  0.4121110000000  0.4786460000000  0.5852890000000 1.0
C      1  0.5791300000000  0.5010950000000  0.5776440000000 1.0
C      1  0.4053600000000  0.5215050000000  0.5470600000000 1.0
C      1  0.4582790000000  0.5085220000000  0.5932340000000 1.0
C      1  0.4906880000000  0.4866570000000  0.4482780000000 1.0
C      1  0.5198460000000  0.5878390000000  0.5334510000000 1.0
C      1  0.5294330000000  0.5319370000000  0.6128450000000 1.0
C      1  0.4400970000000  0.4434390000000  0.5228440000000 1.0
C      1  0.4583400000000  0.4248840000000  0.5849500000000 1.0
C      1  0.4274670000000  0.5003260000000  0.5882980000000 1.0
C      1  0.4973050000000  0.5370180000000  0.5726520000000 1.0
C      1  0.4354400000000  0.5185400000000  0.5619900000000 1.0
C      1  0.4597040000000  0.5320790000000  0.5195330000000 1.0
C      1  0.5020680000000  0.4128450000000  0.5040540000000 1.0
C      1  0.4037310000000  0.4465850000000  0.4557280000000 1.0
C      1  0.5250730000000  0.4511090000000  0.5863970000000 1.0
C      1  0.3878030000000  0.5413820000000  0.5431210000000 1.0
C      1  0.4704170000000  0.4906670000000  0.3958550000000 1.0
C      1  0.5336650000000  0.5519730000000  0.4395150000000 1.0
C      1  0.5099230000000  0.4064730000000  0.4512860000000 1.0
C      1  0.5302220000000  0.5550770000000  0.5414400000000 1.0
C      1  0.4703510000000  0.5793240000000  0.4234950000000 1.0
C      1  0.5512090000000  0.5109720000000  0.4123760000000 1.0
C      1  0.5466700000000  0.5230020000000  0.4502420000000 1.0
C      1  0.5919230000000  0.5534240000000  0.4923320000000 1.0
C      1  0.5193420000000  0.5101570000000  0.4005350000000 1.0
C      1  0.5518710000000  0.5024120000000  0.5394980000000 1.0
C      1  0.5121660000000  0.5988370000000  0.4626090000000 1.0
C      1  0.4735860000000  0.5364830000000  0.5923750000000 1.0
C      1  0.5707500000000  0.5066790000000  0.4358460000000 1.0
C      1  0.4708700000000  0.4281750000000  0.4814430000000 1.0
C      1  0.5174600000000  0.5100700000000  0.6244150000000 1.0
C      1  0.4655780000000  0.4801600000000  0.4259150000000 1.0
C      1  0.4406060000000  0.5057070000000  0.5308370000000 1.0
C      1  0.5935940000000  0.4690800000000  0.4711320000000 1.0
C      1  0.4397730000000  0.5549140000000  0.5126430000000 1.0
C      1  0.5483850000000  0.5911260000000  0.4970370000000 1.0
C      1  0.6105830000000  0.5012090000000  0.5194480000000 1.0
C      1  0.4134510000000  0.4756690000000  0.4442480000000 1.0
C      1  0.4436650000000  0.4239250000000  0.4633960000000 1.0
C      1  0.5443530000000  0.4236840000000  0.5465270000000 1.0
C      1  0.4898000000000  0.5413420000000  0.5066470000000 1.0
C      1  0.5214140000000  0.4316990000000  0.4709840000000 1.0
C      1  0.5750580000000  0.5246360000000  0.5632980000000 1.0
C      1  0.5339520000000  0.4702630000000  0.4892220000000 1.0
C      1  0.4589240000000  0.4600290000000  0.4813420000000 1.0
C      1  0.5928800000000  0.5261880000000  0.4479310000000 1.0
C      1  0.5008440000000  0.5993090000000  0.4962500000000 1.0
C      1  0.5714370000000  0.4348390000000  0.5030260000000 1.0
C      1  0.4560620000000  0.5576500000000  0.5882230000000 1.0
C      1  0.4427700000000  0.5803500000000  0.5350930000000 1.0
C      1  0.5276910000000  0.4231070000000  0.4292960000000 1.0
C      1  0.4264800000000  0.5698690000000  0.4717700000000 1.0
C      1  0.4438450000000  0.5428100000000  0.4656410000000 1.0
C      1  0.3993110000000  0.5418520000000  0.4971970000000 1.0
C      1  0.3956910000000  0.5270170000000  0.4689260000000 1.0
C      1  0.4223630000000  0.4579300000000  0.5691010000000 1.0
C      1  0.5415350000000  0.4792370000000  0.4605100000000 1.0
C      1  0.5076710000000  0.5277140000000  0.4632260000000 1.0
C      1  0.5796220000000  0.4203890000000  0.4544570000000 1.0
C      1  0.5594310000000  0.4666610000000  0.5036020000000 1.0
C      1  0.5657730000000  0.4879140000000  0.5992050000000 1.0
C      1  0.4785620000000  0.5986510000000  0.4573630000000 1.0
C      1  0.4300920000000  0.5283440000000  0.4931810000000 1.0
C      1  0.4785830000000  0.4670680000000  0.5060580000000 1.0
C      1  0.5200010000000  0.5735390000000  0.4957890000000 1.0
C      1  0.4688460000000  0.5118940000000  0.5613740000000 1.0
C      1  0.5715360000000  0.3951710000000  0.4641640000000 1.0
C      1  0.4696890000000  0.5119810000000  0.4490920000000 1.0
C      1  0.4591690000000  0.4176000000000  0.5116050000000 1.0
C      1  0.4611060000000  0.4930560000000  0.4735220000000 1.0
C      1  0.4840720000000  0.3968660000000  0.4800350000000 1.0
C      1  0.4575730000000  0.6041720000000  0.5158660000000 1.0
C      1  0.5677640000000  0.4590260000000  0.4208080000000 1.0
C      1  0.4538280000000  0.5516540000000  0.4343420000000 1.0
C      1  0.5540620000000  0.6062780000000  0.5246350000000 1.0
C      1  0.5162400000000  0.5594230000000  0.4677570000000 1.0
C      1  0.3872960000000  0.5526600000000  0.5180690000000 1.0
C      1  0.4251830000000  0.4779990000000  0.4061020000000 1.0
C      1  0.4169630000000  0.4543810000000  0.5420040000000 1.0
C      1  0.4232420000000  0.5200380000000  0.4510240000000 1.0
C      1  0.4705380000000  0.4443650000000  0.5379720000000 1.0
C      1  0.5355950000000  0.4531270000000  0.5403420000000 1.0
C      1  0.5683030000000  0.5650230000000  0.5352460000000 1.0
C      1  0.4839120000000  0.4455630000000  0.4082500000000 1.0
C      1  0.4666820000000  0.5831440000000  0.5834890000000 1.0
C      1  0.4366840000000  0.4971270000000  0.4317550000000 1.0
C      1  0.5693410000000  0.4949020000000  0.5140960000000 1.0
END
