TITL C-2847950-6905-291 0.000931338901498055 125000 -292.61117675189 0 0 53 (C1) n - 1
REM
REM in /home/bkarasulu/work/CARBON/AIRSS/Generating-Clusters/AIREBO/with-SteepDescent/Only-C1/SD-CG-opt/Try1-1.4A-POS3A/HFTN-CG
REM
REM
REM
REM
REM
REM ./C.cell (11c1c37f851c82e70ff6c80c92926a4b)
REM
REM compiler GCC version 9.2.1 20190827 (Red Hat 9.2.1-1)
REM options -cpp -mtune=generic -march=x86-64 -g -O0 -fpre-include=/usr/include/finclude/math-vector-fortran.h
REM seed 1341472796 2057226027 1953307093 -1692318534 -328665952 1379239650 913874936 795246058 -261338271 -1250592074 768015821 879426122 784087867 1670753190 1126229313 -112196688 1559820737 1806960277 -202917765 1853128404 1636630998 784196768 -499086618 1280216608 356604969 -409467872 -231778640 691790904 -677524425 -1298768632 1166884206 -304107051 -1539214079
REM
CELL 1.54180   50.00000   50.00000   50.00000   90.00000   90.00000   90.00000
LATT -1
SFAC C  
C      1  0.4599370000000  0.4431730000000  0.5209640000000 1.0
C      1  0.4937220000000  0.4696010000000  0.5101570000000 1.0
C      1  0.4331100000000  0.5394550000000  0.5550010000000 1.0
C      1  0.5192300000000  0.4587060000000  0.4499450000000 1.0
C      1  0.5215170000000  0.4857980000000  0.5163490000000 1.0
C      1  0.4824730000000  0.5299180000000  0.5289870000000 1.0
C      1  0.5224290000000  0.5787990000000  0.5059630000000 1.0
C      1  0.5460740000000  0.5808630000000  0.4842870000000 1.0
C      1  0.4919400000000  0.4794270000000  0.5827310000000 1.0
C      1  0.4690810000000  0.5710340000000  0.5497300000000 1.0
C      1  0.4786040000000  0.5267590000000  0.5607190000000 1.0
C      1  0.4970740000000  0.5336670000000  0.4485040000000 1.0
C      1  0.4587420000000  0.5480840000000  0.5640060000000 1.0
C      1  0.4824630000000  0.5616730000000  0.5261080000000 1.0
C      1  0.4964170000000  0.5036080000000  0.4561920000000 1.0
C      1  0.5107510000000  0.4351670000000  0.5632970000000 1.0
C      1  0.5074870000000  0.5167230000000  0.5181260000000 1.0
C      1  0.5180270000000  0.4860800000000  0.4424840000000 1.0
C      1  0.5620210000000  0.4290690000000  0.5209230000000 1.0
C      1  0.4745640000000  0.4396930000000  0.4456490000000 1.0
C      1  0.4331080000000  0.5033460000000  0.4997180000000 1.0
C      1  0.5128560000000  0.3940310000000  0.5387280000000 1.0
C      1  0.5349470000000  0.4334890000000  0.5223850000000 1.0
C      1  0.5570430000000  0.5510810000000  0.4878450000000 1.0
C      1  0.5190110000000  0.4201450000000  0.5414300000000 1.0
C      1  0.5717520000000  0.4903270000000  0.4223290000000 1.0
C      1  0.5318070000000  0.5323770000000  0.5282720000000 1.0
C      1  0.4687760000000  0.4925840000000  0.4466750000000 1.0
C      1  0.4306620000000  0.4784180000000  0.4991340000000 1.0
C      1  0.5393250000000  0.5004210000000  0.4267230000000 1.0
C      1  0.5396260000000  0.5541100000000  0.5128650000000 1.0
C      1  0.4126490000000  0.5406280000000  0.5101120000000 1.0
C      1  0.4591710000000  0.4479900000000  0.4723600000000 1.0
C      1  0.5624380000000  0.5075520000000  0.4492570000000 1.0
C      1  0.5435740000000  0.5251950000000  0.5519620000000 1.0
C      1  0.5337850000000  0.5034110000000  0.4914980000000 1.0
C      1  0.4947310000000  0.5744280000000  0.5043980000000 1.0
C      1  0.4866450000000  0.5568740000000  0.4570300000000 1.0
C      1  0.5228860000000  0.4541740000000  0.5050390000000 1.0
C      1  0.4710660000000  0.4908270000000  0.5010650000000 1.0
C      1  0.4840280000000  0.5025960000000  0.5719500000000 1.0
C      1  0.4565470000000  0.4601090000000  0.4990240000000 1.0
C      1  0.5620320000000  0.4910960000000  0.4782670000000 1.0
C      1  0.4580810000000  0.4671410000000  0.4470760000000 1.0
C      1  0.5301720000000  0.4526590000000  0.4751040000000 1.0
C      1  0.4313610000000  0.5314990000000  0.5279150000000 1.0
C      1  0.4839190000000  0.5729970000000  0.4786110000000 1.0
C      1  0.5014740000000  0.4399000000000  0.4386450000000 1.0
C      1  0.5000610000000  0.5023560000000  0.4872620000000 1.0
C      1  0.5561740000000  0.5246790000000  0.4772030000000 1.0
C      1  0.4576760000000  0.5164280000000  0.5168770000000 1.0
C      1  0.4973190000000  0.4536620000000  0.5772190000000 1.0
C      1  0.5296350000000  0.5161750000000  0.4058970000000 1.0
END
