TITL C-2847950-6905-472 -0.0092365668945417 125000 -401.155398947689 0 0 78 (C1) n - 1
REM
REM in /home/bkarasulu/work/CARBON/AIRSS/Generating-Clusters/AIREBO/with-SteepDescent/Only-C1/SD-CG-opt/Try1-1.4A-POS3A/HFTN-CG
REM
REM
REM
REM
REM
REM ./C.cell (11c1c37f851c82e70ff6c80c92926a4b)
REM
REM compiler GCC version 9.2.1 20190827 (Red Hat 9.2.1-1)
REM options -cpp -mtune=generic -march=x86-64 -g -O0 -fpre-include=/usr/include/finclude/math-vector-fortran.h
REM seed 111173195 117192482 988539101 -1300175331 -604515445 -924990903 -519954128 1302824704 -419353876 1631520746 1435058906 -1702927770 1433723911 -5108079 -519616477 1460614033 -1963034823 -102448272 -1310980553 -1939064525 923833145 -128179740 -1390931043 -812191165 -353256768 1982706176 2119282270 487115910 -1775013049 222060467 -667001256 487860614 -1839237312
REM
CELL 1.54180   50.00000   50.00000   50.00000   90.00000   90.00000   90.00000
LATT -1
SFAC C  
C      1  0.4507950000000  0.5356710000000  0.4958710000000 1.0
C      1  0.5223610000000  0.4844230000000  0.4628130000000 1.0
C      1  0.4112140000000  0.4634490000000  0.4737260000000 1.0
C      1  0.5533080000000  0.5075430000000  0.5271970000000 1.0
C      1  0.4769600000000  0.4539950000000  0.5718140000000 1.0
C      1  0.5344230000000  0.4687540000000  0.5622040000000 1.0
C      1  0.5273630000000  0.4357060000000  0.4637820000000 1.0
C      1  0.4531860000000  0.4718540000000  0.5553120000000 1.0
C      1  0.4830390000000  0.4799280000000  0.4596210000000 1.0
C      1  0.4564830000000  0.5044520000000  0.5644490000000 1.0
C      1  0.4708930000000  0.5509890000000  0.5620910000000 1.0
C      1  0.5693740000000  0.5455140000000  0.5040090000000 1.0
C      1  0.5409060000000  0.4620560000000  0.4804900000000 1.0
C      1  0.4557300000000  0.4554020000000  0.5271600000000 1.0
C      1  0.4533330000000  0.5504410000000  0.4373900000000 1.0
C      1  0.4368810000000  0.4751050000000  0.4710030000000 1.0
C      1  0.4682230000000  0.5888930000000  0.4679470000000 1.0
C      1  0.5334690000000  0.5094600000000  0.4996450000000 1.0
C      1  0.5053290000000  0.4905810000000  0.5268520000000 1.0
C      1  0.5543700000000  0.5366360000000  0.4356120000000 1.0
C      1  0.5651710000000  0.4701420000000  0.5615660000000 1.0
C      1  0.5364300000000  0.4297130000000  0.4938750000000 1.0
C      1  0.4608270000000  0.5752260000000  0.4455230000000 1.0
C      1  0.5751730000000  0.4863150000000  0.5423070000000 1.0
C      1  0.5049790000000  0.5139590000000  0.5668950000000 1.0
C      1  0.5605100000000  0.5156410000000  0.4540850000000 1.0
C      1  0.4529970000000  0.5534060000000  0.5177630000000 1.0
C      1  0.5225710000000  0.4776120000000  0.5045290000000 1.0
C      1  0.5060740000000  0.4805510000000  0.5753680000000 1.0
C      1  0.5161620000000  0.3915270000000  0.5152550000000 1.0
C      1  0.5048710000000  0.5477710000000  0.5631380000000 1.0
C      1  0.4753290000000  0.5720540000000  0.5190620000000 1.0
C      1  0.4184850000000  0.5169150000000  0.5097010000000 1.0
C      1  0.5477730000000  0.5585580000000  0.4899110000000 1.0
C      1  0.5213750000000  0.5385900000000  0.5123560000000 1.0
C      1  0.5141660000000  0.5453540000000  0.4060050000000 1.0
C      1  0.5024480000000  0.4515660000000  0.4239380000000 1.0
C      1  0.4588440000000  0.5240250000000  0.4388990000000 1.0
C      1  0.5251600000000  0.4188970000000  0.5158900000000 1.0
C      1  0.5214870000000  0.4675430000000  0.4098150000000 1.0
C      1  0.5521940000000  0.5100240000000  0.5721190000000 1.0
C      1  0.4972070000000  0.5673680000000  0.5364270000000 1.0
C      1  0.5141840000000  0.5137780000000  0.4476700000000 1.0
C      1  0.4236730000000  0.5206850000000  0.5380230000000 1.0
C      1  0.5074670000000  0.4496580000000  0.5582960000000 1.0
C      1  0.4826550000000  0.4511660000000  0.5068070000000 1.0
C      1  0.5741170000000  0.4839850000000  0.5108400000000 1.0
C      1  0.4996690000000  0.5554560000000  0.4920510000000 1.0
C      1  0.4631050000000  0.5040600000000  0.4621000000000 1.0
C      1  0.5598480000000  0.5215440000000  0.4818400000000 1.0
C      1  0.5012860000000  0.4665790000000  0.4827950000000 1.0
C      1  0.4880600000000  0.5343140000000  0.5160390000000 1.0
C      1  0.4263730000000  0.4945590000000  0.5531980000000 1.0
C      1  0.5096190000000  0.5448290000000  0.4613040000000 1.0
C      1  0.5271420000000  0.5691590000000  0.4774210000000 1.0
C      1  0.4777880000000  0.5159250000000  0.4897280000000 1.0
C      1  0.5285180000000  0.5542570000000  0.5395720000000 1.0
C      1  0.5272560000000  0.5341980000000  0.4270370000000 1.0
C      1  0.4491990000000  0.4683980000000  0.4421380000000 1.0
C      1  0.5446940000000  0.4792980000000  0.4197410000000 1.0
C      1  0.5576160000000  0.5388450000000  0.5306360000000 1.0
C      1  0.4884660000000  0.3921780000000  0.5105380000000 1.0
C      1  0.4377690000000  0.5065610000000  0.4838840000000 1.0
C      1  0.5031700000000  0.4375130000000  0.5302540000000 1.0
C      1  0.4854320000000  0.4814100000000  0.5502680000000 1.0
C      1  0.4763180000000  0.4904610000000  0.5090780000000 1.0
C      1  0.4794160000000  0.5220970000000  0.5465870000000 1.0
C      1  0.5474960000000  0.4918210000000  0.4449810000000 1.0
C      1  0.4799530000000  0.4178180000000  0.5129040000000 1.0
C      1  0.5292090000000  0.4997690000000  0.5492570000000 1.0
C      1  0.4807920000000  0.5819740000000  0.4915170000000 1.0
C      1  0.4570180000000  0.4686840000000  0.4929400000000 1.0
C      1  0.4581660000000  0.5022480000000  0.5304040000000 1.0
C      1  0.4786600000000  0.4632730000000  0.4352590000000 1.0
C      1  0.5074960000000  0.5174500000000  0.4794570000000 1.0
C      1  0.5152470000000  0.4315760000000  0.4396780000000 1.0
C      1  0.5704870000000  0.4691630000000  0.4891670000000 1.0
C      1  0.4447590000000  0.5417020000000  0.5431780000000 1.0
END
