TITL C-2848494-1720-233 -6.2710882458528e-05 125000 -134.153559608218 0 0 26 (C1) n - 1
REM
REM in /home/bkarasulu/work/CARBON/AIRSS/Generating-Clusters/AIREBO/with-SteepDescent/Only-C1/SD-CG-opt/Try1-1.4A-POS3A/HFTN-CG
REM
REM
REM
REM
REM
REM ./C.cell (11c1c37f851c82e70ff6c80c92926a4b)
REM
REM compiler GCC version 9.2.1 20190827 (Red Hat 9.2.1-1)
REM options -cpp -mtune=generic -march=x86-64 -g -O0 -fpre-include=/usr/include/finclude/math-vector-fortran.h
REM seed -1641685714 -452501545 547091946 -1023668772 -1820009075 1032369308 538170403 -533589744 -60582637 -683696055 -1847752708 1274194126 1382570725 -2113728634 776524450 -903278723 837396492 -1955747657 1267310969 439504240 1779515060 -481693538 -1336722019 -155253035 766333188 1491899876 100194756 -504761117 -1253715465 -2007733158 -213411602 -1366303682 159929669
REM
CELL 1.54180   50.00000   50.00000   50.00000   90.00000   90.00000   90.00000
LATT -1
SFAC C  
C      1  0.4890110000000  0.4486750000000  0.4786590000000 1.0
C      1  0.5285040000000  0.5473970000000  0.5051540000000 1.0
C      1  0.5436730000000  0.5335070000000  0.5300540000000 1.0
C      1  0.5452580000000  0.5655270000000  0.5259960000000 1.0
C      1  0.4477240000000  0.5457000000000  0.5219250000000 1.0
C      1  0.4702540000000  0.5229930000000  0.5186550000000 1.0
C      1  0.5347520000000  0.4522130000000  0.4914970000000 1.0
C      1  0.4978240000000  0.4215900000000  0.4361830000000 1.0
C      1  0.5022860000000  0.5126700000000  0.4525360000000 1.0
C      1  0.4592150000000  0.4919960000000  0.4832630000000 1.0
C      1  0.5089310000000  0.4630570000000  0.4973240000000 1.0
C      1  0.4388130000000  0.5075380000000  0.4735550000000 1.0
C      1  0.4823890000000  0.5059920000000  0.4976420000000 1.0
C      1  0.5540290000000  0.5118660000000  0.5421020000000 1.0
C      1  0.5024880000000  0.5697160000000  0.4728720000000 1.0
C      1  0.4809960000000  0.5494250000000  0.5671480000000 1.0
C      1  0.4594730000000  0.4347090000000  0.4881500000000 1.0
C      1  0.5117990000000  0.4918380000000  0.5352310000000 1.0
C      1  0.5067240000000  0.4338030000000  0.4588080000000 1.0
C      1  0.4979770000000  0.5226880000000  0.4777490000000 1.0
C      1  0.5336070000000  0.4357380000000  0.4686950000000 1.0
C      1  0.5008890000000  0.4853920000000  0.5108190000000 1.0
C      1  0.5620590000000  0.4907590000000  0.5554070000000 1.0
C      1  0.4714700000000  0.5428500000000  0.5437280000000 1.0
C      1  0.5092630000000  0.5470550000000  0.4860130000000 1.0
C      1  0.4605950000000  0.4653080000000  0.4808320000000 1.0
END
