TITL C-2847951-7423-290 0.000862701101016843 125000 -884.304289116025 0 0 165 (C1) n - 1
REM
REM in /home/bkarasulu/work/CARBON/AIRSS/Generating-Clusters/AIREBO/with-SteepDescent/Only-C1/SD-CG-opt/Try1-1.4A-POS3A/HFTN-CG
REM
REM
REM
REM
REM
REM ./C.cell (11c1c37f851c82e70ff6c80c92926a4b)
REM
REM compiler GCC version 9.2.1 20190827 (Red Hat 9.2.1-1)
REM options -cpp -mtune=generic -march=x86-64 -g -O0 -fpre-include=/usr/include/finclude/math-vector-fortran.h
REM seed 601948177 758351841 -1302603129 -2072928851 -2025592731 76312353 -1103373049 1018436478 -15489318 1586593065 -784451515 1465383331 429253912 1773694105 731674286 -535129299 1499177893 385405903 53210878 -713158532 -587460921 -2092772403 -1180647966 1314173733 1909179361 -850985116 675943311 -1988932314 -742437246 -2145975694 1336479453 1144648821 -1880530169
REM
CELL 1.54180   50.00000   50.00000   50.00000   90.00000   90.00000   90.00000
LATT -1
SFAC C  
C      1  0.5609160000000  0.5553770000000  0.5107990000000 1.0
C      1  0.4004030000000  0.4440800000000  0.5044800000000 1.0
C      1  0.4643100000000  0.4812450000000  0.5038010000000 1.0
C      1  0.4220580000000  0.5629370000000  0.5338070000000 1.0
C      1  0.5355250000000  0.5163320000000  0.6036630000000 1.0
C      1  0.4399250000000  0.4880550000000  0.4284700000000 1.0
C      1  0.5616520000000  0.4238670000000  0.5021470000000 1.0
C      1  0.5040530000000  0.5516510000000  0.4170510000000 1.0
C      1  0.5614290000000  0.5249830000000  0.5833450000000 1.0
C      1  0.5041680000000  0.5191200000000  0.5618340000000 1.0
C      1  0.5734830000000  0.4614760000000  0.4336580000000 1.0
C      1  0.5829750000000  0.5360130000000  0.5279870000000 1.0
C      1  0.5039920000000  0.5669220000000  0.4395650000000 1.0
C      1  0.4255010000000  0.5244980000000  0.5730810000000 1.0
C      1  0.4813600000000  0.4536340000000  0.5542580000000 1.0
C      1  0.5708180000000  0.5154110000000  0.5038120000000 1.0
C      1  0.4830370000000  0.4925790000000  0.5624160000000 1.0
C      1  0.5810880000000  0.4367860000000  0.4766890000000 1.0
C      1  0.4539270000000  0.5252660000000  0.5934000000000 1.0
C      1  0.4641310000000  0.5707290000000  0.5493410000000 1.0
C      1  0.4462240000000  0.5814380000000  0.4701170000000 1.0
C      1  0.5786530000000  0.5224930000000  0.5572510000000 1.0
C      1  0.5529540000000  0.4945210000000  0.5740300000000 1.0
C      1  0.4329250000000  0.4380200000000  0.4445790000000 1.0
C      1  0.4347590000000  0.4679290000000  0.5577750000000 1.0
C      1  0.4228800000000  0.5168380000000  0.4355110000000 1.0
C      1  0.5189360000000  0.3927260000000  0.4926490000000 1.0
C      1  0.4930490000000  0.4797280000000  0.4542840000000 1.0
C      1  0.3949530000000  0.5303980000000  0.4968300000000 1.0
C      1  0.5924840000000  0.5660160000000  0.5039620000000 1.0
C      1  0.5861940000000  0.4970790000000  0.5520850000000 1.0
C      1  0.5901570000000  0.4954090000000  0.5227450000000 1.0
C      1  0.4908760000000  0.4317020000000  0.4165350000000 1.0
C      1  0.5411710000000  0.5547460000000  0.4318480000000 1.0
C      1  0.4351230000000  0.5646620000000  0.5042460000000 1.0
C      1  0.4021840000000  0.4394400000000  0.4349220000000 1.0
C      1  0.4637900000000  0.4364360000000  0.4576510000000 1.0
C      1  0.5343100000000  0.5944380000000  0.5427340000000 1.0
C      1  0.4619180000000  0.5152900000000  0.3954510000000 1.0
C      1  0.5346820000000  0.4871510000000  0.5510420000000 1.0
C      1  0.4193780000000  0.5436160000000  0.4858920000000 1.0
C      1  0.5562680000000  0.5337310000000  0.4149200000000 1.0
C      1  0.5637420000000  0.5473990000000  0.4639970000000 1.0
C      1  0.4463550000000  0.4230270000000  0.5425170000000 1.0
C      1  0.3945380000000  0.5131770000000  0.4504720000000 1.0
C      1  0.5770300000000  0.4490040000000  0.5460480000000 1.0
C      1  0.3853430000000  0.5131770000000  0.4762200000000 1.0
C      1  0.4216720000000  0.4653320000000  0.5308450000000 1.0
C      1  0.5819050000000  0.4658140000000  0.5168300000000 1.0
C      1  0.4964580000000  0.5815400000000  0.5017840000000 1.0
C      1  0.5089490000000  0.5203840000000  0.4225350000000 1.0
C      1  0.4189860000000  0.5444370000000  0.4551090000000 1.0
C      1  0.5751820000000  0.5332120000000  0.4373090000000 1.0
C      1  0.4988540000000  0.5511380000000  0.5292880000000 1.0
C      1  0.5597940000000  0.5757080000000  0.5517460000000 1.0
C      1  0.4951990000000  0.4042000000000  0.4893860000000 1.0
C      1  0.4525400000000  0.4454450000000  0.5595710000000 1.0
C      1  0.4644310000000  0.4966370000000  0.5341870000000 1.0
C      1  0.5456060000000  0.4499860000000  0.5141050000000 1.0
C      1  0.4954670000000  0.4041620000000  0.5453610000000 1.0
C      1  0.5525010000000  0.4816730000000  0.5233510000000 1.0
C      1  0.5038990000000  0.4657620000000  0.5026560000000 1.0
C      1  0.5478970000000  0.4464630000000  0.4378390000000 1.0
C      1  0.5997240000000  0.4742780000000  0.4891330000000 1.0
C      1  0.5430600000000  0.3954960000000  0.5061330000000 1.0
C      1  0.4964570000000  0.4459360000000  0.4577120000000 1.0
C      1  0.5394290000000  0.5301110000000  0.4747410000000 1.0
C      1  0.4490730000000  0.5042830000000  0.4749240000000 1.0
C      1  0.4093240000000  0.4797730000000  0.4889120000000 1.0
C      1  0.4436830000000  0.4961970000000  0.5681600000000 1.0
C      1  0.4380420000000  0.4399110000000  0.5164290000000 1.0
C      1  0.5275170000000  0.5770010000000  0.5148720000000 1.0
C      1  0.6094940000000  0.5208510000000  0.5115280000000 1.0
C      1  0.4475210000000  0.5503490000000  0.5713510000000 1.0
C      1  0.6038930000000  0.5026050000000  0.4858940000000 1.0
C      1  0.5151480000000  0.5488280000000  0.4861390000000 1.0
C      1  0.4990530000000  0.4482430000000  0.5294340000000 1.0
C      1  0.5439260000000  0.5031310000000  0.4907810000000 1.0
C      1  0.4589930000000  0.5524980000000  0.5229530000000 1.0
C      1  0.4470810000000  0.5290140000000  0.4169390000000 1.0
C      1  0.4600650000000  0.4878550000000  0.4526260000000 1.0
C      1  0.4220600000000  0.4645320000000  0.4309990000000 1.0
C      1  0.5322300000000  0.4700090000000  0.3964070000000 1.0
C      1  0.4326900000000  0.5835530000000  0.5512060000000 1.0
C      1  0.5329870000000  0.5248010000000  0.4461780000000 1.0
C      1  0.4934710000000  0.4961780000000  0.5066850000000 1.0
C      1  0.5643220000000  0.4663160000000  0.4729100000000 1.0
C      1  0.5076010000000  0.5773740000000  0.5494440000000 1.0
C      1  0.4970190000000  0.5810150000000  0.5744160000000 1.0
C      1  0.4646550000000  0.4115480000000  0.4774350000000 1.0
C      1  0.5103230000000  0.4807410000000  0.4185650000000 1.0
C      1  0.4626470000000  0.5839600000000  0.4989230000000 1.0
C      1  0.4617590000000  0.5514250000000  0.4691520000000 1.0
C      1  0.5128050000000  0.4246340000000  0.5372430000000 1.0
C      1  0.4914300000000  0.4380890000000  0.4904200000000 1.0
C      1  0.4851980000000  0.5459380000000  0.5592640000000 1.0
C      1  0.5509950000000  0.5554590000000  0.5776400000000 1.0
C      1  0.5092220000000  0.5019840000000  0.5340600000000 1.0
C      1  0.5803740000000  0.4215420000000  0.5304350000000 1.0
C      1  0.4453900000000  0.3889970000000  0.4719730000000 1.0
C      1  0.4917490000000  0.4569250000000  0.4075680000000 1.0
C      1  0.5295030000000  0.5437100000000  0.5165550000000 1.0
C      1  0.5013660000000  0.5363750000000  0.6080890000000 1.0
C      1  0.4906830000000  0.5134600000000  0.4503920000000 1.0
C      1  0.5825390000000  0.5124770000000  0.4632320000000 1.0
C      1  0.4677120000000  0.5320460000000  0.4418460000000 1.0
C      1  0.5075300000000  0.4719260000000  0.5603660000000 1.0
C      1  0.5233890000000  0.5365330000000  0.5821800000000 1.0
C      1  0.4738880000000  0.4698050000000  0.3878800000000 1.0
C      1  0.5135660000000  0.4260730000000  0.4360150000000 1.0
C      1  0.5145340000000  0.4970300000000  0.6075290000000 1.0
C      1  0.4290840000000  0.4540270000000  0.4891400000000 1.0
C      1  0.4973410000000  0.5200070000000  0.4831300000000 1.0
C      1  0.5050800000000  0.4812180000000  0.3792640000000 1.0
C      1  0.3948750000000  0.5218650000000  0.5235090000000 1.0
C      1  0.5523040000000  0.4843380000000  0.4198550000000 1.0
C      1  0.5348290000000  0.4705230000000  0.4892970000000 1.0
C      1  0.5490980000000  0.4450970000000  0.5650540000000 1.0
C      1  0.4695740000000  0.4057100000000  0.5349770000000 1.0
C      1  0.5561990000000  0.4004570000000  0.5339250000000 1.0
C      1  0.4399570000000  0.5161780000000  0.5209080000000 1.0
C      1  0.4649270000000  0.4870680000000  0.5906720000000 1.0
C      1  0.5420710000000  0.4293680000000  0.5387440000000 1.0
C      1  0.4782300000000  0.5933790000000  0.5277760000000 1.0
C      1  0.5389730000000  0.5117550000000  0.4090710000000 1.0
C      1  0.5314040000000  0.4430190000000  0.4131670000000 1.0
C      1  0.5348030000000  0.5115750000000  0.5198690000000 1.0
C      1  0.3824790000000  0.4987010000000  0.5305370000000 1.0
C      1  0.5342690000000  0.4083040000000  0.4505940000000 1.0
C      1  0.5272110000000  0.6067230000000  0.4983580000000 1.0
C      1  0.4559760000000  0.4639210000000  0.4757500000000 1.0
C      1  0.5281200000000  0.4713460000000  0.6049270000000 1.0
C      1  0.5859390000000  0.5386930000000  0.4847520000000 1.0
C      1  0.5868490000000  0.5695670000000  0.5373110000000 1.0
C      1  0.5566930000000  0.5761770000000  0.4654310000000 1.0
C      1  0.5507030000000  0.4230780000000  0.4699610000000 1.0
C      1  0.5186960000000  0.5812580000000  0.4764240000000 1.0
C      1  0.4194160000000  0.5322670000000  0.5404820000000 1.0
C      1  0.4782100000000  0.4607320000000  0.5860630000000 1.0
C      1  0.4329950000000  0.4867790000000  0.5115710000000 1.0
C      1  0.5284720000000  0.4583580000000  0.5780740000000 1.0
C      1  0.4658460000000  0.4237740000000  0.5077580000000 1.0
C      1  0.5375040000000  0.5509150000000  0.5477980000000 1.0
C      1  0.4905130000000  0.5575920000000  0.5903300000000 1.0
C      1  0.4795360000000  0.5337450000000  0.5070580000000 1.0
C      1  0.3814400000000  0.4779700000000  0.4964180000000 1.0
C      1  0.4519850000000  0.5591780000000  0.4278680000000 1.0
C      1  0.5237710000000  0.4920460000000  0.4463130000000 1.0
C      1  0.5781590000000  0.4720890000000  0.5697870000000 1.0
C      1  0.5944540000000  0.4612680000000  0.4581520000000 1.0
C      1  0.5597960000000  0.4720890000000  0.5984930000000 1.0
C      1  0.4599640000000  0.5237030000000  0.5542770000000 1.0
C      1  0.4843280000000  0.5108730000000  0.5987980000000 1.0
C      1  0.4494010000000  0.5293980000000  0.4919010000000 1.0
C      1  0.4675790000000  0.4229230000000  0.4270250000000 1.0
C      1  0.4916940000000  0.5557980000000  0.4625280000000 1.0
C      1  0.4548000000000  0.4869140000000  0.3996950000000 1.0
C      1  0.4330880000000  0.5677120000000  0.4466300000000 1.0
C      1  0.5311360000000  0.5827690000000  0.4463390000000 1.0
C      1  0.5295610000000  0.4482510000000  0.4651310000000 1.0
C      1  0.5571630000000  0.4920870000000  0.4530510000000 1.0
C      1  0.4913000000000  0.5031110000000  0.4014030000000 1.0
C      1  0.3900790000000  0.4669710000000  0.5274100000000 1.0
C      1  0.5081930000000  0.6096190000000  0.5270990000000 1.0
C      1  0.5538520000000  0.5844580000000  0.4946510000000 1.0
END
