TITL C-2848495-5024-31 0.00215492288537777 125000 -326.370176184111 0 0 58 (C1) n - 1
REM
REM in /home/bkarasulu/work/CARBON/AIRSS/Generating-Clusters/AIREBO/with-SteepDescent/Only-C1/SD-CG-opt/Try1-1.4A-POS3A/HFTN-CG
REM
REM
REM
REM
REM
REM ./C.cell (11c1c37f851c82e70ff6c80c92926a4b)
REM
REM compiler GCC version 9.2.1 20190827 (Red Hat 9.2.1-1)
REM options -cpp -mtune=generic -march=x86-64 -g -O0 -fpre-include=/usr/include/finclude/math-vector-fortran.h
REM seed 772454662 -1972055212 174718496 -1705614214 -1810270762 506708024 2071206796 792456297 -601972388 -722755733 1953398544 -2011543269 322723311 1874990814 1212973395 203126737 -1547968538 -132271425 -1668144488 1690813495 1306789232 1314085943 -784842929 -958615894 -1574852134 473927060 -343432041 431138270 1294531812 397878013 -1428292452 -957046241 124386566
REM
CELL 1.54180   50.00000   50.00000   50.00000   90.00000   90.00000   90.00000
LATT -1
SFAC C  
C      1  0.4841840000000  0.4285800000000  0.4807860000000 1.0
C      1  0.4166070000000  0.5261220000000  0.4685300000000 1.0
C      1  0.5076410000000  0.5424150000000  0.5683200000000 1.0
C      1  0.4140910000000  0.4791890000000  0.5102200000000 1.0
C      1  0.5528280000000  0.5491570000000  0.5018740000000 1.0
C      1  0.4735460000000  0.4996630000000  0.5424960000000 1.0
C      1  0.4644500000000  0.4999640000000  0.4283860000000 1.0
C      1  0.5262300000000  0.5556570000000  0.5459990000000 1.0
C      1  0.4611440000000  0.5070860000000  0.4553420000000 1.0
C      1  0.4322190000000  0.5026770000000  0.4653160000000 1.0
C      1  0.5715800000000  0.5266680000000  0.4906070000000 1.0
C      1  0.4880320000000  0.4518660000000  0.5531750000000 1.0
C      1  0.5549380000000  0.4351530000000  0.4716790000000 1.0
C      1  0.4540230000000  0.4221030000000  0.4895380000000 1.0
C      1  0.4978400000000  0.5193150000000  0.4957130000000 1.0
C      1  0.4717800000000  0.4925800000000  0.5092770000000 1.0
C      1  0.5984320000000  0.4665670000000  0.5070630000000 1.0
C      1  0.5195140000000  0.4887300000000  0.4394660000000 1.0
C      1  0.4278260000000  0.5454640000000  0.4851270000000 1.0
C      1  0.5034330000000  0.4768110000000  0.4633170000000 1.0
C      1  0.5003580000000  0.4531830000000  0.5263900000000 1.0
C      1  0.5615480000000  0.5160090000000  0.4428240000000 1.0
C      1  0.4565340000000  0.4455710000000  0.5468290000000 1.0
C      1  0.4693470000000  0.5264040000000  0.5066930000000 1.0
C      1  0.5159850000000  0.4783630000000  0.4144010000000 1.0
C      1  0.5342780000000  0.5108030000000  0.4460150000000 1.0
C      1  0.4077760000000  0.5320360000000  0.5489040000000 1.0
C      1  0.5524550000000  0.5097610000000  0.5310950000000 1.0
C      1  0.5295730000000  0.4556080000000  0.4682420000000 1.0
C      1  0.4979190000000  0.5686810000000  0.5402930000000 1.0
C      1  0.4611100000000  0.5267610000000  0.5503300000000 1.0
C      1  0.5583950000000  0.4643650000000  0.4828350000000 1.0
C      1  0.4935910000000  0.5465930000000  0.4579490000000 1.0
C      1  0.4847890000000  0.4363970000000  0.5097770000000 1.0
C      1  0.5288070000000  0.5253760000000  0.4981110000000 1.0
C      1  0.4337490000000  0.5291460000000  0.5508820000000 1.0
C      1  0.5774440000000  0.5249650000000  0.4634210000000 1.0
C      1  0.4656380000000  0.4744200000000  0.5576860000000 1.0
C      1  0.5039410000000  0.5014460000000  0.5486040000000 1.0
C      1  0.4533090000000  0.4439070000000  0.5158150000000 1.0
C      1  0.5674180000000  0.4135430000000  0.4623650000000 1.0
C      1  0.4558520000000  0.5425510000000  0.4877960000000 1.0
C      1  0.5024460000000  0.4793270000000  0.5156280000000 1.0
C      1  0.4991900000000  0.4437860000000  0.4644300000000 1.0
C      1  0.5751470000000  0.4778680000000  0.4991050000000 1.0
C      1  0.5213380000000  0.5283940000000  0.4650630000000 1.0
C      1  0.5385780000000  0.5713190000000  0.4847570000000 1.0
C      1  0.4472420000000  0.4721050000000  0.5063550000000 1.0
C      1  0.4272040000000  0.4820080000000  0.4819270000000 1.0
C      1  0.4832830000000  0.4951750000000  0.4767030000000 1.0
C      1  0.5698850000000  0.5044640000000  0.5067720000000 1.0
C      1  0.4686720000000  0.5370020000000  0.4625300000000 1.0
C      1  0.5443480000000  0.5412500000000  0.5313520000000 1.0
C      1  0.5114920000000  0.5146660000000  0.5709060000000 1.0
C      1  0.5621860000000  0.4994210000000  0.5551650000000 1.0
C      1  0.5222140000000  0.5030210000000  0.5228950000000 1.0
C      1  0.5178200000000  0.5603420000000  0.4719930000000 1.0
C      1  0.4788040000000  0.5481970000000  0.5549330000000 1.0
END
