TITL C-2848494-1720-503 0.00187046945990182 125000 -412.893360348816 0 0 79 (C1) n - 1
REM
REM in /home/bkarasulu/work/CARBON/AIRSS/Generating-Clusters/AIREBO/with-SteepDescent/Only-C1/SD-CG-opt/Try1-1.4A-POS3A/HFTN-CG
REM
REM
REM
REM
REM
REM ./C.cell (11c1c37f851c82e70ff6c80c92926a4b)
REM
REM compiler GCC version 9.2.1 20190827 (Red Hat 9.2.1-1)
REM options -cpp -mtune=generic -march=x86-64 -g -O0 -fpre-include=/usr/include/finclude/math-vector-fortran.h
REM seed 727988495 406587562 -1019421077 2027162724 -725373303 1263138899 1743779466 -125267655 -866090427 1174196914 1627732434 -599204741 1416944038 -215565019 1690516426 1541490990 -1172846364 -1407099412 1433972643 1758605374 1650632728 -2064170159 791567369 57989390 -216035843 -1007071774 -1735154452 1206395006 -2113275150 1658136707 303254459 1004101687 124816052
REM
CELL 1.54180   50.00000   50.00000   50.00000   90.00000   90.00000   90.00000
LATT -1
SFAC C  
C      1  0.4890240000000  0.5479620000000  0.5424520000000 1.0
C      1  0.4833190000000  0.5373710000000  0.4776820000000 1.0
C      1  0.4922150000000  0.4528950000000  0.5051440000000 1.0
C      1  0.4528270000000  0.4413150000000  0.5380210000000 1.0
C      1  0.5544810000000  0.5094990000000  0.5645850000000 1.0
C      1  0.4298150000000  0.5091470000000  0.5252070000000 1.0
C      1  0.4568150000000  0.5501520000000  0.5531550000000 1.0
C      1  0.4541250000000  0.4869930000000  0.5165610000000 1.0
C      1  0.5629560000000  0.4464740000000  0.4778780000000 1.0
C      1  0.5145580000000  0.4818910000000  0.5781430000000 1.0
C      1  0.4716910000000  0.5196800000000  0.5556650000000 1.0
C      1  0.5271120000000  0.4921410000000  0.4075690000000 1.0
C      1  0.4475980000000  0.4390690000000  0.4843290000000 1.0
C      1  0.4583380000000  0.5579400000000  0.4672160000000 1.0
C      1  0.5332860000000  0.4223550000000  0.5318610000000 1.0
C      1  0.5771860000000  0.4834880000000  0.5075530000000 1.0
C      1  0.4999550000000  0.4576530000000  0.4242950000000 1.0
C      1  0.5488280000000  0.4900990000000  0.5379790000000 1.0
C      1  0.5518090000000  0.5061230000000  0.5081330000000 1.0
C      1  0.4874110000000  0.5201870000000  0.5828750000000 1.0
C      1  0.5420610000000  0.4810060000000  0.5707390000000 1.0
C      1  0.5201920000000  0.5609680000000  0.5515530000000 1.0
C      1  0.5113120000000  0.5333510000000  0.5788660000000 1.0
C      1  0.4798600000000  0.4529070000000  0.5450300000000 1.0
C      1  0.5411200000000  0.4944390000000  0.4574060000000 1.0
C      1  0.4256470000000  0.5329150000000  0.5032780000000 1.0
C      1  0.5044830000000  0.4318590000000  0.5446430000000 1.0
C      1  0.4362060000000  0.4632870000000  0.5331070000000 1.0
C      1  0.5469100000000  0.5263600000000  0.4189010000000 1.0
C      1  0.5059170000000  0.4158100000000  0.5164700000000 1.0
C      1  0.5304750000000  0.5458460000000  0.4604360000000 1.0
C      1  0.5616690000000  0.5143750000000  0.4390620000000 1.0
C      1  0.4550650000000  0.4209450000000  0.5193100000000 1.0
C      1  0.5358780000000  0.4498270000000  0.4702440000000 1.0
C      1  0.4844090000000  0.5690400000000  0.4535030000000 1.0
C      1  0.5166470000000  0.4552030000000  0.4468720000000 1.0
C      1  0.4166220000000  0.4687260000000  0.4850930000000 1.0
C      1  0.4580630000000  0.5368850000000  0.5011530000000 1.0
C      1  0.4986040000000  0.4837850000000  0.4120980000000 1.0
C      1  0.4328170000000  0.5163630000000  0.4779500000000 1.0
C      1  0.4895870000000  0.4923550000000  0.5907060000000 1.0
C      1  0.5480120000000  0.5442960000000  0.5415710000000 1.0
C      1  0.4525820000000  0.5755150000000  0.4939620000000 1.0
C      1  0.5116160000000  0.4814130000000  0.4680490000000 1.0
C      1  0.4965590000000  0.5065810000000  0.4834160000000 1.0
C      1  0.4763360000000  0.4396300000000  0.4703980000000 1.0
C      1  0.4716320000000  0.4871320000000  0.5457450000000 1.0
C      1  0.4813940000000  0.4664950000000  0.4635510000000 1.0
C      1  0.4650730000000  0.5600960000000  0.5215700000000 1.0
C      1  0.4050640000000  0.5509510000000  0.5042370000000 1.0
C      1  0.5048530000000  0.4693730000000  0.5309420000000 1.0
C      1  0.5519080000000  0.4419820000000  0.5249330000000 1.0
C      1  0.4804140000000  0.4224570000000  0.4997900000000 1.0
C      1  0.5194000000000  0.4632590000000  0.4944680000000 1.0
C      1  0.5074400000000  0.5593280000000  0.4732770000000 1.0
C      1  0.4727010000000  0.5093940000000  0.5036200000000 1.0
C      1  0.5164160000000  0.5673220000000  0.5207640000000 1.0
C      1  0.5440450000000  0.4813460000000  0.4261560000000 1.0
C      1  0.4653550000000  0.4802420000000  0.5784580000000 1.0
C      1  0.5665050000000  0.5312650000000  0.5256910000000 1.0
C      1  0.5138250000000  0.5777150000000  0.4966610000000 1.0
C      1  0.5786970000000  0.5283970000000  0.4816670000000 1.0
C      1  0.5251940000000  0.5213330000000  0.5519770000000 1.0
C      1  0.4604620000000  0.4847000000000  0.4609440000000 1.0
C      1  0.5362350000000  0.4682020000000  0.5206770000000 1.0
C      1  0.5180510000000  0.5228350000000  0.4968530000000 1.0
C      1  0.4825370000000  0.5074500000000  0.4238510000000 1.0
C      1  0.4855030000000  0.5855700000000  0.4335400000000 1.0
C      1  0.5900850000000  0.5150630000000  0.5069620000000 1.0
C      1  0.4628110000000  0.5081370000000  0.4437410000000 1.0
C      1  0.5456980000000  0.5209900000000  0.4781540000000 1.0
C      1  0.5704610000000  0.4556760000000  0.5043120000000 1.0
C      1  0.4383490000000  0.4863330000000  0.4864230000000 1.0
C      1  0.4484370000000  0.5286500000000  0.4577610000000 1.0
C      1  0.5046540000000  0.4942420000000  0.5497180000000 1.0
C      1  0.5130820000000  0.5340560000000  0.5228560000000 1.0
C      1  0.4617670000000  0.4576710000000  0.5027030000000 1.0
C      1  0.5125810000000  0.5210410000000  0.4152330000000 1.0
C      1  0.5273720000000  0.5451730000000  0.4326450000000 1.0
END
