TITL C-2848495-5024-48 0.00182766801263844 125000 -653.890671401087 0 0 119 (C1) n - 1
REM
REM in /home/bkarasulu/work/CARBON/AIRSS/Generating-Clusters/AIREBO/with-SteepDescent/Only-C1/SD-CG-opt/Try1-1.4A-POS3A/HFTN-CG
REM
REM
REM
REM
REM
REM ./C.cell (11c1c37f851c82e70ff6c80c92926a4b)
REM
REM compiler GCC version 9.2.1 20190827 (Red Hat 9.2.1-1)
REM options -cpp -mtune=generic -march=x86-64 -g -O0 -fpre-include=/usr/include/finclude/math-vector-fortran.h
REM seed -444301461 -1107477288 798755961 -2031613277 -2140265370 -1995301979 -1714181671 1364010477 2122746550 1134853278 -1077278406 -1336207981 306189850 338308995 -1362327310 22381390 -936659307 -1980730606 -515700601 356000567 423745366 -1191599516 -392929095 -393515312 -1642629362 -1848946776 -1862972816 -780574813 -1477198880 1778841117 771146314 475828884 -873509876
REM
CELL 1.54180   50.00000   50.00000   50.00000   90.00000   90.00000   90.00000
LATT -1
SFAC C  
C      1  0.4362050000000  0.4588290000000  0.4496240000000 1.0
C      1  0.4443990000000  0.5474420000000  0.5109500000000 1.0
C      1  0.5422620000000  0.4825960000000  0.5279580000000 1.0
C      1  0.4157840000000  0.5160140000000  0.5207820000000 1.0
C      1  0.5796710000000  0.4948500000000  0.4748200000000 1.0
C      1  0.5360400000000  0.4670260000000  0.5575410000000 1.0
C      1  0.4354970000000  0.4138130000000  0.5070660000000 1.0
C      1  0.4201190000000  0.4394060000000  0.5022600000000 1.0
C      1  0.5178430000000  0.4427090000000  0.5482910000000 1.0
C      1  0.4463870000000  0.5091050000000  0.5528280000000 1.0
C      1  0.5768480000000  0.4634310000000  0.5232500000000 1.0
C      1  0.4393280000000  0.4592210000000  0.4885610000000 1.0
C      1  0.5182540000000  0.5318010000000  0.5024360000000 1.0
C      1  0.4710810000000  0.5644020000000  0.5384200000000 1.0
C      1  0.5487960000000  0.5114670000000  0.5558970000000 1.0
C      1  0.5151310000000  0.5803510000000  0.4809810000000 1.0
C      1  0.4859030000000  0.4448510000000  0.4226460000000 1.0
C      1  0.4542630000000  0.4832980000000  0.5062280000000 1.0
C      1  0.4336610000000  0.5637170000000  0.4649250000000 1.0
C      1  0.5002550000000  0.5511960000000  0.4413790000000 1.0
C      1  0.6059770000000  0.5548750000000  0.4543710000000 1.0
C      1  0.5016230000000  0.5204410000000  0.4558360000000 1.0
C      1  0.4732220000000  0.5263860000000  0.4833540000000 1.0
C      1  0.5305590000000  0.4904460000000  0.4863830000000 1.0
C      1  0.5008010000000  0.5078270000000  0.4242490000000 1.0
C      1  0.5391940000000  0.4412010000000  0.4653170000000 1.0
C      1  0.4912870000000  0.5350100000000  0.4061570000000 1.0
C      1  0.4997040000000  0.4400120000000  0.5022470000000 1.0
C      1  0.4946660000000  0.5324630000000  0.5731560000000 1.0
C      1  0.5371320000000  0.4555070000000  0.4226930000000 1.0
C      1  0.5615030000000  0.5530680000000  0.5224310000000 1.0
C      1  0.5139160000000  0.5210830000000  0.5964080000000 1.0
C      1  0.5685910000000  0.4660200000000  0.5530540000000 1.0
C      1  0.5549420000000  0.4863340000000  0.5772430000000 1.0
C      1  0.4454160000000  0.4560810000000  0.5673460000000 1.0
C      1  0.4503630000000  0.5149170000000  0.4644560000000 1.0
C      1  0.5521720000000  0.5801780000000  0.5152530000000 1.0
C      1  0.4897540000000  0.4443320000000  0.5320880000000 1.0
C      1  0.5174710000000  0.4248540000000  0.4517550000000 1.0
C      1  0.4967890000000  0.5850160000000  0.5053700000000 1.0
C      1  0.4274070000000  0.5391010000000  0.5369000000000 1.0
C      1  0.4821700000000  0.4727510000000  0.5361950000000 1.0
C      1  0.5080250000000  0.5882040000000  0.5312600000000 1.0
C      1  0.4947920000000  0.5058090000000  0.5547770000000 1.0
C      1  0.4950210000000  0.4446830000000  0.5714430000000 1.0
C      1  0.4265670000000  0.4882840000000  0.5253400000000 1.0
C      1  0.4643900000000  0.4406490000000  0.4488240000000 1.0
C      1  0.5017720000000  0.4923720000000  0.5177960000000 1.0
C      1  0.5684530000000  0.5034590000000  0.5221440000000 1.0
C      1  0.4686470000000  0.5708690000000  0.5063490000000 1.0
C      1  0.4312730000000  0.5362680000000  0.4815690000000 1.0
C      1  0.4712720000000  0.5108920000000  0.5356920000000 1.0
C      1  0.4650030000000  0.5573730000000  0.4786510000000 1.0
C      1  0.4706690000000  0.5439370000000  0.4262630000000 1.0
C      1  0.4859020000000  0.4765810000000  0.5697740000000 1.0
C      1  0.4712170000000  0.4492580000000  0.4948860000000 1.0
C      1  0.4518670000000  0.4775080000000  0.5452410000000 1.0
C      1  0.5061080000000  0.5565320000000  0.5554550000000 1.0
C      1  0.5295080000000  0.5118830000000  0.4064790000000 1.0
C      1  0.5225600000000  0.5068860000000  0.5402650000000 1.0
C      1  0.5520970000000  0.5290750000000  0.4637810000000 1.0
C      1  0.5554310000000  0.4975420000000  0.4567080000000 1.0
C      1  0.5337540000000  0.5723780000000  0.5430410000000 1.0
C      1  0.5008730000000  0.5069210000000  0.4870570000000 1.0
C      1  0.5558100000000  0.4729880000000  0.4982690000000 1.0
C      1  0.4699950000000  0.4718730000000  0.4249690000000 1.0
C      1  0.4823610000000  0.5798400000000  0.4393150000000 1.0
C      1  0.5616720000000  0.4513830000000  0.4431870000000 1.0
C      1  0.5311090000000  0.5655180000000  0.4399780000000 1.0
C      1  0.4599690000000  0.5775770000000  0.4540100000000 1.0
C      1  0.4584810000000  0.4803090000000  0.5845300000000 1.0
C      1  0.4127680000000  0.4809890000000  0.4608970000000 1.0
C      1  0.5188490000000  0.4631960000000  0.5129090000000 1.0
C      1  0.4831080000000  0.4678310000000  0.4552150000000 1.0
C      1  0.4776180000000  0.4223840000000  0.5520990000000 1.0
C      1  0.4564470000000  0.5205650000000  0.4347350000000 1.0
C      1  0.5346860000000  0.5409200000000  0.4165160000000 1.0
C      1  0.5309250000000  0.5501590000000  0.4800080000000 1.0
C      1  0.4498580000000  0.5506380000000  0.5552910000000 1.0
C      1  0.4729510000000  0.4181070000000  0.4671280000000 1.0
C      1  0.5567790000000  0.5505640000000  0.5544580000000 1.0
C      1  0.4033790000000  0.4700650000000  0.5351560000000 1.0
C      1  0.5331470000000  0.4740700000000  0.4590360000000 1.0
C      1  0.5421060000000  0.4426780000000  0.5268810000000 1.0
C      1  0.5815180000000  0.5221410000000  0.4894850000000 1.0
C      1  0.4291400000000  0.4225570000000  0.5372370000000 1.0
C      1  0.5392380000000  0.5115090000000  0.5942910000000 1.0
C      1  0.5975820000000  0.4864670000000  0.5176920000000 1.0
C      1  0.4729900000000  0.5320950000000  0.5151430000000 1.0
C      1  0.5001520000000  0.4132580000000  0.4697500000000 1.0
C      1  0.4889070000000  0.5858610000000  0.5559600000000 1.0
C      1  0.5649580000000  0.4350250000000  0.5088710000000 1.0
C      1  0.4628940000000  0.5360830000000  0.5770700000000 1.0
C      1  0.4796910000000  0.4804900000000  0.4838250000000 1.0
C      1  0.5315970000000  0.4840410000000  0.4152050000000 1.0
C      1  0.4085190000000  0.5192850000000  0.4936240000000 1.0
C      1  0.5519490000000  0.5284140000000  0.5059780000000 1.0
C      1  0.5801510000000  0.5471040000000  0.4672490000000 1.0
C      1  0.4695750000000  0.4988380000000  0.4208970000000 1.0
C      1  0.5542210000000  0.5686160000000  0.4633950000000 1.0
C      1  0.5457120000000  0.5860850000000  0.4893820000000 1.0
C      1  0.5778890000000  0.5256350000000  0.5461520000000 1.0
C      1  0.4477870000000  0.4297610000000  0.5571240000000 1.0
C      1  0.5132160000000  0.4113690000000  0.5002860000000 1.0
C      1  0.3967280000000  0.4982120000000  0.4771290000000 1.0
C      1  0.5306560000000  0.5258360000000  0.4435750000000 1.0
C      1  0.4433270000000  0.4862930000000  0.4683690000000 1.0
C      1  0.5975950000000  0.5206250000000  0.5185720000000 1.0
C      1  0.5131570000000  0.4391230000000  0.4277520000000 1.0
C      1  0.4579170000000  0.4182210000000  0.4916860000000 1.0
C      1  0.4977880000000  0.5493550000000  0.5232780000000 1.0
C      1  0.5718410000000  0.4637390000000  0.4700850000000 1.0
C      1  0.4500020000000  0.5087000000000  0.5834040000000 1.0
C      1  0.4064800000000  0.4433840000000  0.5286910000000 1.0
C      1  0.4970000000000  0.4053170000000  0.5296010000000 1.0
C      1  0.5427050000000  0.4255000000000  0.4909350000000 1.0
C      1  0.5089610000000  0.4781790000000  0.4397400000000 1.0
C      1  0.5595760000000  0.5318610000000  0.5809750000000 1.0
C      1  0.5089750000000  0.5885780000000  0.4511030000000 1.0
END
