TITL C-2848508-1660-595 -0.000241024280662937 125000 -863.030671567678 0 0 159 (C1) n - 1
REM
REM in /home/bkarasulu/work/CARBON/AIRSS/Generating-Clusters/AIREBO/with-SteepDescent/Only-C1/SD-CG-opt/Try1-1.4A-POS3A/HFTN-CG
REM
REM
REM
REM
REM
REM ./C.cell (11c1c37f851c82e70ff6c80c92926a4b)
REM
REM compiler GCC version 9.2.1 20190827 (Red Hat 9.2.1-1)
REM options -cpp -mtune=generic -march=x86-64 -g -O0 -fpre-include=/usr/include/finclude/math-vector-fortran.h
REM seed -1640095486 -1091756070 -1726143587 133353483 -145127894 -479153780 2068177438 1645127808 -12620698 -82564013 1800004697 30531372 1198604666 -5533409 942602448 718194685 -950695381 -1013564037 1306764102 1898554214 353228040 68166514 721536085 -1982027107 463298398 -509242338 325042888 2062287504 -1130674198 1817589910 -1900215242 -679629753 1159733034
REM
CELL 1.54180   50.00000   50.00000   50.00000   90.00000   90.00000   90.00000
LATT -1
SFAC C  
C      1  0.5339770000000  0.5043760000000  0.5879120000000 1.0
C      1  0.5267550000000  0.4483080000000  0.4857310000000 1.0
C      1  0.4936420000000  0.5660920000000  0.4195120000000 1.0
C      1  0.3955790000000  0.5084180000000  0.5053050000000 1.0
C      1  0.5550910000000  0.4862950000000  0.5767990000000 1.0
C      1  0.4564100000000  0.4298160000000  0.4991520000000 1.0
C      1  0.4535960000000  0.3923670000000  0.5382650000000 1.0
C      1  0.5794790000000  0.4984860000000  0.4372330000000 1.0
C      1  0.5443190000000  0.5119800000000  0.4895290000000 1.0
C      1  0.5306560000000  0.3955870000000  0.5473990000000 1.0
C      1  0.4934900000000  0.6000370000000  0.5425590000000 1.0
C      1  0.4902280000000  0.5412210000000  0.5194300000000 1.0
C      1  0.4780700000000  0.6112520000000  0.4933010000000 1.0
C      1  0.5755920000000  0.4483800000000  0.4541850000000 1.0
C      1  0.4198940000000  0.4521160000000  0.5494490000000 1.0
C      1  0.5462330000000  0.5733240000000  0.4319310000000 1.0
C      1  0.4324970000000  0.4435600000000  0.5190450000000 1.0
C      1  0.5110250000000  0.5173940000000  0.4844940000000 1.0
C      1  0.4274170000000  0.4771980000000  0.5697140000000 1.0
C      1  0.4279760000000  0.5666900000000  0.4982110000000 1.0
C      1  0.4487320000000  0.4725380000000  0.4750990000000 1.0
C      1  0.4011150000000  0.4999300000000  0.4786800000000 1.0
C      1  0.5407640000000  0.4437300000000  0.4550620000000 1.0
C      1  0.5806290000000  0.4784930000000  0.5693760000000 1.0
C      1  0.5538120000000  0.5238950000000  0.5176700000000 1.0
C      1  0.5587240000000  0.4084660000000  0.5066940000000 1.0
C      1  0.5212740000000  0.6007420000000  0.4666780000000 1.0
C      1  0.5308470000000  0.6004660000000  0.5158880000000 1.0
C      1  0.4383470000000  0.5263860000000  0.4921930000000 1.0
C      1  0.4647470000000  0.5717940000000  0.5669510000000 1.0
C      1  0.4800150000000  0.5188760000000  0.4988640000000 1.0
C      1  0.5046820000000  0.4344420000000  0.4692210000000 1.0
C      1  0.5738430000000  0.5190550000000  0.5638410000000 1.0
C      1  0.4656570000000  0.4105320000000  0.4619740000000 1.0
C      1  0.4819390000000  0.4659990000000  0.4781620000000 1.0
C      1  0.4661530000000  0.4714370000000  0.4285100000000 1.0
C      1  0.4303680000000  0.4764400000000  0.5103040000000 1.0
C      1  0.4543010000000  0.5058300000000  0.4710210000000 1.0
C      1  0.4663990000000  0.5507670000000  0.5410400000000 1.0
C      1  0.5325600000000  0.4766370000000  0.4576430000000 1.0
C      1  0.4520780000000  0.6083810000000  0.5081400000000 1.0
C      1  0.5030400000000  0.5574350000000  0.5552530000000 1.0
C      1  0.5246860000000  0.5245200000000  0.5621410000000 1.0
C      1  0.4481250000000  0.5314860000000  0.6039290000000 1.0
C      1  0.5944340000000  0.4493670000000  0.4785380000000 1.0
C      1  0.4305280000000  0.4137300000000  0.4925290000000 1.0
C      1  0.5564370000000  0.5763790000000  0.4591620000000 1.0
C      1  0.4349920000000  0.4492690000000  0.4544550000000 1.0
C      1  0.4049040000000  0.5580420000000  0.5173280000000 1.0
C      1  0.4941950000000  0.5697630000000  0.5029910000000 1.0
C      1  0.4473240000000  0.4219950000000  0.5407770000000 1.0
C      1  0.4982600000000  0.5033720000000  0.5653840000000 1.0
C      1  0.4999380000000  0.4134230000000  0.5094070000000 1.0
C      1  0.5688560000000  0.4995050000000  0.4113420000000 1.0
C      1  0.5249630000000  0.4110430000000  0.5887650000000 1.0
C      1  0.4549000000000  0.4950080000000  0.5659540000000 1.0
C      1  0.4697860000000  0.4446120000000  0.5333510000000 1.0
C      1  0.5026100000000  0.4864940000000  0.5294090000000 1.0
C      1  0.4686190000000  0.4986730000000  0.4156720000000 1.0
C      1  0.5223140000000  0.5840560000000  0.5448590000000 1.0
C      1  0.5245970000000  0.5057540000000  0.4427370000000 1.0
C      1  0.4967230000000  0.4560000000000  0.4492120000000 1.0
C      1  0.5367720000000  0.5350940000000  0.4392790000000 1.0
C      1  0.5994700000000  0.4828420000000  0.5167270000000 1.0
C      1  0.5369820000000  0.4798890000000  0.5506700000000 1.0
C      1  0.4251480000000  0.5485480000000  0.4700180000000 1.0
C      1  0.5643040000000  0.5944820000000  0.5146710000000 1.0
C      1  0.4292920000000  0.5979950000000  0.4977120000000 1.0
C      1  0.5007130000000  0.4041700000000  0.5387770000000 1.0
C      1  0.5107040000000  0.3994790000000  0.4874450000000 1.0
C      1  0.5335050000000  0.5542960000000  0.5689700000000 1.0
C      1  0.4774460000000  0.5904370000000  0.4732460000000 1.0
C      1  0.5203610000000  0.5547530000000  0.4593470000000 1.0
C      1  0.5032220000000  0.4852140000000  0.4321990000000 1.0
C      1  0.5111270000000  0.5762620000000  0.5823970000000 1.0
C      1  0.4035480000000  0.4884320000000  0.5511490000000 1.0
C      1  0.5187400000000  0.5851650000000  0.4916910000000 1.0
C      1  0.5830700000000  0.4666240000000  0.5381540000000 1.0
C      1  0.4482340000000  0.5466420000000  0.4230520000000 1.0
C      1  0.5315110000000  0.4547450000000  0.4242380000000 1.0
C      1  0.4696780000000  0.5325950000000  0.4591710000000 1.0
C      1  0.4859430000000  0.5898770000000  0.5707100000000 1.0
C      1  0.4689960000000  0.4677490000000  0.5518090000000 1.0
C      1  0.4836730000000  0.5331740000000  0.5644640000000 1.0
C      1  0.5801020000000  0.5441000000000  0.5516240000000 1.0
C      1  0.4828610000000  0.5933860000000  0.4460390000000 1.0
C      1  0.3908000000000  0.5699260000000  0.5368430000000 1.0
C      1  0.5124850000000  0.5007310000000  0.6063570000000 1.0
C      1  0.5417670000000  0.4321370000000  0.5685220000000 1.0
C      1  0.4045560000000  0.4890850000000  0.5242520000000 1.0
C      1  0.5517570000000  0.4144920000000  0.5343280000000 1.0
C      1  0.5397230000000  0.4828250000000  0.4094270000000 1.0
C      1  0.5143710000000  0.5820550000000  0.4399770000000 1.0
C      1  0.4594740000000  0.4315710000000  0.5697220000000 1.0
C      1  0.5864430000000  0.5446640000000  0.4822910000000 1.0
C      1  0.4853010000000  0.4936450000000  0.6017740000000 1.0
C      1  0.4779100000000  0.4900930000000  0.4543960000000 1.0
C      1  0.5086010000000  0.4249800000000  0.5638910000000 1.0
C      1  0.4132460000000  0.5178960000000  0.4613610000000 1.0
C      1  0.5492850000000  0.5097890000000  0.5450230000000 1.0
C      1  0.5109010000000  0.4844470000000  0.4762020000000 1.0
C      1  0.5704120000000  0.4377430000000  0.5508740000000 1.0
C      1  0.5333380000000  0.4422870000000  0.5376610000000 1.0
C      1  0.5508340000000  0.5570640000000  0.5177280000000 1.0
C      1  0.5554260000000  0.5625410000000  0.5509790000000 1.0
C      1  0.4868010000000  0.4443000000000  0.5039110000000 1.0
C      1  0.5085540000000  0.5220600000000  0.4031080000000 1.0
C      1  0.4354760000000  0.5643050000000  0.4454460000000 1.0
C      1  0.5531890000000  0.4651040000000  0.5273440000000 1.0
C      1  0.5544600000000  0.4618280000000  0.4977460000000 1.0
C      1  0.4884630000000  0.4491240000000  0.5725520000000 1.0
C      1  0.4272500000000  0.5046320000000  0.4413780000000 1.0
C      1  0.4071190000000  0.4310260000000  0.4980200000000 1.0
C      1  0.4619090000000  0.4428230000000  0.4346670000000 1.0
C      1  0.5703560000000  0.4338120000000  0.4909120000000 1.0
C      1  0.5154150000000  0.4577390000000  0.5164570000000 1.0
C      1  0.5536680000000  0.4152350000000  0.4684050000000 1.0
C      1  0.4529730000000  0.5018360000000  0.5106500000000 1.0
C      1  0.5850250000000  0.5368580000000  0.5213920000000 1.0
C      1  0.4403190000000  0.4173230000000  0.4648140000000 1.0
C      1  0.4671410000000  0.5153020000000  0.5868410000000 1.0
C      1  0.4882250000000  0.4214650000000  0.4313580000000 1.0
C      1  0.4987090000000  0.4491480000000  0.4168420000000 1.0
C      1  0.5591760000000  0.5373300000000  0.4776750000000 1.0
C      1  0.5403840000000  0.5166400000000  0.4041150000000 1.0
C      1  0.5990910000000  0.4746040000000  0.4897000000000 1.0
C      1  0.4164200000000  0.4741090000000  0.4796860000000 1.0
C      1  0.4244950000000  0.4771680000000  0.4380770000000 1.0
C      1  0.5220000000000  0.4233100000000  0.4353600000000 1.0
C      1  0.4771900000000  0.3849000000000  0.5433420000000 1.0
C      1  0.4997490000000  0.6137450000000  0.5120810000000 1.0
C      1  0.4562130000000  0.5597930000000  0.5098590000000 1.0
C      1  0.5620250000000  0.4876970000000  0.4823070000000 1.0
C      1  0.5383210000000  0.3962490000000  0.4868520000000 1.0
C      1  0.6040170000000  0.5253630000000  0.4759970000000 1.0
C      1  0.4994580000000  0.5391900000000  0.4221110000000 1.0
C      1  0.5405670000000  0.5621500000000  0.4856770000000 1.0
C      1  0.5074500000000  0.4742910000000  0.5603330000000 1.0
C      1  0.4741220000000  0.4682540000000  0.5967310000000 1.0
C      1  0.4906400000000  0.5012630000000  0.3980300000000 1.0
C      1  0.4466840000000  0.4681810000000  0.5944590000000 1.0
C      1  0.4627290000000  0.5758630000000  0.4279350000000 1.0
C      1  0.5485860000000  0.5480070000000  0.4144330000000 1.0
C      1  0.4726700000000  0.5861630000000  0.5236420000000 1.0
C      1  0.5549430000000  0.5935750000000  0.5459390000000 1.0
C      1  0.4966770000000  0.4039250000000  0.4592550000000 1.0
C      1  0.4103390000000  0.5321090000000  0.5073400000000 1.0
C      1  0.5006140000000  0.5276370000000  0.4537870000000 1.0
C      1  0.4726950000000  0.5575920000000  0.4806980000000 1.0
C      1  0.4054430000000  0.4462650000000  0.4730840000000 1.0
C      1  0.5106140000000  0.5197130000000  0.5315530000000 1.0
C      1  0.5821450000000  0.5669170000000  0.5057500000000 1.0
C      1  0.4530150000000  0.5184460000000  0.4330870000000 1.0
C      1  0.5633310000000  0.4764350000000  0.4517200000000 1.0
C      1  0.6024270000000  0.5098900000000  0.5208150000000 1.0
C      1  0.4704800000000  0.4954570000000  0.5360550000000 1.0
C      1  0.4893890000000  0.4889060000000  0.5012600000000 1.0
C      1  0.5917780000000  0.4978640000000  0.4689570000000 1.0
C      1  0.5079060000000  0.4754960000000  0.3999290000000 1.0
END
