TITL C-2848504-8560-294 -0.00174865552078484 125000 -377.279921477629 0 0 70 (C1) n - 1
REM
REM in /home/bkarasulu/work/CARBON/AIRSS/Generating-Clusters/AIREBO/with-SteepDescent/Only-C1/SD-CG-opt/Try1-1.4A-POS3A/HFTN-CG
REM
REM
REM
REM
REM
REM ./C.cell (11c1c37f851c82e70ff6c80c92926a4b)
REM
REM compiler GCC version 9.2.1 20190827 (Red Hat 9.2.1-1)
REM options -cpp -mtune=generic -march=x86-64 -g -O0 -fpre-include=/usr/include/finclude/math-vector-fortran.h
REM seed 1146265856 -1685515416 1372508588 385831565 -244771417 1030618391 -1455523325 1483734408 2129847 939864714 2072674747 -374923337 1480385956 -1860942828 590359117 -1493707190 -287668909 -513075081 1685871390 -1165520571 1227675909 -2132339659 575847135 -706462009 -1874422253 -132218887 2000182764 641709355 -1741889526 -537292625 -1015955604 -694361699 837351962
REM
CELL 1.54180   50.00000   50.00000   50.00000   90.00000   90.00000   90.00000
LATT -1
SFAC C  
C      1  0.5066120000000  0.4988300000000  0.5116270000000 1.0
C      1  0.4630340000000  0.5064170000000  0.5369560000000 1.0
C      1  0.5090060000000  0.4995910000000  0.5792870000000 1.0
C      1  0.5319880000000  0.5210950000000  0.4372120000000 1.0
C      1  0.4344950000000  0.4740800000000  0.5091760000000 1.0
C      1  0.5649160000000  0.4660400000000  0.5266010000000 1.0
C      1  0.5282890000000  0.5475830000000  0.5039680000000 1.0
C      1  0.5081700000000  0.5708280000000  0.4629930000000 1.0
C      1  0.5221250000000  0.4603610000000  0.5514040000000 1.0
C      1  0.4751010000000  0.4391960000000  0.4548640000000 1.0
C      1  0.4766190000000  0.5729890000000  0.5020330000000 1.0
C      1  0.6001430000000  0.4898870000000  0.4697020000000 1.0
C      1  0.5624580000000  0.5332670000000  0.5184490000000 1.0
C      1  0.4285700000000  0.5334670000000  0.4489630000000 1.0
C      1  0.4759310000000  0.5429820000000  0.5690270000000 1.0
C      1  0.5482120000000  0.5580250000000  0.5369160000000 1.0
C      1  0.4975990000000  0.4255020000000  0.4589580000000 1.0
C      1  0.4810680000000  0.5399560000000  0.4952920000000 1.0
C      1  0.4943690000000  0.4943960000000  0.5384060000000 1.0
C      1  0.5500500000000  0.5350200000000  0.5580740000000 1.0
C      1  0.5589750000000  0.4784410000000  0.4374910000000 1.0
C      1  0.4329610000000  0.5432430000000  0.4749360000000 1.0
C      1  0.4741150000000  0.4420970000000  0.5356310000000 1.0
C      1  0.4944070000000  0.4233840000000  0.5241240000000 1.0
C      1  0.4601620000000  0.4915020000000  0.5091040000000 1.0
C      1  0.5030100000000  0.4048440000000  0.5046660000000 1.0
C      1  0.4493860000000  0.4476170000000  0.5254850000000 1.0
C      1  0.5844220000000  0.5142320000000  0.5085150000000 1.0
C      1  0.5127570000000  0.4462780000000  0.5244430000000 1.0
C      1  0.4763000000000  0.4688790000000  0.4609520000000 1.0
C      1  0.4550870000000  0.5592070000000  0.4806610000000 1.0
C      1  0.5564160000000  0.5591730000000  0.4972710000000 1.0
C      1  0.5241540000000  0.4758130000000  0.5800890000000 1.0
C      1  0.5665260000000  0.4711010000000  0.4990370000000 1.0
C      1  0.4766950000000  0.5106720000000  0.4863910000000 1.0
C      1  0.5076940000000  0.4812850000000  0.4566930000000 1.0
C      1  0.5431530000000  0.5068100000000  0.5424630000000 1.0
C      1  0.4851600000000  0.5070690000000  0.4555690000000 1.0
C      1  0.4988920000000  0.5434220000000  0.5485580000000 1.0
C      1  0.4180150000000  0.4500160000000  0.5261780000000 1.0
C      1  0.5246450000000  0.4919610000000  0.4222370000000 1.0
C      1  0.5312490000000  0.5447230000000  0.4225770000000 1.0
C      1  0.5846250000000  0.4914850000000  0.4916520000000 1.0
C      1  0.5150710000000  0.5200360000000  0.4626640000000 1.0
C      1  0.5158520000000  0.4144840000000  0.4815660000000 1.0
C      1  0.4730790000000  0.5366740000000  0.5281810000000 1.0
C      1  0.5136340000000  0.4600670000000  0.5000090000000 1.0
C      1  0.4325680000000  0.5077600000000  0.5520060000000 1.0
C      1  0.4356250000000  0.5125400000000  0.4047670000000 1.0
C      1  0.5469410000000  0.4773510000000  0.5432080000000 1.0
C      1  0.4805750000000  0.4911320000000  0.5694480000000 1.0
C      1  0.5596040000000  0.5037950000000  0.4375170000000 1.0
C      1  0.4399640000000  0.5345940000000  0.5206820000000 1.0
C      1  0.5326130000000  0.5170140000000  0.5139590000000 1.0
C      1  0.5198970000000  0.5218940000000  0.5619000000000 1.0
C      1  0.5095940000000  0.5454360000000  0.4799880000000 1.0
C      1  0.5254550000000  0.4427540000000  0.4649950000000 1.0
C      1  0.4883070000000  0.4639220000000  0.5505800000000 1.0
C      1  0.4610620000000  0.5153540000000  0.5697130000000 1.0
C      1  0.4271510000000  0.5253740000000  0.4967630000000 1.0
C      1  0.4957480000000  0.5841120000000  0.5172930000000 1.0
C      1  0.4878950000000  0.4789430000000  0.4913480000000 1.0
C      1  0.5234390000000  0.4945560000000  0.4823930000000 1.0
C      1  0.5301980000000  0.4640470000000  0.4408580000000 1.0
C      1  0.4392320000000  0.5140710000000  0.4318380000000 1.0
C      1  0.4258610000000  0.4978700000000  0.4898020000000 1.0
C      1  0.5410440000000  0.4660850000000  0.4839320000000 1.0
C      1  0.4290260000000  0.4919640000000  0.4634360000000 1.0
C      1  0.5159720000000  0.5632330000000  0.5300270000000 1.0
C      1  0.4570280000000  0.4921710000000  0.4464930000000 1.0
END
