TITL C-2847949-8115-636 -0.00266971388626439 125000 -698.243117934496 0 0 127 (C1) n - 1
REM
REM in /home/bkarasulu/work/CARBON/AIRSS/Generating-Clusters/AIREBO/with-SteepDescent/Only-C1/SD-CG-opt/Try1-1.4A-POS3A/HFTN-CG
REM
REM
REM
REM
REM
REM ./C.cell (11c1c37f851c82e70ff6c80c92926a4b)
REM
REM compiler GCC version 9.2.1 20190827 (Red Hat 9.2.1-1)
REM options -cpp -mtune=generic -march=x86-64 -g -O0 -fpre-include=/usr/include/finclude/math-vector-fortran.h
REM seed 1964175035 1704926432 -500996943 -115844827 1975236861 -1952614044 576192068 1271385947 471185668 -1470847410 -807836729 2004919359 740271740 1335014561 1316887933 1250167193 1431686203 197785486 -1404836961 951390221 994143177 -1886609961 544320829 -2109870828 80681438 122147671 -192931658 1968602426 1802909851 -586023610 -811763700 910311634 1305073498
REM
CELL 1.54180   50.00000   50.00000   50.00000   90.00000   90.00000   90.00000
LATT -1
SFAC C  
C      1  0.4740700000000  0.4088490000000  0.4747160000000 1.0
C      1  0.4718960000000  0.5185510000000  0.4573840000000 1.0
C      1  0.5208180000000  0.5604770000000  0.5826580000000 1.0
C      1  0.4816900000000  0.4359620000000  0.5538290000000 1.0
C      1  0.5195680000000  0.6067820000000  0.5171930000000 1.0
C      1  0.5307280000000  0.4400640000000  0.5190260000000 1.0
C      1  0.5777490000000  0.4714720000000  0.5476080000000 1.0
C      1  0.5416160000000  0.5592460000000  0.4380380000000 1.0
C      1  0.4555890000000  0.4332800000000  0.4681180000000 1.0
C      1  0.4702780000000  0.4805190000000  0.5517500000000 1.0
C      1  0.4128530000000  0.5068450000000  0.4820620000000 1.0
C      1  0.5176370000000  0.4247150000000  0.4470340000000 1.0
C      1  0.5565600000000  0.4551380000000  0.5024230000000 1.0
C      1  0.4439020000000  0.4929870000000  0.4338080000000 1.0
C      1  0.5145080000000  0.6015850000000  0.4433370000000 1.0
C      1  0.4962150000000  0.5189240000000  0.6271920000000 1.0
C      1  0.5516800000000  0.4783300000000  0.4366460000000 1.0
C      1  0.5758030000000  0.4506510000000  0.5281970000000 1.0
C      1  0.5075300000000  0.5769460000000  0.4935860000000 1.0
C      1  0.4574210000000  0.5200920000000  0.4183270000000 1.0
C      1  0.5556520000000  0.5739350000000  0.4960460000000 1.0
C      1  0.4352860000000  0.4433730000000  0.5672320000000 1.0
C      1  0.5641020000000  0.5096830000000  0.4626220000000 1.0
C      1  0.4230620000000  0.4768130000000  0.5307050000000 1.0
C      1  0.5081920000000  0.4534870000000  0.4074390000000 1.0
C      1  0.5200490000000  0.4918300000000  0.5172220000000 1.0
C      1  0.4567270000000  0.4895510000000  0.4025010000000 1.0
C      1  0.5052270000000  0.5318020000000  0.5021140000000 1.0
C      1  0.4330520000000  0.4226860000000  0.4913320000000 1.0
C      1  0.5492320000000  0.5042610000000  0.5051860000000 1.0
C      1  0.5457750000000  0.5397970000000  0.5790970000000 1.0
C      1  0.5531320000000  0.5330020000000  0.5188020000000 1.0
C      1  0.4998950000000  0.5150460000000  0.5283410000000 1.0
C      1  0.5589220000000  0.4829770000000  0.4830220000000 1.0
C      1  0.4207800000000  0.5374660000000  0.4578070000000 1.0
C      1  0.5013520000000  0.4703440000000  0.5575440000000 1.0
C      1  0.5693480000000  0.4459340000000  0.4722040000000 1.0
C      1  0.5350380000000  0.4719430000000  0.4645630000000 1.0
C      1  0.5510870000000  0.4825950000000  0.5641680000000 1.0
C      1  0.5724920000000  0.5030670000000  0.5377230000000 1.0
C      1  0.5152810000000  0.5775200000000  0.4297660000000 1.0
C      1  0.4939340000000  0.4938120000000  0.5810210000000 1.0
C      1  0.5112360000000  0.4339830000000  0.5706560000000 1.0
C      1  0.4330980000000  0.4731220000000  0.4781600000000 1.0
C      1  0.5425340000000  0.5978610000000  0.5130690000000 1.0
C      1  0.4936770000000  0.5193630000000  0.6013820000000 1.0
C      1  0.5012730000000  0.4306960000000  0.4259860000000 1.0
C      1  0.4846170000000  0.4442160000000  0.5866820000000 1.0
C      1  0.5039820000000  0.4157920000000  0.4750720000000 1.0
C      1  0.5179080000000  0.5482470000000  0.4681120000000 1.0
C      1  0.5632800000000  0.5421390000000  0.4580170000000 1.0
C      1  0.5772090000000  0.4659920000000  0.4518430000000 1.0
C      1  0.4936050000000  0.5687100000000  0.4635710000000 1.0
C      1  0.4410460000000  0.4960800000000  0.4995250000000 1.0
C      1  0.4573580000000  0.4421220000000  0.5068420000000 1.0
C      1  0.5076360000000  0.5193880000000  0.4156820000000 1.0
C      1  0.5204880000000  0.5975470000000  0.4698120000000 1.0
C      1  0.5002790000000  0.4259680000000  0.5135280000000 1.0
C      1  0.5918910000000  0.5407960000000  0.4959410000000 1.0
C      1  0.4163400000000  0.4892730000000  0.4533720000000 1.0
C      1  0.4262040000000  0.5307660000000  0.5363810000000 1.0
C      1  0.4312510000000  0.4453670000000  0.5277550000000 1.0
C      1  0.4349230000000  0.5535100000000  0.5166110000000 1.0
C      1  0.4760600000000  0.5261590000000  0.4871510000000 1.0
C      1  0.5652720000000  0.5127050000000  0.5711550000000 1.0
C      1  0.5082220000000  0.5712930000000  0.5561840000000 1.0
C      1  0.5316270000000  0.4608370000000  0.5662270000000 1.0
C      1  0.5025830000000  0.4902240000000  0.4218730000000 1.0
C      1  0.5921650000000  0.4782640000000  0.4776590000000 1.0
C      1  0.4517040000000  0.5244190000000  0.5537220000000 1.0
C      1  0.4608940000000  0.4804820000000  0.4605880000000 1.0
C      1  0.4925660000000  0.5452310000000  0.5821170000000 1.0
C      1  0.5388050000000  0.5041510000000  0.5427660000000 1.0
C      1  0.4507590000000  0.4421380000000  0.4396140000000 1.0
C      1  0.4980070000000  0.5195210000000  0.5620330000000 1.0
C      1  0.4780340000000  0.4079280000000  0.5051090000000 1.0
C      1  0.5356710000000  0.5314090000000  0.4219310000000 1.0
C      1  0.4666000000000  0.5976860000000  0.4953450000000 1.0
C      1  0.4934590000000  0.4555950000000  0.5285550000000 1.0
C      1  0.5091790000000  0.4863700000000  0.4723130000000 1.0
C      1  0.5374990000000  0.4327510000000  0.5495850000000 1.0
C      1  0.4385360000000  0.4729700000000  0.5571750000000 1.0
C      1  0.5936240000000  0.5117670000000  0.5136310000000 1.0
C      1  0.5849040000000  0.5413460000000  0.5276160000000 1.0
C      1  0.4718210000000  0.5636970000000  0.5715500000000 1.0
C      1  0.5297960000000  0.5547910000000  0.5070640000000 1.0
C      1  0.5075760000000  0.4470830000000  0.4878970000000 1.0
C      1  0.4893700000000  0.5930700000000  0.5171740000000 1.0
C      1  0.4779580000000  0.4697630000000  0.5945370000000 1.0
C      1  0.4570160000000  0.4913720000000  0.5973080000000 1.0
C      1  0.5125010000000  0.5177180000000  0.4730380000000 1.0
C      1  0.5228950000000  0.5540300000000  0.5390180000000 1.0
C      1  0.4711830000000  0.5001280000000  0.5048530000000 1.0
C      1  0.4854240000000  0.5346570000000  0.4174390000000 1.0
C      1  0.5472370000000  0.4146020000000  0.4933340000000 1.0
C      1  0.4554870000000  0.5567230000000  0.5432480000000 1.0
C      1  0.4729910000000  0.4433280000000  0.4227650000000 1.0
C      1  0.4704070000000  0.5061960000000  0.5365260000000 1.0
C      1  0.4807520000000  0.5794870000000  0.5427160000000 1.0
C      1  0.5296110000000  0.4718500000000  0.4171600000000 1.0
C      1  0.4803960000000  0.4719680000000  0.4061410000000 1.0
C      1  0.5645910000000  0.5399120000000  0.5507760000000 1.0
C      1  0.4302990000000  0.4619630000000  0.4367970000000 1.0
C      1  0.5751370000000  0.5557010000000  0.4797810000000 1.0
C      1  0.5584870000000  0.4219220000000  0.5245750000000 1.0
C      1  0.4496390000000  0.4111520000000  0.5186980000000 1.0
C      1  0.4699250000000  0.4594120000000  0.4845870000000 1.0
C      1  0.4637170000000  0.5734100000000  0.4763840000000 1.0
C      1  0.5390590000000  0.5715850000000  0.4696350000000 1.0
C      1  0.5596880000000  0.5089210000000  0.4288960000000 1.0
C      1  0.4438430000000  0.4998040000000  0.5744440000000 1.0
C      1  0.4034610000000  0.4820860000000  0.5034270000000 1.0
C      1  0.5364490000000  0.4387840000000  0.4719740000000 1.0
C      1  0.4237620000000  0.5384820000000  0.4880760000000 1.0
C      1  0.4199160000000  0.4527840000000  0.4972080000000 1.0
C      1  0.5244670000000  0.3972020000000  0.4896650000000 1.0
C      1  0.4484680000000  0.5369830000000  0.4442490000000 1.0
C      1  0.4178170000000  0.5076060000000  0.5215160000000 1.0
C      1  0.4594660000000  0.5659450000000  0.4447920000000 1.0
C      1  0.4555210000000  0.5484120000000  0.4915340000000 1.0
C      1  0.4946950000000  0.4757660000000  0.5012020000000 1.0
C      1  0.4532680000000  0.4280710000000  0.5470530000000 1.0
C      1  0.6068280000000  0.4895750000000  0.4971240000000 1.0
C      1  0.4887190000000  0.4919490000000  0.4499390000000 1.0
C      1  0.5268300000000  0.5281410000000  0.5545610000000 1.0
C      1  0.4882490000000  0.5617350000000  0.4306750000000 1.0
C      1  0.5335490000000  0.5157110000000  0.4509240000000 1.0
END
