TITL C-2847952-8118-95 0.000319217946824176 125000 -889.862015407634 0 0 167 (C1) n - 1
REM
REM in /home/bkarasulu/work/CARBON/AIRSS/Generating-Clusters/AIREBO/with-SteepDescent/Only-C1/SD-CG-opt/Try1-1.4A-POS3A/HFTN-CG
REM
REM
REM
REM
REM
REM ./C.cell (11c1c37f851c82e70ff6c80c92926a4b)
REM
REM compiler GCC version 9.2.1 20190827 (Red Hat 9.2.1-1)
REM options -cpp -mtune=generic -march=x86-64 -g -O0 -fpre-include=/usr/include/finclude/math-vector-fortran.h
REM seed 1148872770 -1559821875 154685321 -1740536313 1972037628 1385125968 -137017136 -614457298 -948354105 1397853022 -1169677788 1492482025 796614858 -423901136 -1224619587 310342846 -1769792152 975088753 -577098561 -10364898 -366108668 616657845 2117740446 171046407 -2097514267 -229726829 1213844968 -1366418833 438628862 1162905237 -1104742437 139808831 1124367067
REM
CELL 1.54180   50.00000   50.00000   50.00000   90.00000   90.00000   90.00000
LATT -1
SFAC C  
C      1  0.4584170000000  0.5513740000000  0.4578060000000 1.0
C      1  0.5542820000000  0.5291890000000  0.5775380000000 1.0
C      1  0.5060710000000  0.4187910000000  0.5337820000000 1.0
C      1  0.4603300000000  0.4748170000000  0.4861410000000 1.0
C      1  0.4991330000000  0.5173080000000  0.5846780000000 1.0
C      1  0.5049460000000  0.6115650000000  0.4958270000000 1.0
C      1  0.5857600000000  0.4887540000000  0.5355610000000 1.0
C      1  0.5317060000000  0.4355040000000  0.4719930000000 1.0
C      1  0.5364470000000  0.5029490000000  0.4032010000000 1.0
C      1  0.4365060000000  0.4963080000000  0.5862100000000 1.0
C      1  0.5151390000000  0.5162270000000  0.5259810000000 1.0
C      1  0.4410150000000  0.5591360000000  0.5074570000000 1.0
C      1  0.5292290000000  0.4697450000000  0.5813760000000 1.0
C      1  0.4153030000000  0.4293750000000  0.4771350000000 1.0
C      1  0.4984290000000  0.4246370000000  0.5841400000000 1.0
C      1  0.4696960000000  0.4173920000000  0.4540490000000 1.0
C      1  0.6162310000000  0.4980930000000  0.4895380000000 1.0
C      1  0.4229530000000  0.5755150000000  0.5311750000000 1.0
C      1  0.4306900000000  0.5314250000000  0.4615790000000 1.0
C      1  0.4354200000000  0.4247010000000  0.5473720000000 1.0
C      1  0.4456740000000  0.5949710000000  0.5245890000000 1.0
C      1  0.5424200000000  0.4616710000000  0.5445720000000 1.0
C      1  0.5768590000000  0.4617990000000  0.4381930000000 1.0
C      1  0.4443010000000  0.5163120000000  0.5194350000000 1.0
C      1  0.5028750000000  0.5608160000000  0.4184630000000 1.0
C      1  0.4036640000000  0.5315600000000  0.4821010000000 1.0
C      1  0.4517990000000  0.4631810000000  0.5699690000000 1.0
C      1  0.5393520000000  0.4717180000000  0.3947100000000 1.0
C      1  0.4892070000000  0.4988350000000  0.4998270000000 1.0
C      1  0.5081230000000  0.4165300000000  0.4433440000000 1.0
C      1  0.5929610000000  0.5039390000000  0.5096320000000 1.0
C      1  0.4286290000000  0.5002880000000  0.4480290000000 1.0
C      1  0.5158210000000  0.5353130000000  0.4204060000000 1.0
C      1  0.4555900000000  0.5756120000000  0.4815040000000 1.0
C      1  0.4905400000000  0.5362970000000  0.5578100000000 1.0
C      1  0.5673280000000  0.5014540000000  0.4923440000000 1.0
C      1  0.5429090000000  0.4805750000000  0.5017410000000 1.0
C      1  0.5528560000000  0.5636230000000  0.4564680000000 1.0
C      1  0.4614140000000  0.4147080000000  0.4797830000000 1.0
C      1  0.5288180000000  0.3949450000000  0.5560440000000 1.0
C      1  0.5175940000000  0.4585750000000  0.4059050000000 1.0
C      1  0.4621990000000  0.5499950000000  0.5916580000000 1.0
C      1  0.5050430000000  0.4877320000000  0.5344040000000 1.0
C      1  0.5125730000000  0.5154420000000  0.4864950000000 1.0
C      1  0.5409630000000  0.5140050000000  0.5426970000000 1.0
C      1  0.5125730000000  0.3946960000000  0.4673270000000 1.0
C      1  0.4144890000000  0.5069870000000  0.5110030000000 1.0
C      1  0.4942540000000  0.5677240000000  0.5449950000000 1.0
C      1  0.5551150000000  0.5448200000000  0.5132350000000 1.0
C      1  0.5299430000000  0.5749860000000  0.4724170000000 1.0
C      1  0.5230440000000  0.4900200000000  0.6083230000000 1.0
C      1  0.4909470000000  0.4439410000000  0.4538610000000 1.0
C      1  0.5452420000000  0.4853280000000  0.4315330000000 1.0
C      1  0.5610360000000  0.5218840000000  0.3963300000000 1.0
C      1  0.5232430000000  0.4158370000000  0.5735850000000 1.0
C      1  0.5535980000000  0.4877250000000  0.5332300000000 1.0
C      1  0.5149920000000  0.4659240000000  0.5101920000000 1.0
C      1  0.4301760000000  0.5451460000000  0.4304610000000 1.0
C      1  0.5599200000000  0.4844110000000  0.5819160000000 1.0
C      1  0.4380610000000  0.4225260000000  0.4920310000000 1.0
C      1  0.4854630000000  0.5975850000000  0.4543010000000 1.0
C      1  0.5440460000000  0.5353270000000  0.4297850000000 1.0
C      1  0.4616260000000  0.5669040000000  0.5352780000000 1.0
C      1  0.5136620000000  0.4614460000000  0.4368170000000 1.0
C      1  0.5975060000000  0.4622150000000  0.5334910000000 1.0
C      1  0.5677470000000  0.4591330000000  0.4928270000000 1.0
C      1  0.4137600000000  0.4692290000000  0.4988590000000 1.0
C      1  0.4438240000000  0.4665480000000  0.5146920000000 1.0
C      1  0.5598880000000  0.5926900000000  0.5104600000000 1.0
C      1  0.5257960000000  0.5582470000000  0.5365270000000 1.0
C      1  0.4771520000000  0.4372530000000  0.5278420000000 1.0
C      1  0.5876930000000  0.5353400000000  0.5449910000000 1.0
C      1  0.4816330000000  0.4028190000000  0.5478860000000 1.0
C      1  0.5972450000000  0.5513580000000  0.4978340000000 1.0
C      1  0.5693770000000  0.5415570000000  0.4625810000000 1.0
C      1  0.6115680000000  0.5107160000000  0.4652630000000 1.0
C      1  0.4855670000000  0.4201950000000  0.4996450000000 1.0
C      1  0.5085650000000  0.6014530000000  0.4702850000000 1.0
C      1  0.5520870000000  0.5683120000000  0.4278600000000 1.0
C      1  0.4707940000000  0.4870420000000  0.5549000000000 1.0
C      1  0.5139110000000  0.4491000000000  0.5373230000000 1.0
C      1  0.4746360000000  0.4156860000000  0.5714950000000 1.0
C      1  0.5014040000000  0.5890100000000  0.5194580000000 1.0
C      1  0.4797620000000  0.5373330000000  0.4915540000000 1.0
C      1  0.5745500000000  0.5680630000000  0.5034910000000 1.0
C      1  0.5005030000000  0.5626100000000  0.4665080000000 1.0
C      1  0.4724910000000  0.5063840000000  0.6027820000000 1.0
C      1  0.5952100000000  0.5470820000000  0.4327930000000 1.0
C      1  0.5042620000000  0.5131430000000  0.3990660000000 1.0
C      1  0.5003570000000  0.5132770000000  0.4387720000000 1.0
C      1  0.4921740000000  0.4768960000000  0.4777700000000 1.0
C      1  0.5682400000000  0.4797560000000  0.4657860000000 1.0
C      1  0.4131690000000  0.5405590000000  0.5135030000000 1.0
C      1  0.5550550000000  0.5446170000000  0.5472380000000 1.0
C      1  0.4032260000000  0.4859770000000  0.5429730000000 1.0
C      1  0.4475320000000  0.6028040000000  0.4985720000000 1.0
C      1  0.6025000000000  0.5418330000000  0.4656060000000 1.0
C      1  0.4858720000000  0.5766830000000  0.4918300000000 1.0
C      1  0.5614470000000  0.4350900000000  0.5435070000000 1.0
C      1  0.4621060000000  0.5336640000000  0.4290070000000 1.0
C      1  0.5806400000000  0.4435220000000  0.5186670000000 1.0
C      1  0.3979030000000  0.4858300000000  0.4529140000000 1.0
C      1  0.5326820000000  0.4963790000000  0.4734050000000 1.0
C      1  0.4768360000000  0.3949080000000  0.5206380000000 1.0
C      1  0.4628030000000  0.5193450000000  0.5478030000000 1.0
C      1  0.4994100000000  0.5315170000000  0.4645120000000 1.0
C      1  0.4447500000000  0.4346450000000  0.5189640000000 1.0
C      1  0.4778180000000  0.5330990000000  0.4046620000000 1.0
C      1  0.4620490000000  0.5042390000000  0.4434180000000 1.0
C      1  0.5049700000000  0.5842350000000  0.5717730000000 1.0
C      1  0.4527570000000  0.5483870000000  0.5624030000000 1.0
C      1  0.5804860000000  0.5099670000000  0.4559960000000 1.0
C      1  0.4873990000000  0.4574070000000  0.5532520000000 1.0
C      1  0.5291900000000  0.5919650000000  0.5393000000000 1.0
C      1  0.4069580000000  0.4976730000000  0.4815160000000 1.0
C      1  0.4521580000000  0.5913140000000  0.4515380000000 1.0
C      1  0.3921260000000  0.4711710000000  0.5218710000000 1.0
C      1  0.4359890000000  0.4672650000000  0.4445650000000 1.0
C      1  0.5981500000000  0.5320250000000  0.5187080000000 1.0
C      1  0.4813160000000  0.4953970000000  0.4168170000000 1.0
C      1  0.5117450000000  0.5660140000000  0.5925390000000 1.0
C      1  0.4905380000000  0.5482410000000  0.5958990000000 1.0
C      1  0.5678390000000  0.4726430000000  0.4103860000000 1.0
C      1  0.4519380000000  0.4327790000000  0.5680580000000 1.0
C      1  0.5491520000000  0.5104500000000  0.4486690000000 1.0
C      1  0.4452550000000  0.4639420000000  0.4153280000000 1.0
C      1  0.4348340000000  0.5778200000000  0.4344880000000 1.0
C      1  0.5087420000000  0.4869110000000  0.4543140000000 1.0
C      1  0.4335690000000  0.4760560000000  0.5460100000000 1.0
C      1  0.4298650000000  0.5135650000000  0.4167470000000 1.0
C      1  0.5301740000000  0.4011760000000  0.5226230000000 1.0
C      1  0.4825180000000  0.5680050000000  0.4404510000000 1.0
C      1  0.5554230000000  0.4169040000000  0.5178960000000 1.0
C      1  0.4795110000000  0.4211030000000  0.4236410000000 1.0
C      1  0.4617080000000  0.4596210000000  0.4589990000000 1.0
C      1  0.4595160000000  0.4768650000000  0.5979530000000 1.0
C      1  0.5674770000000  0.4334100000000  0.4389230000000 1.0
C      1  0.3968340000000  0.4111950000000  0.4681950000000 1.0
C      1  0.5413480000000  0.5204440000000  0.5035370000000 1.0
C      1  0.5342520000000  0.5706490000000  0.5059070000000 1.0
C      1  0.4934620000000  0.4809280000000  0.6002780000000 1.0
C      1  0.4327130000000  0.5075830000000  0.5584330000000 1.0
C      1  0.4590880000000  0.5031840000000  0.4741160000000 1.0
C      1  0.5745420000000  0.5063770000000  0.5624160000000 1.0
C      1  0.5416150000000  0.4399800000000  0.5705240000000 1.0
C      1  0.4131340000000  0.4590670000000  0.4673520000000 1.0
C      1  0.5056860000000  0.5522470000000  0.5045430000000 1.0
C      1  0.5753720000000  0.5378910000000  0.4168200000000 1.0
C      1  0.5549520000000  0.5789350000000  0.5536480000000 1.0
C      1  0.4253670000000  0.5651390000000  0.5563740000000 1.0
C      1  0.4988850000000  0.4545690000000  0.5837330000000 1.0
C      1  0.5363220000000  0.5521820000000  0.5951400000000 1.0
C      1  0.4836870000000  0.5228650000000  0.5211860000000 1.0
C      1  0.5092420000000  0.4916550000000  0.5647450000000 1.0
C      1  0.4527520000000  0.5292950000000  0.6080550000000 1.0
C      1  0.5538150000000  0.4316280000000  0.4917870000000 1.0
C      1  0.5409260000000  0.4253910000000  0.4414920000000 1.0
C      1  0.5031690000000  0.4456770000000  0.4855540000000 1.0
C      1  0.4492460000000  0.4927770000000  0.4058020000000 1.0
C      1  0.4065120000000  0.5197430000000  0.5403790000000 1.0
C      1  0.5408540000000  0.4626350000000  0.4550560000000 1.0
C      1  0.4893430000000  0.4655560000000  0.4054490000000 1.0
C      1  0.4485590000000  0.5306070000000  0.4905290000000 1.0
C      1  0.5299580000000  0.5195840000000  0.5988450000000 1.0
C      1  0.4738150000000  0.4801020000000  0.5232990000000 1.0
C      1  0.5118170000000  0.4001800000000  0.4948250000000 1.0
C      1  0.4692910000000  0.4465490000000  0.4120770000000 1.0
END
