TITL C-2847950-6905-212 -0.00199878219642659 125000 -501.75646337334 0 0 92 (C1) n - 1
REM
REM in /home/bkarasulu/work/CARBON/AIRSS/Generating-Clusters/AIREBO/with-SteepDescent/Only-C1/SD-CG-opt/Try1-1.4A-POS3A/HFTN-CG
REM
REM
REM
REM
REM
REM ./C.cell (11c1c37f851c82e70ff6c80c92926a4b)
REM
REM compiler GCC version 9.2.1 20190827 (Red Hat 9.2.1-1)
REM options -cpp -mtune=generic -march=x86-64 -g -O0 -fpre-include=/usr/include/finclude/math-vector-fortran.h
REM seed 940136645 -136160232 -630490741 911981724 -1231928780 -2016767114 -1370588848 -815031306 935994686 -994030098 1969438491 1419651485 -387544904 -1611176546 -1335307061 2124554484 -1926637754 67251549 345853279 -343011821 -59711345 458881603 -563503705 -1319153487 -799727041 -1754451971 1464098977 2104715522 418635237 -1148388439 616667233 -2091371424 442232432
REM
CELL 1.54180   50.00000   50.00000   50.00000   90.00000   90.00000   90.00000
LATT -1
SFAC C  
C      1  0.5609510000000  0.5206130000000  0.4973090000000 1.0
C      1  0.4546620000000  0.4598980000000  0.5408290000000 1.0
C      1  0.4793320000000  0.4627990000000  0.5022110000000 1.0
C      1  0.5267520000000  0.5370010000000  0.5568060000000 1.0
C      1  0.4751150000000  0.4749070000000  0.4618670000000 1.0
C      1  0.4575190000000  0.5062590000000  0.4793080000000 1.0
C      1  0.5736890000000  0.4788110000000  0.5239450000000 1.0
C      1  0.5271270000000  0.4732740000000  0.5475010000000 1.0
C      1  0.5063480000000  0.5593570000000  0.5508480000000 1.0
C      1  0.4096990000000  0.4712930000000  0.5091310000000 1.0
C      1  0.5232900000000  0.5136040000000  0.5323670000000 1.0
C      1  0.5393870000000  0.4967720000000  0.4875950000000 1.0
C      1  0.5355810000000  0.4259880000000  0.4937500000000 1.0
C      1  0.5433040000000  0.4991730000000  0.4126900000000 1.0
C      1  0.4844940000000  0.5325070000000  0.4558590000000 1.0
C      1  0.5019100000000  0.5319090000000  0.4319280000000 1.0
C      1  0.5365490000000  0.5681090000000  0.5136820000000 1.0
C      1  0.5383400000000  0.4877140000000  0.5756010000000 1.0
C      1  0.4511560000000  0.5359660000000  0.4349040000000 1.0
C      1  0.5672840000000  0.4551410000000  0.5056360000000 1.0
C      1  0.5542080000000  0.5055690000000  0.4581350000000 1.0
C      1  0.5048820000000  0.4937500000000  0.5766900000000 1.0
C      1  0.4048220000000  0.4832700000000  0.4829820000000 1.0
C      1  0.5839420000000  0.4743720000000  0.4846660000000 1.0
C      1  0.5557270000000  0.5045420000000  0.5371620000000 1.0
C      1  0.5559130000000  0.5124790000000  0.5688850000000 1.0
C      1  0.5087320000000  0.5723090000000  0.5261110000000 1.0
C      1  0.5089420000000  0.5111220000000  0.4924590000000 1.0
C      1  0.5560150000000  0.4296850000000  0.5196890000000 1.0
C      1  0.4827880000000  0.5655580000000  0.4781130000000 1.0
C      1  0.5138310000000  0.4240950000000  0.4675160000000 1.0
C      1  0.5835730000000  0.4994850000000  0.4538030000000 1.0
C      1  0.4245550000000  0.4811690000000  0.4622420000000 1.0
C      1  0.4288410000000  0.5406760000000  0.4814380000000 1.0
C      1  0.5130080000000  0.5588170000000  0.4830190000000 1.0
C      1  0.4887480000000  0.5047090000000  0.4710480000000 1.0
C      1  0.4471050000000  0.4596240000000  0.5016660000000 1.0
C      1  0.5450900000000  0.5170870000000  0.4340810000000 1.0
C      1  0.4322310000000  0.5025220000000  0.5546360000000 1.0
C      1  0.5050400000000  0.4106270000000  0.4961550000000 1.0
C      1  0.5160390000000  0.4639860000000  0.4690600000000 1.0
C      1  0.5022010000000  0.4553250000000  0.5596430000000 1.0
C      1  0.5330660000000  0.5848730000000  0.4757920000000 1.0
C      1  0.4806170000000  0.4566040000000  0.4272100000000 1.0
C      1  0.3977780000000  0.5259850000000  0.5017390000000 1.0
C      1  0.5869580000000  0.5010710000000  0.4935850000000 1.0
C      1  0.5457370000000  0.4634870000000  0.4847000000000 1.0
C      1  0.3887370000000  0.5065590000000  0.4844000000000 1.0
C      1  0.5357250000000  0.5554810000000  0.4587940000000 1.0
C      1  0.4945400000000  0.5137850000000  0.4128560000000 1.0
C      1  0.4436540000000  0.5055980000000  0.4482670000000 1.0
C      1  0.5289310000000  0.4771190000000  0.4197720000000 1.0
C      1  0.4326140000000  0.4802070000000  0.5326330000000 1.0
C      1  0.5585550000000  0.5434970000000  0.5210910000000 1.0
C      1  0.4563270000000  0.4364720000000  0.5216080000000 1.0
C      1  0.5282120000000  0.5382200000000  0.4369890000000 1.0
C      1  0.4879720000000  0.5790870000000  0.5081900000000 1.0
C      1  0.4711210000000  0.4915060000000  0.5801490000000 1.0
C      1  0.4452850000000  0.4993270000000  0.5785760000000 1.0
C      1  0.4604010000000  0.5809830000000  0.5213960000000 1.0
C      1  0.4519410000000  0.5582190000000  0.5440110000000 1.0
C      1  0.5586000000000  0.5415290000000  0.5514240000000 1.0
C      1  0.4622540000000  0.5389470000000  0.4832760000000 1.0
C      1  0.5208300000000  0.5383130000000  0.5089980000000 1.0
C      1  0.4651890000000  0.5596630000000  0.4495890000000 1.0
C      1  0.4422660000000  0.4931820000000  0.5027140000000 1.0
C      1  0.5157410000000  0.4352190000000  0.5434980000000 1.0
C      1  0.5436990000000  0.4364760000000  0.5448250000000 1.0
C      1  0.4721450000000  0.5239140000000  0.5447440000000 1.0
C      1  0.4943190000000  0.5018400000000  0.5464150000000 1.0
C      1  0.5442570000000  0.4367210000000  0.4629380000000 1.0
C      1  0.4771520000000  0.4206780000000  0.5130980000000 1.0
C      1  0.5723510000000  0.4700260000000  0.4557970000000 1.0
C      1  0.5261140000000  0.4838540000000  0.5161350000000 1.0
C      1  0.5520530000000  0.5520100000000  0.4881940000000 1.0
C      1  0.4396710000000  0.5274930000000  0.5383440000000 1.0
C      1  0.4805680000000  0.5516970000000  0.5588650000000 1.0
C      1  0.4476420000000  0.4667520000000  0.4717130000000 1.0
C      1  0.4787100000000  0.4726960000000  0.5550620000000 1.0
C      1  0.4291090000000  0.5231120000000  0.5103070000000 1.0
C      1  0.5198590000000  0.5221830000000  0.5835990000000 1.0
C      1  0.4986240000000  0.4821390000000  0.4179750000000 1.0
C      1  0.4192550000000  0.5267060000000  0.4590270000000 1.0
C      1  0.4680190000000  0.4883410000000  0.4314490000000 1.0
C      1  0.5870850000000  0.5078970000000  0.5244400000000 1.0
C      1  0.4860400000000  0.5233480000000  0.5141020000000 1.0
C      1  0.5504960000000  0.4571760000000  0.5668660000000 1.0
C      1  0.5089700000000  0.4628610000000  0.5005260000000 1.0
C      1  0.5049200000000  0.4359060000000  0.5169590000000 1.0
C      1  0.5403730000000  0.4650280000000  0.4453260000000 1.0
C      1  0.4639870000000  0.5477580000000  0.5139860000000 1.0
C      1  0.4928110000000  0.4465800000000  0.4550870000000 1.0
END
