TITL C-2848501-3133-565 -0.00160482115652604 125000 -776.724909754794 0 0 145 (C1) n - 1
REM
REM in /home/bkarasulu/work/CARBON/AIRSS/Generating-Clusters/AIREBO/with-SteepDescent/Only-C1/SD-CG-opt/Try1-1.4A-POS3A/HFTN-CG
REM
REM
REM
REM
REM
REM ./C.cell (11c1c37f851c82e70ff6c80c92926a4b)
REM
REM compiler GCC version 9.2.1 20190827 (Red Hat 9.2.1-1)
REM options -cpp -mtune=generic -march=x86-64 -g -O0 -fpre-include=/usr/include/finclude/math-vector-fortran.h
REM seed -372161539 -579766100 -687847503 -1389290739 61163286 -1050280426 -1559090401 1758105092 1233525752 1130388732 -1223887860 -382747190 -521924367 -1990105658 901240547 -846642852 -101807953 726063026 1110915078 -2114091969 -1892889041 -2040362338 -1807046367 -1677513859 589788559 -7305647 554458005 -1881948265 -737632790 -50108305 1273730619 -1755006936 540142330
REM
CELL 1.54180   50.00000   50.00000   50.00000   90.00000   90.00000   90.00000
LATT -1
SFAC C  
C      1  0.5096720000000  0.4920780000000  0.5690420000000 1.0
C      1  0.4349910000000  0.5645470000000  0.4585950000000 1.0
C      1  0.5120710000000  0.4416480000000  0.4464890000000 1.0
C      1  0.5082730000000  0.5094470000000  0.5432370000000 1.0
C      1  0.5829550000000  0.5191350000000  0.4305180000000 1.0
C      1  0.4595200000000  0.5416050000000  0.4171480000000 1.0
C      1  0.4754440000000  0.4068540000000  0.5091080000000 1.0
C      1  0.5585000000000  0.4562380000000  0.4308410000000 1.0
C      1  0.4758590000000  0.4807250000000  0.4244820000000 1.0
C      1  0.4529040000000  0.4121010000000  0.4562910000000 1.0
C      1  0.5060300000000  0.4938220000000  0.5025730000000 1.0
C      1  0.5041370000000  0.5958840000000  0.4669590000000 1.0
C      1  0.4991650000000  0.3918660000000  0.5078130000000 1.0
C      1  0.5838800000000  0.4898030000000  0.5838710000000 1.0
C      1  0.4169170000000  0.4871060000000  0.5523270000000 1.0
C      1  0.5850880000000  0.5367610000000  0.4855450000000 1.0
C      1  0.5626840000000  0.5049250000000  0.5700320000000 1.0
C      1  0.4157140000000  0.5509160000000  0.5104100000000 1.0
C      1  0.4730830000000  0.5280030000000  0.5293860000000 1.0
C      1  0.5210960000000  0.4653940000000  0.4899940000000 1.0
C      1  0.5763350000000  0.4667000000000  0.5921740000000 1.0
C      1  0.4788550000000  0.3974840000000  0.4560720000000 1.0
C      1  0.4569760000000  0.4838040000000  0.5004620000000 1.0
C      1  0.4795300000000  0.5546460000000  0.4416550000000 1.0
C      1  0.4385970000000  0.5677090000000  0.5173640000000 1.0
C      1  0.5485850000000  0.5237160000000  0.4761060000000 1.0
C      1  0.4879860000000  0.4489460000000  0.4236100000000 1.0
C      1  0.5319940000000  0.5699770000000  0.4941110000000 1.0
C      1  0.4732880000000  0.5033960000000  0.3992690000000 1.0
C      1  0.4364380000000  0.5303600000000  0.5719860000000 1.0
C      1  0.5509000000000  0.5098850000000  0.4258040000000 1.0
C      1  0.4197580000000  0.5145970000000  0.4400480000000 1.0
C      1  0.5903400000000  0.4856730000000  0.4699770000000 1.0
C      1  0.5839980000000  0.4609840000000  0.5162530000000 1.0
C      1  0.5675140000000  0.5655420000000  0.5482230000000 1.0
C      1  0.4715850000000  0.4196170000000  0.5384980000000 1.0
C      1  0.5230970000000  0.5895330000000  0.5192710000000 1.0
C      1  0.4588820000000  0.5060090000000  0.5796860000000 1.0
C      1  0.5425810000000  0.4825530000000  0.4699890000000 1.0
C      1  0.4250890000000  0.4836790000000  0.4405060000000 1.0
C      1  0.5158200000000  0.5246000000000  0.5132030000000 1.0
C      1  0.5755590000000  0.4649150000000  0.4839310000000 1.0
C      1  0.5393110000000  0.4909470000000  0.5949580000000 1.0
C      1  0.4449170000000  0.4231170000000  0.5085990000000 1.0
C      1  0.4986860000000  0.5400000000000  0.4656260000000 1.0
C      1  0.5707030000000  0.5565610000000  0.5171590000000 1.0
C      1  0.4027340000000  0.5274190000000  0.5203370000000 1.0
C      1  0.5091290000000  0.5466920000000  0.4925710000000 1.0
C      1  0.5818150000000  0.4147130000000  0.4802300000000 1.0
C      1  0.4817750000000  0.4820550000000  0.5857030000000 1.0
C      1  0.4178510000000  0.4440540000000  0.4560440000000 1.0
C      1  0.5310120000000  0.5690580000000  0.4305410000000 1.0
C      1  0.5389150000000  0.5679740000000  0.5651180000000 1.0
C      1  0.5085980000000  0.4690480000000  0.4052460000000 1.0
C      1  0.5163900000000  0.5925760000000  0.5585160000000 1.0
C      1  0.5558370000000  0.4519700000000  0.5260120000000 1.0
C      1  0.5201910000000  0.6081260000000  0.4923530000000 1.0
C      1  0.5361430000000  0.5206750000000  0.5787610000000 1.0
C      1  0.5508160000000  0.5982370000000  0.4919200000000 1.0
C      1  0.4897870000000  0.5073240000000  0.4686770000000 1.0
C      1  0.5445080000000  0.4048560000000  0.4614720000000 1.0
C      1  0.5613550000000  0.4374710000000  0.4770530000000 1.0
C      1  0.5095620000000  0.5092900000000  0.5957460000000 1.0
C      1  0.4079510000000  0.4760210000000  0.5022780000000 1.0
C      1  0.5391760000000  0.4403100000000  0.5013150000000 1.0
C      1  0.5175790000000  0.4721110000000  0.4363330000000 1.0
C      1  0.5782450000000  0.5140730000000  0.4624060000000 1.0
C      1  0.5854030000000  0.4941760000000  0.5091460000000 1.0
C      1  0.4892490000000  0.5828110000000  0.5438920000000 1.0
C      1  0.4801980000000  0.5504980000000  0.5937010000000 1.0
C      1  0.4014150000000  0.4618170000000  0.4404700000000 1.0
C      1  0.4527820000000  0.4593320000000  0.5706870000000 1.0
C      1  0.4808850000000  0.4691450000000  0.5542360000000 1.0
C      1  0.5566490000000  0.5842700000000  0.4661850000000 1.0
C      1  0.5448000000000  0.4340490000000  0.4483600000000 1.0
C      1  0.4985080000000  0.4459400000000  0.5247010000000 1.0
C      1  0.5395220000000  0.4796470000000  0.5316370000000 1.0
C      1  0.4356830000000  0.4820090000000  0.5731940000000 1.0
C      1  0.4153790000000  0.4689420000000  0.5309730000000 1.0
C      1  0.5231210000000  0.5063850000000  0.4759960000000 1.0
C      1  0.4928250000000  0.4635300000000  0.6079090000000 1.0
C      1  0.5275530000000  0.5132960000000  0.4017530000000 1.0
C      1  0.4816650000000  0.5235000000000  0.5979340000000 1.0
C      1  0.5594200000000  0.5066970000000  0.5370330000000 1.0
C      1  0.5244830000000  0.4038040000000  0.4795720000000 1.0
C      1  0.5085790000000  0.5228110000000  0.4228150000000 1.0
C      1  0.4434730000000  0.4014630000000  0.5324820000000 1.0
C      1  0.5032170000000  0.4948130000000  0.3949120000000 1.0
C      1  0.4575500000000  0.5707160000000  0.4909570000000 1.0
C      1  0.4678760000000  0.4404210000000  0.5869620000000 1.0
C      1  0.5510090000000  0.5377980000000  0.4452470000000 1.0
C      1  0.4972640000000  0.4207070000000  0.5554740000000 1.0
C      1  0.5482890000000  0.5436610000000  0.4995380000000 1.0
C      1  0.4839020000000  0.6042410000000  0.5180340000000 1.0
C      1  0.5177900000000  0.5432110000000  0.4413840000000 1.0
C      1  0.5324540000000  0.5879730000000  0.4504800000000 1.0
C      1  0.4358360000000  0.5062680000000  0.5139720000000 1.0
C      1  0.4653710000000  0.4497410000000  0.5341500000000 1.0
C      1  0.4512170000000  0.5374270000000  0.4492800000000 1.0
C      1  0.5467460000000  0.4597020000000  0.5835560000000 1.0
C      1  0.4769760000000  0.5113140000000  0.4999310000000 1.0
C      1  0.5469270000000  0.4824000000000  0.4388370000000 1.0
C      1  0.4677450000000  0.5615700000000  0.5282860000000 1.0
C      1  0.5223730000000  0.4288590000000  0.5376380000000 1.0
C      1  0.4441740000000  0.4764390000000  0.4163370000000 1.0
C      1  0.4120240000000  0.5138990000000  0.5451070000000 1.0
C      1  0.4573530000000  0.5366480000000  0.4884940000000 1.0
C      1  0.5454780000000  0.5908690000000  0.5412350000000 1.0
C      1  0.5263810000000  0.4103780000000  0.5112060000000 1.0
C      1  0.4585390000000  0.5088040000000  0.4588510000000 1.0
C      1  0.4999850000000  0.4110700000000  0.4691990000000 1.0
C      1  0.4402650000000  0.5298450000000  0.5381440000000 1.0
C      1  0.5445670000000  0.4440840000000  0.5555050000000 1.0
C      1  0.4255740000000  0.4587340000000  0.4813350000000 1.0
C      1  0.4693260000000  0.5052860000000  0.5497800000000 1.0
C      1  0.5055680000000  0.4773600000000  0.5323190000000 1.0
C      1  0.5886580000000  0.5217960000000  0.5104640000000 1.0
C      1  0.4076140000000  0.5071020000000  0.4956020000000 1.0
C      1  0.4410660000000  0.4565810000000  0.5132360000000 1.0
C      1  0.5574110000000  0.5597520000000  0.4192820000000 1.0
C      1  0.4392000000000  0.4311840000000  0.4418440000000 1.0
C      1  0.4473950000000  0.5100200000000  0.4206160000000 1.0
C      1  0.5290150000000  0.5403170000000  0.5579020000000 1.0
C      1  0.4550400000000  0.4469810000000  0.4249040000000 1.0
C      1  0.4647190000000  0.4241930000000  0.4822590000000 1.0
C      1  0.4910910000000  0.4436630000000  0.4731770000000 1.0
C      1  0.4539120000000  0.5870630000000  0.4634960000000 1.0
C      1  0.4926350000000  0.5039270000000  0.4349670000000 1.0
C      1  0.4087870000000  0.5222220000000  0.4669890000000 1.0
C      1  0.5408960000000  0.5313630000000  0.5304660000000 1.0
C      1  0.4811150000000  0.5936650000000  0.4919780000000 1.0
C      1  0.4258050000000  0.5444070000000  0.4813380000000 1.0
C      1  0.4427240000000  0.4838420000000  0.4695770000000 1.0
C      1  0.5679050000000  0.5575650000000  0.4671610000000 1.0
C      1  0.6083600000000  0.4450930000000  0.5235790000000 1.0
C      1  0.4999300000000  0.5647330000000  0.5171410000000 1.0
C      1  0.4827020000000  0.4615340000000  0.5003180000000 1.0
C      1  0.5154580000000  0.4613340000000  0.5826230000000 1.0
C      1  0.5792440000000  0.5340970000000  0.5407430000000 1.0
C      1  0.4790910000000  0.5846590000000  0.4499260000000 1.0
C      1  0.5005780000000  0.4753000000000  0.4647550000000 1.0
C      1  0.4947500000000  0.4361800000000  0.5788410000000 1.0
C      1  0.4978780000000  0.5406820000000  0.5489130000000 1.0
C      1  0.4844730000000  0.5608560000000  0.5694170000000 1.0
C      1  0.5545020000000  0.4836690000000  0.5018330000000 1.0
END
