TITL C-2848503-6230-30 0.00090360257739409 125000 -125.098633492241 0 0 23 (C1) n - 1
REM
REM in /home/bkarasulu/work/CARBON/AIRSS/Generating-Clusters/AIREBO/with-SteepDescent/Only-C1/SD-CG-opt/Try1-1.4A-POS3A/HFTN-CG
REM
REM
REM
REM
REM
REM ./C.cell (11c1c37f851c82e70ff6c80c92926a4b)
REM
REM compiler GCC version 9.2.1 20190827 (Red Hat 9.2.1-1)
REM options -cpp -mtune=generic -march=x86-64 -g -O0 -fpre-include=/usr/include/finclude/math-vector-fortran.h
REM seed 1280856584 480230556 435107988 -1284555406 -1890068266 1119688704 -1302606185 146822620 -1150408712 1173509373 -1953249005 2137489745 717770696 2070219263 1659945345 -949340700 -2012021970 -1626514086 -247004380 -1061736892 -152215190 -1506498642 -171491220 -1475349815 256148282 -765302175 1400559173 1723173509 -2081652862 578548296 789043161 1741647470 -889155984
REM
CELL 1.54180   50.00000   50.00000   50.00000   90.00000   90.00000   90.00000
LATT -1
SFAC C  
C      1  0.5449190000000  0.5460510000000  0.5590170000000 1.0
C      1  0.4968610000000  0.4477780000000  0.5448050000000 1.0
C      1  0.4837300000000  0.5329130000000  0.4137810000000 1.0
C      1  0.4716550000000  0.5073050000000  0.4573780000000 1.0
C      1  0.4842810000000  0.4983630000000  0.4900330000000 1.0
C      1  0.5424310000000  0.4782850000000  0.5856570000000 1.0
C      1  0.5313310000000  0.4889820000000  0.5634410000000 1.0
C      1  0.4986800000000  0.4727290000000  0.4933280000000 1.0
C      1  0.5013770000000  0.5018830000000  0.4432920000000 1.0
C      1  0.5289850000000  0.5353790000000  0.5330780000000 1.0
C      1  0.5170000000000  0.5287600000000  0.5098900000000 1.0
C      1  0.4288190000000  0.4991430000000  0.4915490000000 1.0
C      1  0.4871860000000  0.4262350000000  0.5559930000000 1.0
C      1  0.5156740000000  0.4734910000000  0.5472110000000 1.0
C      1  0.4652750000000  0.5581990000000  0.4491760000000 1.0
C      1  0.5025260000000  0.5227880000000  0.4875570000000 1.0
C      1  0.5121350000000  0.4762680000000  0.4456220000000 1.0
C      1  0.4526530000000  0.5010360000000  0.4828560000000 1.0
C      1  0.4796390000000  0.5354040000000  0.4413980000000 1.0
C      1  0.5048180000000  0.4640720000000  0.5184040000000 1.0
C      1  0.5056960000000  0.5278960000000  0.4605020000000 1.0
C      1  0.5083420000000  0.4621020000000  0.4691390000000 1.0
C      1  0.5359880000000  0.5149390000000  0.5568940000000 1.0
END
