TITL C-2847958-8115-158 -0.00124565317865835 125000 -420.023606398072 0 0 80 (C1) n - 1
REM
REM in /home/bkarasulu/work/CARBON/AIRSS/Generating-Clusters/AIREBO/with-SteepDescent/Only-C1/SD-CG-opt/Try1-1.4A-POS3A/HFTN-CG
REM
REM
REM
REM
REM
REM ./C.cell (11c1c37f851c82e70ff6c80c92926a4b)
REM
REM compiler GCC version 9.2.1 20190827 (Red Hat 9.2.1-1)
REM options -cpp -mtune=generic -march=x86-64 -g -O0 -fpre-include=/usr/include/finclude/math-vector-fortran.h
REM seed -520634843 -1858910017 1471217505 -99325762 -703118084 -1449813671 -146854250 2058562461 1498665406 -1181721953 -1331525176 297322935 136237042 2112655868 -482455433 -188558667 -58849473 462963402 183681274 1550276429 576710787 -633098641 -208557645 1800394115 22493388 -1793832109 -478442203 -1439589820 -1214273272 -1868254997 -1048828966 530890798 538632083
REM
CELL 1.54180   50.00000   50.00000   50.00000   90.00000   90.00000   90.00000
LATT -1
SFAC C  
C      1  0.4933210000000  0.4442730000000  0.4209020000000 1.0
C      1  0.4816830000000  0.5218030000000  0.4576340000000 1.0
C      1  0.5780080000000  0.5159200000000  0.5073890000000 1.0
C      1  0.5470520000000  0.4819580000000  0.4584640000000 1.0
C      1  0.5270450000000  0.4962890000000  0.5247340000000 1.0
C      1  0.5137500000000  0.4400220000000  0.4636120000000 1.0
C      1  0.5733300000000  0.4894270000000  0.5196100000000 1.0
C      1  0.4900360000000  0.5556820000000  0.4969500000000 1.0
C      1  0.5003370000000  0.4479080000000  0.5712420000000 1.0
C      1  0.5001920000000  0.5687640000000  0.4427950000000 1.0
C      1  0.5450850000000  0.5234800000000  0.5861040000000 1.0
C      1  0.5021060000000  0.5468250000000  0.5878910000000 1.0
C      1  0.5410140000000  0.5346250000000  0.4530070000000 1.0
C      1  0.5204100000000  0.4851500000000  0.4366900000000 1.0
C      1  0.4944620000000  0.4756240000000  0.4939260000000 1.0
C      1  0.5408500000000  0.5119400000000  0.4732560000000 1.0
C      1  0.5905740000000  0.5492040000000  0.5479910000000 1.0
C      1  0.4329300000000  0.4855450000000  0.4634710000000 1.0
C      1  0.4286760000000  0.5391930000000  0.4630540000000 1.0
C      1  0.5046980000000  0.4146590000000  0.5031660000000 1.0
C      1  0.5003420000000  0.5344360000000  0.5148950000000 1.0
C      1  0.5023810000000  0.5139910000000  0.4318150000000 1.0
C      1  0.4781540000000  0.4777130000000  0.5202760000000 1.0
C      1  0.4316910000000  0.5837050000000  0.5229390000000 1.0
C      1  0.5122660000000  0.4982050000000  0.4670230000000 1.0
C      1  0.5401810000000  0.4484280000000  0.5033580000000 1.0
C      1  0.5167440000000  0.4577990000000  0.4850940000000 1.0
C      1  0.4513330000000  0.4843510000000  0.5031790000000 1.0
C      1  0.4538480000000  0.5302150000000  0.5202250000000 1.0
C      1  0.5005590000000  0.4815060000000  0.4093030000000 1.0
C      1  0.4500810000000  0.4609570000000  0.4799450000000 1.0
C      1  0.4351030000000  0.5575810000000  0.5265140000000 1.0
C      1  0.4834760000000  0.5801940000000  0.5043460000000 1.0
C      1  0.5244520000000  0.5558890000000  0.4584340000000 1.0
C      1  0.5646220000000  0.5032910000000  0.5756070000000 1.0
C      1  0.4915560000000  0.5616450000000  0.4171830000000 1.0
C      1  0.4377300000000  0.4489980000000  0.5159590000000 1.0
C      1  0.4653430000000  0.4672540000000  0.4503210000000 1.0
C      1  0.5832230000000  0.5411400000000  0.5183670000000 1.0
C      1  0.5452190000000  0.4973520000000  0.4168760000000 1.0
C      1  0.5253640000000  0.5377060000000  0.5995260000000 1.0
C      1  0.5106990000000  0.4140060000000  0.4749410000000 1.0
C      1  0.4415140000000  0.5008240000000  0.5785620000000 1.0
C      1  0.5125950000000  0.4521170000000  0.4389570000000 1.0
C      1  0.4351990000000  0.4715630000000  0.4351360000000 1.0
C      1  0.4904740000000  0.5348380000000  0.4105370000000 1.0
C      1  0.5338160000000  0.5218430000000  0.4290080000000 1.0
C      1  0.5462890000000  0.5132540000000  0.5023360000000 1.0
C      1  0.4255380000000  0.5308200000000  0.5392900000000 1.0
C      1  0.5404720000000  0.5247640000000  0.5524280000000 1.0
C      1  0.5678600000000  0.4670390000000  0.5053420000000 1.0
C      1  0.4485170000000  0.5157760000000  0.4621660000000 1.0
C      1  0.5554680000000  0.4625190000000  0.4763420000000 1.0
C      1  0.4795890000000  0.4893460000000  0.4675500000000 1.0
C      1  0.4572180000000  0.5110770000000  0.5612530000000 1.0
C      1  0.4929730000000  0.5486450000000  0.4683820000000 1.0
C      1  0.5292730000000  0.4679350000000  0.5532580000000 1.0
C      1  0.4202810000000  0.4724700000000  0.5103080000000 1.0
C      1  0.4607860000000  0.4548970000000  0.5330260000000 1.0
C      1  0.5612930000000  0.5508640000000  0.5596890000000 1.0
C      1  0.5212730000000  0.4992140000000  0.5640600000000 1.0
C      1  0.4900230000000  0.5457350000000  0.5636470000000 1.0
C      1  0.5560260000000  0.5531180000000  0.5289170000000 1.0
C      1  0.5189500000000  0.4722750000000  0.5846740000000 1.0
C      1  0.4794730000000  0.6051000000000  0.5114620000000 1.0
C      1  0.5238950000000  0.4290370000000  0.5199170000000 1.0
C      1  0.5182050000000  0.4393260000000  0.5452660000000 1.0
C      1  0.4806100000000  0.5241300000000  0.5403130000000 1.0
C      1  0.4478490000000  0.4917850000000  0.4157320000000 1.0
C      1  0.4753890000000  0.4306130000000  0.5370050000000 1.0
C      1  0.4494630000000  0.5162590000000  0.4281720000000 1.0
C      1  0.4515250000000  0.5134130000000  0.4956490000000 1.0
C      1  0.5070440000000  0.5063160000000  0.4998620000000 1.0
C      1  0.4708090000000  0.4682380000000  0.4175480000000 1.0
C      1  0.5307740000000  0.5357140000000  0.5217260000000 1.0
C      1  0.4970530000000  0.4943630000000  0.5406900000000 1.0
C      1  0.5557490000000  0.4956760000000  0.5436260000000 1.0
C      1  0.4773750000000  0.4189810000000  0.5102310000000 1.0
C      1  0.4548820000000  0.4318340000000  0.4953410000000 1.0
C      1  0.4845560000000  0.4736280000000  0.5645740000000 1.0
END
