TITL C-2848502-4955-102 -0.000617576124329326 125000 -293.551073494102 0 0 52 (C1) n - 1
REM
REM in /home/bkarasulu/work/CARBON/AIRSS/Generating-Clusters/AIREBO/with-SteepDescent/Only-C1/SD-CG-opt/Try1-1.4A-POS3A/HFTN-CG
REM
REM
REM
REM
REM
REM ./C.cell (11c1c37f851c82e70ff6c80c92926a4b)
REM
REM compiler GCC version 9.2.1 20190827 (Red Hat 9.2.1-1)
REM options -cpp -mtune=generic -march=x86-64 -g -O0 -fpre-include=/usr/include/finclude/math-vector-fortran.h
REM seed -1274690334 1410687038 -129343846 1518868429 -586087339 494573177 861474959 1796538685 -1719660244 -1808842878 904930519 -1339759235 -1438620024 -93755577 -1040828142 -2005641146 1994239109 2108673655 -32472679 -754621202 371836601 -1580338097 1692562921 -1599510766 1255800792 1048371627 641647614 -1230909877 33315201 -329079665 -1939152613 457578606 1663556266
REM
CELL 1.54180   50.00000   50.00000   50.00000   90.00000   90.00000   90.00000
LATT -1
SFAC C  
C      1  0.4595930000000  0.5396860000000  0.5509260000000 1.0
C      1  0.4724800000000  0.4820780000000  0.5877070000000 1.0
C      1  0.4394750000000  0.5148970000000  0.5038730000000 1.0
C      1  0.5431900000000  0.4529540000000  0.5259930000000 1.0
C      1  0.5363060000000  0.5050500000000  0.4726090000000 1.0
C      1  0.4325900000000  0.5033300000000  0.5290220000000 1.0
C      1  0.4895890000000  0.4127010000000  0.5075110000000 1.0
C      1  0.4643120000000  0.4686680000000  0.5383990000000 1.0
C      1  0.5031810000000  0.4984050000000  0.4230250000000 1.0
C      1  0.5084970000000  0.4800310000000  0.5088740000000 1.0
C      1  0.5550830000000  0.4952320000000  0.5647730000000 1.0
C      1  0.4798640000000  0.4779490000000  0.4746990000000 1.0
C      1  0.5339870000000  0.5817330000000  0.4797030000000 1.0
C      1  0.5478980000000  0.5062020000000  0.4461760000000 1.0
C      1  0.4856380000000  0.5094550000000  0.5433650000000 1.0
C      1  0.5144420000000  0.5390590000000  0.4472700000000 1.0
C      1  0.4366700000000  0.4744590000000  0.5301120000000 1.0
C      1  0.4681480000000  0.4906180000000  0.5620200000000 1.0
C      1  0.5719010000000  0.5216290000000  0.4441200000000 1.0
C      1  0.5303760000000  0.5273350000000  0.5389540000000 1.0
C      1  0.5681210000000  0.5484010000000  0.4506880000000 1.0
C      1  0.5264780000000  0.5163740000000  0.4292200000000 1.0
C      1  0.4443420000000  0.5428810000000  0.5016000000000 1.0
C      1  0.4805520000000  0.4391190000000  0.5019120000000 1.0
C      1  0.5128470000000  0.5637670000000  0.4909200000000 1.0
C      1  0.4842800000000  0.4602060000000  0.5209290000000 1.0
C      1  0.5289400000000  0.3854010000000  0.5031950000000 1.0
C      1  0.4838200000000  0.4657680000000  0.3860120000000 1.0
C      1  0.5090890000000  0.5269210000000  0.5577550000000 1.0
C      1  0.5209730000000  0.5406170000000  0.5121610000000 1.0
C      1  0.4596190000000  0.5521650000000  0.5235100000000 1.0
C      1  0.4720640000000  0.3921610000000  0.5085140000000 1.0
C      1  0.5484770000000  0.5021920000000  0.5376500000000 1.0
C      1  0.4970420000000  0.5073550000000  0.4539660000000 1.0
C      1  0.5335800000000  0.4781480000000  0.5248650000000 1.0
C      1  0.4470080000000  0.5142300000000  0.5518440000000 1.0
C      1  0.4744880000000  0.4512000000000  0.4768970000000 1.0
C      1  0.5722160000000  0.5080270000000  0.5228700000000 1.0
C      1  0.4940890000000  0.4809010000000  0.4047850000000 1.0
C      1  0.4729640000000  0.5184350000000  0.4671160000000 1.0
C      1  0.4632400000000  0.5004260000000  0.4921340000000 1.0
C      1  0.4828900000000  0.5351470000000  0.4950120000000 1.0
C      1  0.4852460000000  0.4994840000000  0.5142260000000 1.0
C      1  0.4841310000000  0.5424190000000  0.5658960000000 1.0
C      1  0.4943770000000  0.5520690000000  0.4681120000000 1.0
C      1  0.5341400000000  0.5304830000000  0.4847550000000 1.0
C      1  0.5116240000000  0.4870380000000  0.4770120000000 1.0
C      1  0.5403690000000  0.5535440000000  0.4638800000000 1.0
C      1  0.4896820000000  0.5375850000000  0.5246840000000 1.0
C      1  0.5173690000000  0.4082720000000  0.5117120000000 1.0
C      1  0.4604700000000  0.5495650000000  0.4726930000000 1.0
C      1  0.5322530000000  0.4282330000000  0.5243480000000 1.0
END
