TITL C-2848506-1665-135 -0.00277656355208079 125000 -161.240564045915 0 0 30 (C1) n - 1
REM
REM in /home/bkarasulu/work/CARBON/AIRSS/Generating-Clusters/AIREBO/with-SteepDescent/Only-C1/SD-CG-opt/Try1-1.4A-POS3A/HFTN-CG
REM
REM
REM
REM
REM
REM ./C.cell (11c1c37f851c82e70ff6c80c92926a4b)
REM
REM compiler GCC version 9.2.1 20190827 (Red Hat 9.2.1-1)
REM options -cpp -mtune=generic -march=x86-64 -g -O0 -fpre-include=/usr/include/finclude/math-vector-fortran.h
REM seed -1540549134 -569898342 -713052840 -1590569618 607949661 -160736487 1819424708 -2033786203 1181340418 378572531 1654544868 2105573605 1375630982 1776998046 -201394322 2118290358 780722114 826668224 993133862 1822945101 -1291739973 -1057345232 -1514932881 -2062313003 -344408761 1554418481 1487800171 -1396056061 -1811583732 1571063908 1672657702 718240010 173667146
REM
CELL 1.54180   50.00000   50.00000   50.00000   90.00000   90.00000   90.00000
LATT -1
SFAC C  
C      1  0.4520170000000  0.4793220000000  0.5261710000000 1.0
C      1  0.5306780000000  0.5459160000000  0.4828480000000 1.0
C      1  0.5458630000000  0.4983190000000  0.4658080000000 1.0
C      1  0.5578770000000  0.4756600000000  0.5400040000000 1.0
C      1  0.5074600000000  0.4920190000000  0.5509920000000 1.0
C      1  0.4736000000000  0.4559120000000  0.5260570000000 1.0
C      1  0.4888730000000  0.4814310000000  0.4514730000000 1.0
C      1  0.5331720000000  0.4956990000000  0.4413060000000 1.0
C      1  0.5447860000000  0.4709510000000  0.5129560000000 1.0
C      1  0.4874710000000  0.5436100000000  0.4973580000000 1.0
C      1  0.5019490000000  0.4927900000000  0.4991460000000 1.0
C      1  0.5200250000000  0.4517380000000  0.5218700000000 1.0
C      1  0.4307450000000  0.5094820000000  0.4628850000000 1.0
C      1  0.4406510000000  0.5081360000000  0.4863680000000 1.0
C      1  0.5331940000000  0.4934410000000  0.4967930000000 1.0
C      1  0.4945510000000  0.4292120000000  0.5239920000000 1.0
C      1  0.4972880000000  0.5186410000000  0.5414530000000 1.0
C      1  0.4987900000000  0.5283000000000  0.4478230000000 1.0
C      1  0.5276580000000  0.4714220000000  0.5485570000000 1.0
C      1  0.4918760000000  0.4817970000000  0.5272130000000 1.0
C      1  0.5456640000000  0.5227980000000  0.4850500000000 1.0
C      1  0.4829470000000  0.5177150000000  0.5123570000000 1.0
C      1  0.5029130000000  0.5408060000000  0.4725330000000 1.0
C      1  0.5274350000000  0.5663080000000  0.5035350000000 1.0
C      1  0.4945060000000  0.4531330000000  0.4994450000000 1.0
C      1  0.5002700000000  0.5651250000000  0.5122880000000 1.0
C      1  0.4386220000000  0.5266290000000  0.5316410000000 1.0
C      1  0.5053980000000  0.5016510000000  0.4408280000000 1.0
C      1  0.4905720000000  0.4731150000000  0.4765700000000 1.0
C      1  0.4531490000000  0.5089220000000  0.5146790000000 1.0
END
