TITL C-2847959-7740-288 438.645483648344 125000 -898.821775854792 0 0 170 (C1) n - 1
REM
REM in /home/bkarasulu/work/CARBON/AIRSS/Generating-Clusters/AIREBO/with-SteepDescent/Only-C1/SD-CG-opt/Try1-1.4A-POS3A/HFTN-CG
REM
REM
REM
REM
REM
REM ./C.cell (11c1c37f851c82e70ff6c80c92926a4b)
REM
REM compiler GCC version 9.2.1 20190827 (Red Hat 9.2.1-1)
REM options -cpp -mtune=generic -march=x86-64 -g -O0 -fpre-include=/usr/include/finclude/math-vector-fortran.h
REM seed 2071158409 -877058421 905935768 928297511 -1436078264 -782544263 1676352024 -2062828680 91440195 -1839235588 530583066 -1127606368 -1107833594 406801710 474070710 409597812 2122551521 -770764844 -1341795033 -2088117728 -1594017305 -68609221 1677938771 1582136000 -55590967 1599342618 2029038960 -1102574223 -829499769 2117849313 -1395796010 -643935203 1325892652
REM
CELL 1.54180   50.00000   50.00000   50.00000   90.00000   90.00000   90.00000
LATT -1
SFAC C  
C      1  0.5625980000000  0.5695230000000  0.5328960000000 1.0
C      1  0.4985060000000  0.4912610000000  0.4558060000000 1.0
C      1  0.5980100000000  0.4904100000000  0.4795250000000 1.0
C      1  0.5834880000000  0.4903420000000  0.4109970000000 1.0
C      1  0.4865250000000  0.4056260000000  0.4434710000000 1.0
C      1  0.4173520000000  0.5811600000000  0.4619920000000 1.0
C      1  0.4004580000000  0.5159530000000  0.5426300000000 1.0
C      1  0.5179110000000  0.5866800000000  0.4947240000000 1.0
C      1  0.5075590000000  0.5498680000000  0.5445760000000 1.0
C      1  0.3981850000000  0.5384000000000  0.5098470000000 1.0
C      1  0.4979060000000  0.4629040000000  0.5229790000000 1.0
C      1  0.4146300000000  0.5487020000000  0.4517360000000 1.0
C      1  0.5914620000000  0.4425060000000  0.4641770000000 1.0
C      1  0.4297620000000  0.5494550000000  0.4816030000000 1.0
C      1  0.4518240000000  0.4358350000000  0.4630660000000 1.0
C      1  0.5707820000000  0.4783000000000  0.5509840000000 1.0
C      1  0.4464600000000  0.5547760000000  0.5175000000000 1.0
C      1  0.4074440000000  0.4872520000000  0.5584790000000 1.0
C      1  0.5835710000000  0.4404190000000  0.5853900000000 1.0
C      1  0.4706100000000  0.4165620000000  0.4190010000000 1.0
C      1  0.5399020000000  0.4442870000000  0.4930570000000 1.0
C      1  0.4797120000000  0.4510040000000  0.4609280000000 1.0
C      1  0.4959160000000  0.5229450000000  0.4042410000000 1.0
C      1  0.4903500000000  0.5062970000000  0.4914950000000 1.0
C      1  0.4124600000000  0.4941750000000  0.5196740000000 1.0
C      1  0.5235770000000  0.5303480000000  0.4184620000000 1.0
C      1  0.5700150000000  0.5449050000000  0.5423480000000 1.0
C      1  0.5780020000000  0.4679660000000  0.4799580000000 1.0
C      1  0.5605630000000  0.4335600000000  0.4696860000000 1.0
C      1  0.4807420000000  0.4645980000000  0.4320920000000 1.0
C      1  0.4218230000000  0.4012580000000  0.5461160000000 1.0
C      1  0.5345250000000  0.5058140000000  0.4328600000000 1.0
C      1  0.4298440000000  0.4833900000000  0.4253390000000 1.0
C      1  0.4335570000000  0.5385160000000  0.5803560000000 1.0
C      1  0.5737610000000  0.5561550000000  0.4510870000000 1.0
C      1  0.5324500000000  0.4171090000000  0.5688510000000 1.0
C      1  0.5794840000000  0.4665560000000  0.4253840000000 1.0
C      1  0.5594980000000  0.4675170000000  0.5085010000000 1.0
C      1  0.4634870000000  0.5733340000000  0.5584370000000 1.0
C      1  0.5380200000000  0.4133680000000  0.5404940000000 1.0
C      1  0.5090050000000  0.5609730000000  0.5827460000000 1.0
C      1  0.4726400000000  0.5645410000000  0.4998280000000 1.0
C      1  0.4672210000000  0.5250370000000  0.5009240000000 1.0
C      1  0.4845410000000  0.4316330000000  0.4954970000000 1.0
C      1  0.4262160000000  0.5166530000000  0.4733860000000 1.0
C      1  0.4209350000000  0.4173030000000  0.5235740000000 1.0
C      1  0.4325360000000  0.5820790000000  0.4908010000000 1.0
C      1  0.5849900000000  0.5177510000000  0.4740890000000 1.0
C      1  0.5887250000000  0.5059150000000  0.5731490000000 1.0
C      1  0.5594770000000  0.4629160000000  0.4518650000000 1.0
C      1  0.4884630000000  0.3921360000000  0.4908720000000 1.0
C      1  0.5261240000000  0.5636470000000  0.4257230000000 1.0
C      1  0.4920740000000  0.5322800000000  0.5230010000000 1.0
C      1  0.4152190000000  0.5673350000000  0.5142350000000 1.0
C      1  0.4716820000000  0.4521940000000  0.3834540000000 1.0
C      1  0.5569490000000  0.5798310000000  0.4912670000000 1.0
C      1  0.5270300000000  0.5296880000000  0.5988220000000 1.0
C      1  0.4566270000000  0.4412860000000  0.5041360000000 1.0
C      1  0.5428200000000  0.3852410000000  0.4762800000000 1.0
C      1  0.4000330000000  0.5179950000000  0.4514630000000 1.0
C      1  0.4783390000000  0.5708980000000  0.5815630000000 1.0
C      1  0.5036880000000  0.4306010000000  0.4588620000000 1.0
C      1  0.4415380000000  0.4785940000000  0.4631820000000 1.0
C      1  0.4692570000000  0.4878210000000  0.4722110000000 1.0
C      1  0.4285270000000  0.4618900000000  0.5591830000000 1.0
C      1  0.5951170000000  0.4190900000000  0.5927330000000 1.0
C      1  0.5404890000000  0.4995940000000  0.4713730000000 1.0
C      1  0.5777140000000  0.5151170000000  0.4230190000000 1.0
C      1  0.4723120000000  0.4830010000000  0.5779860000000 1.0
C      1  0.5057900000000  0.4856330000000  0.5726520000000 1.0
C      1  0.4793820000000  0.5801150000000  0.4309340000000 1.0
C      1  0.5563900000000  0.5441750000000  0.5895080000000 1.0
C      1  0.4602190000000  0.5454450000000  0.4777800000000 1.0
C      1  0.5589590000000  0.5030310000000  0.5798490000000 1.0
C      1  0.4593300000000  0.5935040000000  0.5061030000000 1.0
C      1  0.5099720000000  0.4865240000000  0.5407290000000 1.0
C      1  0.5594790000000  0.4026620000000  0.4696110000000 1.0
C      1  0.5066360000000  0.5210030000000  0.4656790000000 1.0
C      1  0.4101050000000  0.4864510000000  0.4528540000000 1.0
C      1  0.4356030000000  0.4974560000000  0.5423310000000 1.0
C      1  0.5636950000000  0.5087860000000  0.4494570000000 1.0
C      1  0.4977790000000  0.6096110000000  0.4898580000000 1.0
C      1  0.5979020000000  0.4473740000000  0.4381530000000 1.0
C      1  0.5303390000000  0.3926750000000  0.5252690000000 1.0
C      1  0.4728230000000  0.4967590000000  0.4335460000000 1.0
C      1  0.4922500000000  0.6162020000000  0.4642750000000 1.0
C      1  0.5847100000000  0.4728680000000  0.5802480000000 1.0
C      1  0.4451040000000  0.5064020000000  0.4054950000000 1.0
C      1  0.4746810000000  0.5250590000000  0.6129110000000 1.0
C      1  0.5253910000000  0.5914410000000  0.4412610000000 1.0
C      1  0.5783110000000  0.4907750000000  0.5248810000000 1.0
C      1  0.4311410000000  0.4257590000000  0.4957670000000 1.0
C      1  0.4133380000000  0.4660080000000  0.5091070000000 1.0
C      1  0.5553910000000  0.5233040000000  0.4906680000000 1.0
C      1  0.4187100000000  0.4390720000000  0.4700790000000 1.0
C      1  0.5364030000000  0.5894320000000  0.4667950000000 1.0
C      1  0.5284370000000  0.4765570000000  0.4491250000000 1.0
C      1  0.5133890000000  0.4386730000000  0.4079260000000 1.0
C      1  0.6173590000000  0.4908830000000  0.4986420000000 1.0
C      1  0.5548670000000  0.4552990000000  0.5792250000000 1.0
C      1  0.3973420000000  0.5177960000000  0.4913060000000 1.0
C      1  0.4146920000000  0.5438780000000  0.5390670000000 1.0
C      1  0.5965090000000  0.5423170000000  0.4939750000000 1.0
C      1  0.5442900000000  0.4411000000000  0.5266320000000 1.0
C      1  0.5343060000000  0.4880610000000  0.5005750000000 1.0
C      1  0.5207450000000  0.3928970000000  0.4962670000000 1.0
C      1  0.4585400000000  0.5561090000000  0.4201410000000 1.0
C      1  0.4740450000000  0.4958600000000  0.6094300000000 1.0
C      1  0.5012960000000  0.5605810000000  0.4480880000000 1.0
C      1  0.4384900000000  0.4856120000000  0.5803690000000 1.0
C      1  0.4642630000000  0.4547110000000  0.5427420000000 1.0
C      1  0.5440910000000  0.5152220000000  0.5522100000000 1.0
C      1  0.5850320000000  0.5659950000000  0.4815330000000 1.0
C      1  0.4379410000000  0.4090350000000  0.5670140000000 1.0
C      1  0.5399270000000  0.4814760000000  0.5525970000000 1.0
C      1  0.4431960000000  0.5075090000000  0.4453650000000 1.0
C      1  0.4444160000000  0.5137680000000  0.5896230000000 1.0
C      1  0.5186320000000  0.4675080000000  0.4804150000000 1.0
C      1  0.4983810000000  0.6010180000000  0.4411350000000 1.0
C      1  0.5302600000000  0.4491080000000  0.5565580000000 1.0
C      1  0.4387320000000  0.4971320000000  0.4982610000000 1.0
C      1  0.5022590000000  0.5128530000000  0.5870200000000 1.0
C      1  0.5761250000000  0.5372490000000  0.5691500000000 1.0
C      1  0.5409850000000  0.5910900000000  0.5191240000000 1.0
C      1  0.4489080000000  0.4373850000000  0.5676480000000 1.0
C      1  0.5294330000000  0.4153220000000  0.4226780000000 1.0
C      1  0.6062820000000  0.5034130000000  0.5213540000000 1.0
C      1  0.5730070000000  0.5431240000000  0.4216470000000 1.0
C      1  0.4466040000000  0.5466550000000  0.5505210000000 1.0
C      1  0.6005700000000  0.5353020000000  0.4494750000000 1.0
C      1  0.4705670000000  0.5222790000000  0.5473710000000 1.0
C      1  0.5144310000000  0.4223860000000  0.4877580000000 1.0
C      1  0.5245630000000  0.4442380000000  0.4392560000000 1.0
C      1  0.4669050000000  0.4885550000000  0.5448470000000 1.0
C      1  0.4877000000000  0.5506760000000  0.6052700000000 1.0
C      1  0.5095450000000  0.4762480000000  0.4208330000000 1.0
C      1  0.4705920000000  0.5475550000000  0.4507840000000 1.0
C      1  0.4886860000000  0.5245000000000  0.4370110000000 1.0
C      1  0.4827010000000  0.6157500000000  0.5168240000000 1.0
C      1  0.4366070000000  0.5362550000000  0.4330100000000 1.0
C      1  0.5039390000000  0.5564550000000  0.5016690000000 1.0
C      1  0.4317710000000  0.4536850000000  0.4421980000000 1.0
C      1  0.5132680000000  0.5064640000000  0.5166110000000 1.0
C      1  0.4652010000000  0.4824680000000  0.5114150000000 1.0
C      1  0.4721650000000  0.4101590000000  0.4722120000000 1.0
C      1  0.4338830000000  0.4486350000000  0.5283260000000 1.0
C      1  0.5221810000000  0.4613730000000  0.5872480000000 1.0
C      1  0.5488120000000  0.5080190000000  0.6046300000000 1.0
C      1  0.4415840000000  0.5214950000000  0.5199470000000 1.0
C      1  0.5623070000000  0.5188390000000  0.5236770000000 1.0
C      1  0.3858800000000  0.4928110000000  0.4874820000000 1.0
C      1  0.5486140000000  0.5519580000000  0.4736670000000 1.0
C      1  0.5254190000000  0.5366310000000  0.5655750000000 1.0
C      1  0.5119600000000  0.6057510000000  0.5292450000000 1.0
C      1  0.4965040000000  0.4495090000000  0.5523570000000 1.0
C      1  0.4767150000000  0.4493460000000  0.5800170000000 1.0
C      1  0.4769840000000  0.5876140000000  0.5350380000000 1.0
C      1  0.5290400000000  0.5343910000000  0.5079360000000 1.0
C      1  0.4043450000000  0.4655850000000  0.4788680000000 1.0
C      1  0.4827910000000  0.4435820000000  0.4076820000000 1.0
C      1  0.5088490000000  0.4938970000000  0.3995730000000 1.0
C      1  0.4640780000000  0.5266830000000  0.4056120000000 1.0
C      1  0.4741650000000  0.5238310000000  0.5789350000000 1.0
C      1  0.6047800000000  0.5319260000000  0.5189100000000 1.0
C      1  0.4863990000000  0.4653060000000  0.4910730000000 1.0
C      1  0.5089500000000  0.5760890000000  0.5375220000000 1.0
C      1  0.5145840000000  0.3946270000000  0.4328920000000 1.0
C      1  0.5172810000000  0.5487550000000  0.4713620000000 1.0
C      1  0.4998640000000  0.4460280000000  0.5985270000000 1.0
C      1  0.5491880000000  0.5495470000000  0.4082240000000 1.0
END
