TITL C-2847946-5639-331 -0.00223797669545857 125000 -706.493041557882 0 0 134 (C1) n - 1
REM
REM in /home/bkarasulu/work/CARBON/AIRSS/Generating-Clusters/AIREBO/with-SteepDescent/Only-C1/SD-CG-opt/Try1-1.4A-POS3A/HFTN-CG
REM
REM
REM
REM
REM
REM ./C.cell (11c1c37f851c82e70ff6c80c92926a4b)
REM
REM compiler GCC version 9.2.1 20190827 (Red Hat 9.2.1-1)
REM options -cpp -mtune=generic -march=x86-64 -g -O0 -fpre-include=/usr/include/finclude/math-vector-fortran.h
REM seed -739827372 1052325737 -240956716 -1462579468 -1968590735 -593055758 -1008826870 347227835 1036275754 936797703 755172315 1288242274 -2026362857 -785492041 2005725561 -1524346861 1543583220 -52003577 -162448522 2139729259 1240395207 1399934565 -1658082587 -82506320 -1876291540 -258024001 -5892768 24693796 -938768942 1336498135 -1519169670 -1031507420 2140259511
REM
CELL 1.54180   50.00000   50.00000   50.00000   90.00000   90.00000   90.00000
LATT -1
SFAC C  
C      1  0.4326650000000  0.4931700000000  0.5419090000000 1.0
C      1  0.4534370000000  0.5251370000000  0.4940760000000 1.0
C      1  0.4651670000000  0.4790910000000  0.4534910000000 1.0
C      1  0.5185540000000  0.4705080000000  0.4791480000000 1.0
C      1  0.5884460000000  0.4954720000000  0.4972560000000 1.0
C      1  0.4570530000000  0.5580430000000  0.4687400000000 1.0
C      1  0.5838440000000  0.5282030000000  0.4892500000000 1.0
C      1  0.5588870000000  0.4910390000000  0.5631120000000 1.0
C      1  0.4458230000000  0.5009100000000  0.4358760000000 1.0
C      1  0.4148660000000  0.4352080000000  0.4890610000000 1.0
C      1  0.4649080000000  0.4429350000000  0.4364130000000 1.0
C      1  0.5359540000000  0.4922240000000  0.4638260000000 1.0
C      1  0.4790170000000  0.4540890000000  0.4719290000000 1.0
C      1  0.4894510000000  0.4294030000000  0.4425520000000 1.0
C      1  0.5205020000000  0.4620640000000  0.4031750000000 1.0
C      1  0.4659310000000  0.4197850000000  0.5054630000000 1.0
C      1  0.5193560000000  0.4961650000000  0.5635380000000 1.0
C      1  0.4895010000000  0.5308230000000  0.6009220000000 1.0
C      1  0.4940920000000  0.5317690000000  0.5472400000000 1.0
C      1  0.5347900000000  0.4379920000000  0.5056960000000 1.0
C      1  0.4008590000000  0.4553760000000  0.4787480000000 1.0
C      1  0.4996410000000  0.4311260000000  0.5790030000000 1.0
C      1  0.5343030000000  0.5046340000000  0.5171680000000 1.0
C      1  0.5589090000000  0.5472100000000  0.5019880000000 1.0
C      1  0.4334110000000  0.4874840000000  0.4113010000000 1.0
C      1  0.5656880000000  0.4870240000000  0.4660220000000 1.0
C      1  0.5631580000000  0.4337940000000  0.4586410000000 1.0
C      1  0.4597770000000  0.5402780000000  0.5883030000000 1.0
C      1  0.5002540000000  0.5460800000000  0.4573260000000 1.0
C      1  0.5810840000000  0.4477580000000  0.4822380000000 1.0
C      1  0.4253320000000  0.5068720000000  0.4846010000000 1.0
C      1  0.5149840000000  0.5107630000000  0.5941560000000 1.0
C      1  0.4937150000000  0.4188710000000  0.5478380000000 1.0
C      1  0.4198330000000  0.5447060000000  0.5456770000000 1.0
C      1  0.4706490000000  0.4906320000000  0.4842270000000 1.0
C      1  0.5746940000000  0.5248120000000  0.4563940000000 1.0
C      1  0.5235320000000  0.5438530000000  0.4249590000000 1.0
C      1  0.4708750000000  0.4785260000000  0.5790780000000 1.0
C      1  0.5558280000000  0.5742910000000  0.4662230000000 1.0
C      1  0.4960060000000  0.5137670000000  0.4570110000000 1.0
C      1  0.3998650000000  0.4883710000000  0.5417500000000 1.0
C      1  0.5053740000000  0.4915350000000  0.5197110000000 1.0
C      1  0.5497210000000  0.5689010000000  0.5453270000000 1.0
C      1  0.3987800000000  0.5323720000000  0.5258390000000 1.0
C      1  0.4916800000000  0.3894590000000  0.5313160000000 1.0
C      1  0.4154900000000  0.5370480000000  0.4968140000000 1.0
C      1  0.5457380000000  0.3907730000000  0.5104250000000 1.0
C      1  0.4642480000000  0.5223430000000  0.5357850000000 1.0
C      1  0.5368240000000  0.4140810000000  0.5203520000000 1.0
C      1  0.4787450000000  0.5457520000000  0.4998870000000 1.0
C      1  0.5375180000000  0.4304140000000  0.4519130000000 1.0
C      1  0.5044600000000  0.6038700000000  0.5441570000000 1.0
C      1  0.4837570000000  0.5094900000000  0.4122120000000 1.0
C      1  0.4630980000000  0.5815680000000  0.5366440000000 1.0
C      1  0.5671670000000  0.6097340000000  0.5133830000000 1.0
C      1  0.4603680000000  0.4193440000000  0.5544890000000 1.0
C      1  0.5038770000000  0.5792810000000  0.4533380000000 1.0
C      1  0.4436830000000  0.5315020000000  0.5592250000000 1.0
C      1  0.5474620000000  0.5063450000000  0.5901050000000 1.0
C      1  0.5359660000000  0.4705490000000  0.5485540000000 1.0
C      1  0.4660930000000  0.5601040000000  0.4202810000000 1.0
C      1  0.4793930000000  0.5190160000000  0.5719940000000 1.0
C      1  0.5707760000000  0.5209550000000  0.4260170000000 1.0
C      1  0.4420720000000  0.5825360000000  0.5179840000000 1.0
C      1  0.5497090000000  0.5895390000000  0.5192410000000 1.0
C      1  0.5051030000000  0.4440560000000  0.4913040000000 1.0
C      1  0.4512540000000  0.4672400000000  0.4994840000000 1.0
C      1  0.5036740000000  0.4984280000000  0.4863780000000 1.0
C      1  0.4649490000000  0.5257820000000  0.4620230000000 1.0
C      1  0.5943670000000  0.5245440000000  0.5214590000000 1.0
C      1  0.5697260000000  0.4527560000000  0.5605230000000 1.0
C      1  0.5362810000000  0.5712870000000  0.4938800000000 1.0
C      1  0.4705700000000  0.4461470000000  0.5883160000000 1.0
C      1  0.4401690000000  0.4561500000000  0.4556750000000 1.0
C      1  0.5523960000000  0.4668810000000  0.5861410000000 1.0
C      1  0.4215320000000  0.4824260000000  0.4667550000000 1.0
C      1  0.4769240000000  0.5014960000000  0.5158270000000 1.0
C      1  0.5109640000000  0.5489700000000  0.4894780000000 1.0
C      1  0.4535600000000  0.4144980000000  0.4620710000000 1.0
C      1  0.4790910000000  0.5573010000000  0.5317960000000 1.0
C      1  0.5209230000000  0.4568830000000  0.5854200000000 1.0
C      1  0.5250600000000  0.4887720000000  0.3993600000000 1.0
C      1  0.4178480000000  0.4638640000000  0.5493380000000 1.0
C      1  0.4714530000000  0.5761230000000  0.4465960000000 1.0
C      1  0.4872910000000  0.4854210000000  0.4294080000000 1.0
C      1  0.5490730000000  0.5410340000000  0.4640690000000 1.0
C      1  0.4520060000000  0.5910000000000  0.4926520000000 1.0
C      1  0.5295020000000  0.5498590000000  0.5439490000000 1.0
C      1  0.4432940000000  0.4981360000000  0.5121180000000 1.0
C      1  0.5215760000000  0.5148070000000  0.4345670000000 1.0
C      1  0.4950180000000  0.5530980000000  0.4244480000000 1.0
C      1  0.5785790000000  0.4612670000000  0.4510350000000 1.0
C      1  0.4700270000000  0.4618170000000  0.4171840000000 1.0
C      1  0.4473480000000  0.4376010000000  0.4832530000000 1.0
C      1  0.5029660000000  0.5059630000000  0.3925090000000 1.0
C      1  0.5479240000000  0.4630080000000  0.5176240000000 1.0
C      1  0.5106940000000  0.4252750000000  0.4636840000000 1.0
C      1  0.5143080000000  0.6207020000000  0.4833820000000 1.0
C      1  0.4598940000000  0.4537040000000  0.5257400000000 1.0
C      1  0.5332970000000  0.5645940000000  0.4451210000000 1.0
C      1  0.5848970000000  0.5330530000000  0.4076840000000 1.0
C      1  0.5180380000000  0.4482630000000  0.4320690000000 1.0
C      1  0.4363220000000  0.4424320000000  0.5450440000000 1.0
C      1  0.5047560000000  0.4653960000000  0.5360740000000 1.0
C      1  0.5192800000000  0.5882320000000  0.5281570000000 1.0
C      1  0.5105840000000  0.5905570000000  0.4826730000000 1.0
C      1  0.5786860000000  0.5018510000000  0.5416480000000 1.0
C      1  0.5553660000000  0.4876920000000  0.4984150000000 1.0
C      1  0.5015410000000  0.4819030000000  0.5878080000000 1.0
C      1  0.4265570000000  0.5240050000000  0.4483680000000 1.0
C      1  0.5088640000000  0.5594010000000  0.5223510000000 1.0
C      1  0.5385320000000  0.4392900000000  0.5616900000000 1.0
C      1  0.4774110000000  0.6021130000000  0.5490400000000 1.0
C      1  0.5966600000000  0.5010550000000  0.4649580000000 1.0
C      1  0.5281190000000  0.5213480000000  0.4795340000000 1.0
C      1  0.4289290000000  0.5431540000000  0.4682270000000 1.0
C      1  0.4636760000000  0.5286440000000  0.4281460000000 1.0
C      1  0.5721440000000  0.4812820000000  0.4270060000000 1.0
C      1  0.4527050000000  0.4994350000000  0.5660840000000 1.0
C      1  0.5167150000000  0.4813260000000  0.4380150000000 1.0
C      1  0.4802810000000  0.3918450000000  0.5084390000000 1.0
C      1  0.4802690000000  0.5764770000000  0.4854040000000 1.0
C      1  0.5761850000000  0.4686060000000  0.5349730000000 1.0
C      1  0.5220600000000  0.5187880000000  0.5437270000000 1.0
C      1  0.5608830000000  0.5206200000000  0.5208960000000 1.0
C      1  0.4248250000000  0.5609890000000  0.5191650000000 1.0
C      1  0.5869870000000  0.4639530000000  0.5039820000000 1.0
C      1  0.5467210000000  0.5000160000000  0.4187040000000 1.0
C      1  0.4882500000000  0.4565520000000  0.5600570000000 1.0
C      1  0.5266940000000  0.4172810000000  0.5462790000000 1.0
C      1  0.5639310000000  0.5119060000000  0.6097950000000 1.0
C      1  0.3845960000000  0.5099860000000  0.5345480000000 1.0
C      1  0.4440930000000  0.4156620000000  0.5272020000000 1.0
C      1  0.4891620000000  0.4392250000000  0.5209560000000 1.0
END
