TITL C-2848500-1637-250 0.00473757005075714 125000 -996.438544187897 0 0 188 (C1) n - 1
REM
REM in /home/bkarasulu/work/CARBON/AIRSS/Generating-Clusters/AIREBO/with-SteepDescent/Only-C1/SD-CG-opt/Try1-1.4A-POS3A/HFTN-CG
REM
REM
REM
REM
REM
REM ./C.cell (11c1c37f851c82e70ff6c80c92926a4b)
REM
REM compiler GCC version 9.2.1 20190827 (Red Hat 9.2.1-1)
REM options -cpp -mtune=generic -march=x86-64 -g -O0 -fpre-include=/usr/include/finclude/math-vector-fortran.h
REM seed 724538610 -828260944 -2115590691 617491155 1114875097 -570214698 -2080683161 -1700207854 -897712581 2118592268 98697028 -1822253784 -1041598319 -1314038784 738304655 -1467388253 66496245 -640714627 1132697940 -1662287692 -55794731 -491537367 345155559 -1629672136 1352563332 -1041805834 295949914 536708659 -1958085414 2138466661 936595640 1722928640 -2022877362
REM
CELL 1.54180   50.00000   50.00000   50.00000   90.00000   90.00000   90.00000
LATT -1
SFAC C  
C      1  0.5809790000000  0.4561240000000  0.4856060000000 1.0
C      1  0.4338920000000  0.4678580000000  0.4190790000000 1.0
C      1  0.6088280000000  0.4999330000000  0.4786980000000 1.0
C      1  0.4810720000000  0.4608710000000  0.5494760000000 1.0
C      1  0.3986750000000  0.5279090000000  0.4473160000000 1.0
C      1  0.5348050000000  0.4213300000000  0.4797870000000 1.0
C      1  0.4841270000000  0.3957100000000  0.4505710000000 1.0
C      1  0.4918980000000  0.4864940000000  0.4121310000000 1.0
C      1  0.6073370000000  0.5307400000000  0.4784140000000 1.0
C      1  0.5885910000000  0.5734710000000  0.4567010000000 1.0
C      1  0.5253340000000  0.4488880000000  0.4958870000000 1.0
C      1  0.4815280000000  0.5312440000000  0.4567960000000 1.0
C      1  0.6004300000000  0.4735320000000  0.5075140000000 1.0
C      1  0.5185450000000  0.5907900000000  0.4301620000000 1.0
C      1  0.5053980000000  0.4313660000000  0.4659660000000 1.0
C      1  0.5177160000000  0.4931550000000  0.3910060000000 1.0
C      1  0.5551070000000  0.4468890000000  0.4340140000000 1.0
C      1  0.5723450000000  0.4711300000000  0.5619880000000 1.0
C      1  0.4149520000000  0.5522770000000  0.5867290000000 1.0
C      1  0.5075830000000  0.5640390000000  0.5041520000000 1.0
C      1  0.4358130000000  0.5678450000000  0.4439070000000 1.0
C      1  0.5691520000000  0.5233390000000  0.5079280000000 1.0
C      1  0.5364260000000  0.5819800000000  0.5022700000000 1.0
C      1  0.4800520000000  0.5339900000000  0.5344810000000 1.0
C      1  0.5847930000000  0.5731090000000  0.4845130000000 1.0
C      1  0.5178390000000  0.5022470000000  0.4451130000000 1.0
C      1  0.4062980000000  0.4393080000000  0.5249380000000 1.0
C      1  0.5373520000000  0.4684050000000  0.5318570000000 1.0
C      1  0.4836170000000  0.4522690000000  0.4799410000000 1.0
C      1  0.4207330000000  0.5197770000000  0.5490880000000 1.0
C      1  0.4958600000000  0.5373040000000  0.4866670000000 1.0
C      1  0.5377600000000  0.4874660000000  0.4251500000000 1.0
C      1  0.5946600000000  0.4818850000000  0.5397580000000 1.0
C      1  0.5024500000000  0.4389100000000  0.5159120000000 1.0
C      1  0.5536220000000  0.4966830000000  0.5222530000000 1.0
C      1  0.4659830000000  0.4794300000000  0.4903040000000 1.0
C      1  0.4618750000000  0.5265740000000  0.5853520000000 1.0
C      1  0.5770550000000  0.5373510000000  0.4688480000000 1.0
C      1  0.3977680000000  0.4699010000000  0.5370830000000 1.0
C      1  0.4235850000000  0.4921230000000  0.4228360000000 1.0
C      1  0.5281170000000  0.4527100000000  0.4523490000000 1.0
C      1  0.4903260000000  0.4057120000000  0.4824510000000 1.0
C      1  0.4751620000000  0.4379000000000  0.4086310000000 1.0
C      1  0.4479960000000  0.5307120000000  0.4511020000000 1.0
C      1  0.5060460000000  0.4758630000000  0.4883730000000 1.0
C      1  0.4441180000000  0.4650210000000  0.5112670000000 1.0
C      1  0.4862700000000  0.4913200000000  0.5464840000000 1.0
C      1  0.4859650000000  0.4643340000000  0.4365510000000 1.0
C      1  0.5755820000000  0.5533790000000  0.4325480000000 1.0
C      1  0.4672860000000  0.4380430000000  0.5664680000000 1.0
C      1  0.4807750000000  0.5015730000000  0.5784470000000 1.0
C      1  0.4545130000000  0.4468710000000  0.4708490000000 1.0
C      1  0.5653700000000  0.4187380000000  0.4753670000000 1.0
C      1  0.4065900000000  0.4926420000000  0.5593820000000 1.0
C      1  0.5218040000000  0.4600040000000  0.4129160000000 1.0
C      1  0.5537940000000  0.3962750000000  0.5188020000000 1.0
C      1  0.5089940000000  0.4990990000000  0.5972510000000 1.0
C      1  0.4537540000000  0.5773970000000  0.5889010000000 1.0
C      1  0.5609580000000  0.4099500000000  0.5495060000000 1.0
C      1  0.5935080000000  0.5144150000000  0.5404900000000 1.0
C      1  0.5051480000000  0.5756300000000  0.4062030000000 1.0
C      1  0.4422780000000  0.5861050000000  0.5270400000000 1.0
C      1  0.5767150000000  0.5239310000000  0.4148090000000 1.0
C      1  0.4457650000000  0.4853710000000  0.5594630000000 1.0
C      1  0.4978160000000  0.5165160000000  0.6228890000000 1.0
C      1  0.4299080000000  0.5459340000000  0.5063810000000 1.0
C      1  0.5553050000000  0.5164640000000  0.4577550000000 1.0
C      1  0.5049010000000  0.5636170000000  0.4584590000000 1.0
C      1  0.4628770000000  0.5614560000000  0.5381820000000 1.0
C      1  0.5783110000000  0.4418380000000  0.4561130000000 1.0
C      1  0.4576130000000  0.5500340000000  0.4248290000000 1.0
C      1  0.5280420000000  0.5586080000000  0.4344570000000 1.0
C      1  0.5489530000000  0.5369530000000  0.5387930000000 1.0
C      1  0.4939500000000  0.4564500000000  0.3963420000000 1.0
C      1  0.4304930000000  0.5040820000000  0.4512380000000 1.0
C      1  0.5122310000000  0.5361590000000  0.5230650000000 1.0
C      1  0.4075590000000  0.5544970000000  0.4821970000000 1.0
C      1  0.5250990000000  0.5226820000000  0.5817590000000 1.0
C      1  0.4942800000000  0.4950430000000  0.5136420000000 1.0
C      1  0.4858980000000  0.5677840000000  0.4312900000000 1.0
C      1  0.4509770000000  0.4031510000000  0.4492280000000 1.0
C      1  0.4620050000000  0.6045830000000  0.5072610000000 1.0
C      1  0.5007730000000  0.4055770000000  0.5148850000000 1.0
C      1  0.4137070000000  0.5745440000000  0.5150910000000 1.0
C      1  0.5508160000000  0.4856300000000  0.3894560000000 1.0
C      1  0.4522520000000  0.4241220000000  0.5215080000000 1.0
C      1  0.5988780000000  0.5068640000000  0.5091800000000 1.0
C      1  0.5579910000000  0.4883610000000  0.4894770000000 1.0
C      1  0.4741660000000  0.5755670000000  0.5641320000000 1.0
C      1  0.5639310000000  0.5288320000000  0.5764830000000 1.0
C      1  0.5459110000000  0.5578020000000  0.5723250000000 1.0
C      1  0.5472470000000  0.5144690000000  0.4067710000000 1.0
C      1  0.4102010000000  0.5526410000000  0.4552050000000 1.0
C      1  0.5072410000000  0.6049200000000  0.4518360000000 1.0
C      1  0.4578340000000  0.5085180000000  0.5392940000000 1.0
C      1  0.4281970000000  0.4275250000000  0.5396350000000 1.0
C      1  0.5138750000000  0.6070360000000  0.5036890000000 1.0
C      1  0.4516050000000  0.5284260000000  0.4923660000000 1.0
C      1  0.4424260000000  0.4262730000000  0.4922440000000 1.0
C      1  0.5232360000000  0.5077250000000  0.5117120000000 1.0
C      1  0.5285350000000  0.4296000000000  0.4265820000000 1.0
C      1  0.5805530000000  0.5510540000000  0.5338750000000 1.0
C      1  0.5270560000000  0.5439020000000  0.4755340000000 1.0
C      1  0.4839090000000  0.5518710000000  0.5846480000000 1.0
C      1  0.5053520000000  0.4497800000000  0.5683450000000 1.0
C      1  0.4578400000000  0.4040500000000  0.4784500000000 1.0
C      1  0.5353420000000  0.4314740000000  0.5872700000000 1.0
C      1  0.4742810000000  0.4047890000000  0.5338580000000 1.0
C      1  0.5483670000000  0.5868260000000  0.4716270000000 1.0
C      1  0.3998090000000  0.5211730000000  0.5150380000000 1.0
C      1  0.5664040000000  0.4375660000000  0.5630780000000 1.0
C      1  0.4746440000000  0.5352140000000  0.4014130000000 1.0
C      1  0.4309430000000  0.5082660000000  0.5197110000000 1.0
C      1  0.5560030000000  0.4503220000000  0.5016830000000 1.0
C      1  0.4384650000000  0.4984750000000  0.4898580000000 1.0
C      1  0.4391670000000  0.5822660000000  0.4934000000000 1.0
C      1  0.4886860000000  0.5111930000000  0.3889750000000 1.0
C      1  0.4787170000000  0.5216730000000  0.5049950000000 1.0
C      1  0.4568130000000  0.4550220000000  0.4396910000000 1.0
C      1  0.4697900000000  0.5004830000000  0.4653010000000 1.0
C      1  0.5489620000000  0.5097420000000  0.6003640000000 1.0
C      1  0.5236120000000  0.5831870000000  0.5682880000000 1.0
C      1  0.5436110000000  0.3809170000000  0.5471270000000 1.0
C      1  0.4759280000000  0.4771270000000  0.6016990000000 1.0
C      1  0.5629220000000  0.4459750000000  0.5325220000000 1.0
C      1  0.6086980000000  0.4434250000000  0.5113800000000 1.0
C      1  0.4796940000000  0.4944930000000  0.6279350000000 1.0
C      1  0.5325270000000  0.4804150000000  0.4666620000000 1.0
C      1  0.5191740000000  0.4894750000000  0.5468510000000 1.0
C      1  0.4096480000000  0.5565130000000  0.5601780000000 1.0
C      1  0.4172070000000  0.4453010000000  0.4583750000000 1.0
C      1  0.5293980000000  0.5330590000000  0.3910760000000 1.0
C      1  0.4342690000000  0.4739390000000  0.4666600000000 1.0
C      1  0.4941200000000  0.4836470000000  0.4574920000000 1.0
C      1  0.5840610000000  0.4623500000000  0.4288660000000 1.0
C      1  0.5411830000000  0.5426830000000  0.5064450000000 1.0
C      1  0.5677640000000  0.4896040000000  0.4410380000000 1.0
C      1  0.5468850000000  0.5695020000000  0.5403570000000 1.0
C      1  0.4956710000000  0.5934590000000  0.5518600000000 1.0
C      1  0.5642500000000  0.5034120000000  0.5538710000000 1.0
C      1  0.5864270000000  0.4291600000000  0.5165930000000 1.0
C      1  0.5934850000000  0.5466930000000  0.5036090000000 1.0
C      1  0.5785760000000  0.4904260000000  0.4088060000000 1.0
C      1  0.5340930000000  0.5111110000000  0.4812290000000 1.0
C      1  0.5672410000000  0.5749390000000  0.5136550000000 1.0
C      1  0.5526480000000  0.4580770000000  0.5864480000000 1.0
C      1  0.4922520000000  0.6079320000000  0.5215080000000 1.0
C      1  0.4116250000000  0.4735140000000  0.5057220000000 1.0
C      1  0.4804170000000  0.5974310000000  0.4573650000000 1.0
C      1  0.5521970000000  0.5572680000000  0.4569430000000 1.0
C      1  0.4491840000000  0.5564770000000  0.4732760000000 1.0
C      1  0.4504840000000  0.4672720000000  0.5875180000000 1.0
C      1  0.4970070000000  0.5439720000000  0.6151370000000 1.0
C      1  0.5244320000000  0.4403930000000  0.5418120000000 1.0
C      1  0.4799970000000  0.4133510000000  0.5613410000000 1.0
C      1  0.5299380000000  0.3985860000000  0.4999710000000 1.0
C      1  0.4898970000000  0.4320770000000  0.4357080000000 1.0
C      1  0.4318850000000  0.5474620000000  0.5380190000000 1.0
C      1  0.4322020000000  0.4237850000000  0.4412190000000 1.0
C      1  0.4435770000000  0.4373210000000  0.4136770000000 1.0
C      1  0.4731060000000  0.4503490000000  0.5213870000000 1.0
C      1  0.5877940000000  0.5173760000000  0.4444100000000 1.0
C      1  0.3908770000000  0.5488360000000  0.5095050000000 1.0
C      1  0.5168280000000  0.5517210000000  0.5888890000000 1.0
C      1  0.4371210000000  0.4447910000000  0.5657690000000 1.0
C      1  0.4746010000000  0.5076220000000  0.4323970000000 1.0
C      1  0.5366680000000  0.4796100000000  0.6011730000000 1.0
C      1  0.5048390000000  0.5437350000000  0.4056990000000 1.0
C      1  0.4024980000000  0.5056570000000  0.4681800000000 1.0
C      1  0.4756740000000  0.5741280000000  0.5083920000000 1.0
C      1  0.4317330000000  0.5170140000000  0.5787400000000 1.0
C      1  0.5221390000000  0.4061600000000  0.5413370000000 1.0
C      1  0.5106020000000  0.4162260000000  0.5699830000000 1.0
C      1  0.5250810000000  0.6078950000000  0.4743660000000 1.0
C      1  0.5323910000000  0.5152840000000  0.5542830000000 1.0
C      1  0.5083070000000  0.4044290000000  0.4329270000000 1.0
C      1  0.5057670000000  0.4654190000000  0.5937780000000 1.0
C      1  0.3988460000000  0.4989110000000  0.4946230000000 1.0
C      1  0.5159240000000  0.5739870000000  0.5355860000000 1.0
C      1  0.4783700000000  0.5710860000000  0.4752130000000 1.0
C      1  0.4305810000000  0.4671780000000  0.5401380000000 1.0
C      1  0.4133790000000  0.4424350000000  0.4920390000000 1.0
C      1  0.4595400000000  0.5883780000000  0.4353700000000 1.0
C      1  0.4421120000000  0.5529170000000  0.5938600000000 1.0
C      1  0.5085760000000  0.5307730000000  0.4361960000000 1.0
C      1  0.5755840000000  0.4090720000000  0.5008000000000 1.0
C      1  0.4242910000000  0.4869390000000  0.5874430000000 1.0
C      1  0.5837710000000  0.4842710000000  0.4705710000000 1.0
END
