TITL C-2847954-6904-404 0.000909435681566339 125000 -890.562490334912 0 0 162 (C1) n - 1
REM
REM in /home/bkarasulu/work/CARBON/AIRSS/Generating-Clusters/AIREBO/with-SteepDescent/Only-C1/SD-CG-opt/Try1-1.4A-POS3A/HFTN-CG
REM
REM
REM
REM
REM
REM ./C.cell (11c1c37f851c82e70ff6c80c92926a4b)
REM
REM compiler GCC version 9.2.1 20190827 (Red Hat 9.2.1-1)
REM options -cpp -mtune=generic -march=x86-64 -g -O0 -fpre-include=/usr/include/finclude/math-vector-fortran.h
REM seed 934626777 226996675 -329144626 2025772762 289399277 1699625348 -1037167875 2026816922 1189524335 -21756925 1506795552 -284218914 1629962919 1254130708 -1089141466 278298985 1558518986 584130472 1856704892 1735733452 -699001136 -1523356078 -678705201 -1718759184 -1280865324 -2071434669 546499246 2050236177 1080049674 -1740538870 1549406096 1319474112 -1100967727
REM
CELL 1.54180   50.00000   50.00000   50.00000   90.00000   90.00000   90.00000
LATT -1
SFAC C  
C      1  0.5783030000000  0.5011360000000  0.5854900000000 1.0
C      1  0.5378930000000  0.4611220000000  0.4385250000000 1.0
C      1  0.5571140000000  0.5639600000000  0.4606680000000 1.0
C      1  0.4583380000000  0.6092780000000  0.4916030000000 1.0
C      1  0.4638700000000  0.4737030000000  0.5927540000000 1.0
C      1  0.4126400000000  0.5768040000000  0.5815000000000 1.0
C      1  0.4696960000000  0.4917290000000  0.4563110000000 1.0
C      1  0.4790910000000  0.5260850000000  0.5447080000000 1.0
C      1  0.4762710000000  0.4390620000000  0.5003940000000 1.0
C      1  0.4383790000000  0.4000940000000  0.5163130000000 1.0
C      1  0.5710060000000  0.5596380000000  0.5762030000000 1.0
C      1  0.5538300000000  0.5567440000000  0.5305680000000 1.0
C      1  0.4540340000000  0.4362330000000  0.5570020000000 1.0
C      1  0.5406800000000  0.5812890000000  0.4542490000000 1.0
C      1  0.5557970000000  0.4873030000000  0.5664710000000 1.0
C      1  0.4632940000000  0.4392690000000  0.4689300000000 1.0
C      1  0.4675610000000  0.4883390000000  0.5498820000000 1.0
C      1  0.5966510000000  0.5196890000000  0.5117580000000 1.0
C      1  0.4690450000000  0.3959310000000  0.4696690000000 1.0
C      1  0.5602170000000  0.5064240000000  0.4016830000000 1.0
C      1  0.5229780000000  0.5989450000000  0.5489970000000 1.0
C      1  0.4063400000000  0.4985960000000  0.5214210000000 1.0
C      1  0.5621560000000  0.4841520000000  0.6056360000000 1.0
C      1  0.4221800000000  0.4469290000000  0.5088070000000 1.0
C      1  0.5619160000000  0.4563960000000  0.4621300000000 1.0
C      1  0.4188400000000  0.4195130000000  0.5255440000000 1.0
C      1  0.4809940000000  0.5439680000000  0.5093110000000 1.0
C      1  0.5269270000000  0.4714880000000  0.5705170000000 1.0
C      1  0.5605490000000  0.4305520000000  0.4024490000000 1.0
C      1  0.4519070000000  0.5016830000000  0.4135730000000 1.0
C      1  0.4187840000000  0.5465310000000  0.4811490000000 1.0
C      1  0.5062500000000  0.4692350000000  0.4480080000000 1.0
C      1  0.3956080000000  0.5436290000000  0.5019080000000 1.0
C      1  0.4392510000000  0.4825340000000  0.4292150000000 1.0
C      1  0.4376440000000  0.4319050000000  0.4371690000000 1.0
C      1  0.4877240000000  0.4064090000000  0.5456350000000 1.0
C      1  0.5718260000000  0.5180780000000  0.4251280000000 1.0
C      1  0.5039980000000  0.4426460000000  0.5197500000000 1.0
C      1  0.5135590000000  0.3902570000000  0.5065800000000 1.0
C      1  0.4110950000000  0.4594980000000  0.4832860000000 1.0
C      1  0.5249930000000  0.3973370000000  0.4760970000000 1.0
C      1  0.4993110000000  0.4805880000000  0.5565250000000 1.0
C      1  0.5007600000000  0.5352260000000  0.5768980000000 1.0
C      1  0.5387040000000  0.4523110000000  0.4840660000000 1.0
C      1  0.5503060000000  0.4982310000000  0.5268700000000 1.0
C      1  0.4300390000000  0.4878600000000  0.4587500000000 1.0
C      1  0.5929670000000  0.5255560000000  0.5418180000000 1.0
C      1  0.5320690000000  0.5135800000000  0.3954170000000 1.0
C      1  0.4425050000000  0.3959100000000  0.4875130000000 1.0
C      1  0.5628380000000  0.5160070000000  0.5517660000000 1.0
C      1  0.4841530000000  0.4561330000000  0.4256970000000 1.0
C      1  0.4648590000000  0.5554600000000  0.4660240000000 1.0
C      1  0.5149080000000  0.4345640000000  0.4912730000000 1.0
C      1  0.5357290000000  0.4403080000000  0.5621060000000 1.0
C      1  0.5074380000000  0.6044560000000  0.5014960000000 1.0
C      1  0.5744270000000  0.4584140000000  0.5201220000000 1.0
C      1  0.4938760000000  0.5868530000000  0.5617620000000 1.0
C      1  0.5826110000000  0.4533270000000  0.5452660000000 1.0
C      1  0.5010770000000  0.4724270000000  0.5251600000000 1.0
C      1  0.4600690000000  0.4637480000000  0.4484650000000 1.0
C      1  0.5686580000000  0.5169980000000  0.4926250000000 1.0
C      1  0.4523530000000  0.4409070000000  0.5232960000000 1.0
C      1  0.5265480000000  0.5198890000000  0.5355670000000 1.0
C      1  0.5457180000000  0.5037900000000  0.4725700000000 1.0
C      1  0.4352120000000  0.5209260000000  0.4856100000000 1.0
C      1  0.4371760000000  0.4196630000000  0.4681890000000 1.0
C      1  0.4642230000000  0.5249410000000  0.4347120000000 1.0
C      1  0.4919080000000  0.5412310000000  0.4235290000000 1.0
C      1  0.5797830000000  0.4799020000000  0.4744720000000 1.0
C      1  0.4888130000000  0.5159950000000  0.4916260000000 1.0
C      1  0.4564500000000  0.4377960000000  0.4183760000000 1.0
C      1  0.5313850000000  0.4314400000000  0.5328490000000 1.0
C      1  0.5048910000000  0.5119970000000  0.5543450000000 1.0
C      1  0.5821820000000  0.5676950000000  0.4911540000000 1.0
C      1  0.4907940000000  0.5561840000000  0.5366080000000 1.0
C      1  0.4162220000000  0.5126250000000  0.4418130000000 1.0
C      1  0.4930610000000  0.5136720000000  0.5980890000000 1.0
C      1  0.5257830000000  0.4293310000000  0.4395340000000 1.0
C      1  0.5632880000000  0.4570850000000  0.5638080000000 1.0
C      1  0.5176560000000  0.5637290000000  0.5692750000000 1.0
C      1  0.4899610000000  0.5027400000000  0.4338370000000 1.0
C      1  0.5535110000000  0.5369390000000  0.5890280000000 1.0
C      1  0.5194600000000  0.5787200000000  0.4977900000000 1.0
C      1  0.4630630000000  0.4027310000000  0.5307180000000 1.0
C      1  0.4755160000000  0.4168210000000  0.4465060000000 1.0
C      1  0.4891820000000  0.4755460000000  0.3995580000000 1.0
C      1  0.3988900000000  0.5294150000000  0.5252330000000 1.0
C      1  0.6132990000000  0.5100580000000  0.4903130000000 1.0
C      1  0.5163280000000  0.5366420000000  0.4011690000000 1.0
C      1  0.5126850000000  0.5766130000000  0.4367080000000 1.0
C      1  0.5484790000000  0.5377530000000  0.5075830000000 1.0
C      1  0.4726900000000  0.5918390000000  0.5356180000000 1.0
C      1  0.5684110000000  0.4185990000000  0.4931640000000 1.0
C      1  0.5154560000000  0.4879570000000  0.3929770000000 1.0
C      1  0.4510470000000  0.5470730000000  0.5132390000000 1.0
C      1  0.5658640000000  0.4789360000000  0.3982310000000 1.0
C      1  0.4155260000000  0.4432660000000  0.4604440000000 1.0
C      1  0.5406140000000  0.5413600000000  0.5578650000000 1.0
C      1  0.4149720000000  0.4741720000000  0.5526500000000 1.0
C      1  0.5633680000000  0.4245320000000  0.4670050000000 1.0
C      1  0.4848430000000  0.4275330000000  0.5685620000000 1.0
C      1  0.5438830000000  0.4948170000000  0.4413780000000 1.0
C      1  0.4795210000000  0.5764200000000  0.4843580000000 1.0
C      1  0.5154420000000  0.5718310000000  0.5299110000000 1.0
C      1  0.5486120000000  0.5285250000000  0.4413240000000 1.0
C      1  0.5688540000000  0.5833500000000  0.5048320000000 1.0
C      1  0.4971860000000  0.4125140000000  0.4791250000000 1.0
C      1  0.4637460000000  0.5227370000000  0.4689300000000 1.0
C      1  0.4820710000000  0.4589520000000  0.5746700000000 1.0
C      1  0.4564360000000  0.4868700000000  0.5226210000000 1.0
C      1  0.5281350000000  0.5464360000000  0.4394460000000 1.0
C      1  0.4573250000000  0.5717020000000  0.4378810000000 1.0
C      1  0.5457270000000  0.5753790000000  0.5814530000000 1.0
C      1  0.4781480000000  0.5581480000000  0.5681330000000 1.0
C      1  0.4780440000000  0.4732810000000  0.5001540000000 1.0
C      1  0.5248180000000  0.4859450000000  0.5149960000000 1.0
C      1  0.5456760000000  0.5874490000000  0.5266840000000 1.0
C      1  0.5121340000000  0.4054760000000  0.5317420000000 1.0
C      1  0.4174030000000  0.4922660000000  0.4898780000000 1.0
C      1  0.4398390000000  0.5720820000000  0.4819630000000 1.0
C      1  0.5718200000000  0.4860750000000  0.5064590000000 1.0
C      1  0.5147030000000  0.4251100000000  0.5801910000000 1.0
C      1  0.4545010000000  0.5154800000000  0.5656610000000 1.0
C      1  0.4849570000000  0.5874600000000  0.4463280000000 1.0
C      1  0.5156710000000  0.5124420000000  0.4628170000000 1.0
C      1  0.4574500000000  0.5803210000000  0.5099280000000 1.0
C      1  0.5994920000000  0.4994010000000  0.4667840000000 1.0
C      1  0.4668860000000  0.4912920000000  0.3925270000000 1.0
C      1  0.4486400000000  0.5471290000000  0.5711290000000 1.0
C      1  0.5031720000000  0.5526230000000  0.4850320000000 1.0
C      1  0.4288170000000  0.4731190000000  0.5229700000000 1.0
C      1  0.5791330000000  0.5413010000000  0.4712660000000 1.0
C      1  0.5402050000000  0.4122070000000  0.4570150000000 1.0
C      1  0.4475720000000  0.4757680000000  0.4852630000000 1.0
C      1  0.4681300000000  0.5018080000000  0.5927620000000 1.0
C      1  0.5530770000000  0.4389930000000  0.5116260000000 1.0
C      1  0.5558730000000  0.4561470000000  0.4110700000000 1.0
C      1  0.4221590000000  0.5553900000000  0.5680560000000 1.0
C      1  0.4814410000000  0.4059350000000  0.5061680000000 1.0
C      1  0.5895550000000  0.5205070000000  0.4490840000000 1.0
C      1  0.4980650000000  0.6077920000000  0.5282670000000 1.0
C      1  0.4659210000000  0.5573620000000  0.4114970000000 1.0
C      1  0.5280980000000  0.4807330000000  0.4864580000000 1.0
C      1  0.4284680000000  0.5050790000000  0.5464220000000 1.0
C      1  0.4418810000000  0.5161070000000  0.5170100000000 1.0
C      1  0.4444210000000  0.4514980000000  0.5854730000000 1.0
C      1  0.5193040000000  0.5068770000000  0.6079370000000 1.0
C      1  0.5993300000000  0.5096320000000  0.5704460000000 1.0
C      1  0.5176870000000  0.5289710000000  0.5046990000000 1.0
C      1  0.5337500000000  0.4838800000000  0.5996760000000 1.0
C      1  0.4281290000000  0.5610380000000  0.4518480000000 1.0
C      1  0.4990060000000  0.4266680000000  0.4322760000000 1.0
C      1  0.5781870000000  0.5528320000000  0.5496850000000 1.0
C      1  0.4965630000000  0.4872080000000  0.4752430000000 1.0
C      1  0.5160350000000  0.4914340000000  0.4245510000000 1.0
C      1  0.5364220000000  0.5299130000000  0.6099750000000 1.0
C      1  0.4794390000000  0.6060960000000  0.4698800000000 1.0
C      1  0.4052970000000  0.5412670000000  0.5500360000000 1.0
C      1  0.5181840000000  0.5656020000000  0.4060030000000 1.0
C      1  0.4325120000000  0.5344840000000  0.4361370000000 1.0
C      1  0.5016630000000  0.5396310000000  0.4560850000000 1.0
C      1  0.4222310000000  0.4430970000000  0.5485480000000 1.0
END
