TITL C-2847953-8112-570 0.000747693755302495 125000 -839.594954633712 0 0 156 (C1) n - 1
REM
REM in /home/bkarasulu/work/CARBON/AIRSS/Generating-Clusters/AIREBO/with-SteepDescent/Only-C1/SD-CG-opt/Try1-1.4A-POS3A/HFTN-CG
REM
REM
REM
REM
REM
REM ./C.cell (11c1c37f851c82e70ff6c80c92926a4b)
REM
REM compiler GCC version 9.2.1 20190827 (Red Hat 9.2.1-1)
REM options -cpp -mtune=generic -march=x86-64 -g -O0 -fpre-include=/usr/include/finclude/math-vector-fortran.h
REM seed -1606810098 -952109415 -703698759 705588197 2010953746 -1906075211 -1795126152 1084147923 1034159491 419664940 1892668210 -336693065 -378291755 1598221556 -2135587999 -312548425 -178680040 611030935 1429511977 1910254137 -1202233404 1919307723 -1254668840 -1852467882 522686787 1058794304 -1033600413 -1634171950 199328392 -578512342 -1574354459 676582382 -2111242635
REM
CELL 1.54180   50.00000   50.00000   50.00000   90.00000   90.00000   90.00000
LATT -1
SFAC C  
C      1  0.4246130000000  0.4523470000000  0.4574770000000 1.0
C      1  0.5682670000000  0.5408810000000  0.4454560000000 1.0
C      1  0.4598940000000  0.4935250000000  0.5068360000000 1.0
C      1  0.5496040000000  0.5094980000000  0.5849550000000 1.0
C      1  0.5246480000000  0.5116980000000  0.5378910000000 1.0
C      1  0.4335240000000  0.4981950000000  0.4379100000000 1.0
C      1  0.4293070000000  0.5739580000000  0.5181250000000 1.0
C      1  0.5320780000000  0.5446870000000  0.5027340000000 1.0
C      1  0.4914600000000  0.4792530000000  0.3944190000000 1.0
C      1  0.5517120000000  0.4716640000000  0.5037760000000 1.0
C      1  0.5307520000000  0.4763120000000  0.4303450000000 1.0
C      1  0.5151510000000  0.4053290000000  0.4704360000000 1.0
C      1  0.4927130000000  0.4411140000000  0.4880470000000 1.0
C      1  0.5582370000000  0.5746030000000  0.4996180000000 1.0
C      1  0.5269440000000  0.5656180000000  0.4764210000000 1.0
C      1  0.5850130000000  0.4572960000000  0.4870260000000 1.0
C      1  0.5597560000000  0.5655660000000  0.4668680000000 1.0
C      1  0.5395410000000  0.5839680000000  0.5617370000000 1.0
C      1  0.4447940000000  0.4902830000000  0.5899690000000 1.0
C      1  0.4788450000000  0.4709430000000  0.4898860000000 1.0
C      1  0.5725240000000  0.5297420000000  0.5697860000000 1.0
C      1  0.5168020000000  0.4452920000000  0.5215790000000 1.0
C      1  0.5158240000000  0.5034840000000  0.4233820000000 1.0
C      1  0.4217800000000  0.4404980000000  0.4289300000000 1.0
C      1  0.5200010000000  0.4462810000000  0.5554190000000 1.0
C      1  0.4733810000000  0.4309740000000  0.4640480000000 1.0
C      1  0.4508250000000  0.4706790000000  0.5260030000000 1.0
C      1  0.4545410000000  0.4138570000000  0.5248050000000 1.0
C      1  0.4800140000000  0.4605370000000  0.4195470000000 1.0
C      1  0.4249810000000  0.4391940000000  0.5567100000000 1.0
C      1  0.4720660000000  0.5390170000000  0.5314450000000 1.0
C      1  0.4698300000000  0.5520930000000  0.5914310000000 1.0
C      1  0.4243140000000  0.5291750000000  0.5337800000000 1.0
C      1  0.5203830000000  0.4472780000000  0.4766870000000 1.0
C      1  0.5495310000000  0.4487710000000  0.5707770000000 1.0
C      1  0.4768650000000  0.5773830000000  0.4959580000000 1.0
C      1  0.5032760000000  0.4735650000000  0.5133980000000 1.0
C      1  0.5074560000000  0.5325030000000  0.4871030000000 1.0
C      1  0.5396200000000  0.5662170000000  0.4387780000000 1.0
C      1  0.5509810000000  0.4993420000000  0.4048850000000 1.0
C      1  0.5832000000000  0.4321650000000  0.4978230000000 1.0
C      1  0.4560490000000  0.4584480000000  0.4677270000000 1.0
C      1  0.4348740000000  0.4653010000000  0.5974520000000 1.0
C      1  0.4025990000000  0.5106200000000  0.5255250000000 1.0
C      1  0.5403780000000  0.4708530000000  0.4625120000000 1.0
C      1  0.5046740000000  0.5456500000000  0.5730920000000 1.0
C      1  0.5543010000000  0.5205130000000  0.5044810000000 1.0
C      1  0.5292640000000  0.5989990000000  0.4678010000000 1.0
C      1  0.5344700000000  0.5145850000000  0.4767780000000 1.0
C      1  0.4198800000000  0.5556660000000  0.4556870000000 1.0
C      1  0.4252270000000  0.4570720000000  0.4072060000000 1.0
C      1  0.4929230000000  0.4075040000000  0.5625690000000 1.0
C      1  0.4916880000000  0.4547140000000  0.4498450000000 1.0
C      1  0.5260620000000  0.5843080000000  0.5048200000000 1.0
C      1  0.4833720000000  0.5299660000000  0.6027380000000 1.0
C      1  0.4847030000000  0.5146480000000  0.4982490000000 1.0
C      1  0.5971620000000  0.5055120000000  0.5158120000000 1.0
C      1  0.4819680000000  0.5064250000000  0.4219220000000 1.0
C      1  0.4500390000000  0.5241080000000  0.5179740000000 1.0
C      1  0.4362850000000  0.5320560000000  0.4404570000000 1.0
C      1  0.4541940000000  0.5061950000000  0.4046260000000 1.0
C      1  0.4923310000000  0.4853960000000  0.4636640000000 1.0
C      1  0.4110140000000  0.4835360000000  0.4555700000000 1.0
C      1  0.5826990000000  0.5528040000000  0.4966830000000 1.0
C      1  0.5054820000000  0.4088840000000  0.5383530000000 1.0
C      1  0.5291520000000  0.4879840000000  0.6015540000000 1.0
C      1  0.5409260000000  0.4778100000000  0.3904180000000 1.0
C      1  0.4045240000000  0.5141630000000  0.4963140000000 1.0
C      1  0.5827480000000  0.4779720000000  0.5085000000000 1.0
C      1  0.4790520000000  0.4055410000000  0.4528390000000 1.0
C      1  0.5039250000000  0.4658920000000  0.5958410000000 1.0
C      1  0.5786230000000  0.5331150000000  0.5230070000000 1.0
C      1  0.5314900000000  0.4925550000000  0.6305260000000 1.0
C      1  0.4709820000000  0.5044170000000  0.4503020000000 1.0
C      1  0.4712030000000  0.4969060000000  0.5607700000000 1.0
C      1  0.5332150000000  0.4173890000000  0.5319800000000 1.0
C      1  0.5169860000000  0.4603240000000  0.4046810000000 1.0
C      1  0.4869680000000  0.5719050000000  0.5697290000000 1.0
C      1  0.4997410000000  0.4333150000000  0.4142830000000 1.0
C      1  0.4997810000000  0.5244100000000  0.5252220000000 1.0
C      1  0.4163590000000  0.4918520000000  0.5454490000000 1.0
C      1  0.4416000000000  0.4432520000000  0.5819420000000 1.0
C      1  0.4748080000000  0.5692770000000  0.5406770000000 1.0
C      1  0.5223010000000  0.6132470000000  0.5187650000000 1.0
C      1  0.4476470000000  0.4186770000000  0.5515980000000 1.0
C      1  0.5340330000000  0.4732780000000  0.5438010000000 1.0
C      1  0.4248890000000  0.5595010000000  0.4881890000000 1.0
C      1  0.5257310000000  0.4845160000000  0.4900400000000 1.0
C      1  0.4391940000000  0.4921840000000  0.4824090000000 1.0
C      1  0.4734560000000  0.4931500000000  0.5944880000000 1.0
C      1  0.4425410000000  0.5639310000000  0.5414230000000 1.0
C      1  0.4480660000000  0.5832240000000  0.4911330000000 1.0
C      1  0.5526250000000  0.5708550000000  0.5329610000000 1.0
C      1  0.5530600000000  0.5476950000000  0.4180740000000 1.0
C      1  0.5096950000000  0.5944930000000  0.5640670000000 1.0
C      1  0.4380690000000  0.5059280000000  0.5631100000000 1.0
C      1  0.4367570000000  0.4822600000000  0.4080460000000 1.0
C      1  0.4275340000000  0.4380050000000  0.4866670000000 1.0
C      1  0.4304720000000  0.5306480000000  0.4923980000000 1.0
C      1  0.4717340000000  0.4304750000000  0.5726330000000 1.0
C      1  0.4861750000000  0.4202860000000  0.5141210000000 1.0
C      1  0.4865390000000  0.5813820000000  0.4337710000000 1.0
C      1  0.5608420000000  0.4901680000000  0.4341470000000 1.0
C      1  0.5011780000000  0.5812260000000  0.4606320000000 1.0
C      1  0.5140560000000  0.4931590000000  0.5614110000000 1.0
C      1  0.4584830000000  0.5195840000000  0.4765990000000 1.0
C      1  0.5029130000000  0.6093180000000  0.5404790000000 1.0
C      1  0.5727060000000  0.4663240000000  0.4645260000000 1.0
C      1  0.6115800000000  0.5120090000000  0.4448690000000 1.0
C      1  0.4338470000000  0.5397440000000  0.5605700000000 1.0
C      1  0.4499140000000  0.4421320000000  0.5084630000000 1.0
C      1  0.4881920000000  0.5558850000000  0.4770580000000 1.0
C      1  0.5103040000000  0.5122180000000  0.4529750000000 1.0
C      1  0.4964500000000  0.3993140000000  0.4894050000000 1.0
C      1  0.5128670000000  0.5397070000000  0.6056960000000 1.0
C      1  0.4639120000000  0.5457270000000  0.4555210000000 1.0
C      1  0.5648510000000  0.4576580000000  0.5421890000000 1.0
C      1  0.5674910000000  0.4995900000000  0.5577900000000 1.0
C      1  0.5594990000000  0.4142320000000  0.4566480000000 1.0
C      1  0.5613840000000  0.5117380000000  0.4558300000000 1.0
C      1  0.5515590000000  0.4347130000000  0.4376790000000 1.0
C      1  0.4945460000000  0.5847800000000  0.5189430000000 1.0
C      1  0.5323530000000  0.5523240000000  0.5617160000000 1.0
C      1  0.5643600000000  0.4286690000000  0.5243020000000 1.0
C      1  0.5427190000000  0.4395060000000  0.5003450000000 1.0
C      1  0.4122000000000  0.4553900000000  0.5084720000000 1.0
C      1  0.4884070000000  0.5483050000000  0.4319990000000 1.0
C      1  0.5742860000000  0.5493500000000  0.5479970000000 1.0
C      1  0.4910110000000  0.5093350000000  0.3895670000000 1.0
C      1  0.4910570000000  0.4740990000000  0.5451480000000 1.0
C      1  0.5221450000000  0.4394110000000  0.4460220000000 1.0
C      1  0.5542200000000  0.5702910000000  0.5892190000000 1.0
C      1  0.4588110000000  0.4755940000000  0.4406500000000 1.0
C      1  0.5488590000000  0.4612710000000  0.5949710000000 1.0
C      1  0.5025410000000  0.5052480000000  0.5892820000000 1.0
C      1  0.5671940000000  0.4573060000000  0.4362060000000 1.0
C      1  0.5068970000000  0.4107580000000  0.4378630000000 1.0
C      1  0.4403220000000  0.5293970000000  0.4093220000000 1.0
C      1  0.4469030000000  0.5749760000000  0.4589410000000 1.0
C      1  0.5412450000000  0.4132510000000  0.4787610000000 1.0
C      1  0.4943590000000  0.4528530000000  0.5715090000000 1.0
C      1  0.5966380000000  0.5260520000000  0.4888170000000 1.0
C      1  0.5024210000000  0.5355320000000  0.4042700000000 1.0
C      1  0.4880380000000  0.5239220000000  0.5564770000000 1.0
C      1  0.4218990000000  0.4621700000000  0.5371910000000 1.0
C      1  0.3927510000000  0.5047430000000  0.4735030000000 1.0
C      1  0.5879660000000  0.4825530000000  0.5401010000000 1.0
C      1  0.4604690000000  0.5909960000000  0.4360950000000 1.0
C      1  0.5346820000000  0.5266850000000  0.4070400000000 1.0
C      1  0.5922560000000  0.5151090000000  0.4640700000000 1.0
C      1  0.5165800000000  0.5456860000000  0.4508590000000 1.0
C      1  0.5525440000000  0.4960650000000  0.5274490000000 1.0
C      1  0.5400680000000  0.5394040000000  0.5905690000000 1.0
C      1  0.4745210000000  0.4478340000000  0.5312490000000 1.0
C      1  0.4157280000000  0.4759620000000  0.4882850000000 1.0
C      1  0.5376880000000  0.5403660000000  0.5348290000000 1.0
END
