TITL C-2848497-6229-538 -0.000111928588498023 125000 -773.656475199124 0 0 149 (C1) n - 1
REM
REM in /home/bkarasulu/work/CARBON/AIRSS/Generating-Clusters/AIREBO/with-SteepDescent/Only-C1/SD-CG-opt/Try1-1.4A-POS3A/HFTN-CG
REM
REM
REM
REM
REM
REM ./C.cell (11c1c37f851c82e70ff6c80c92926a4b)
REM
REM compiler GCC version 9.2.1 20190827 (Red Hat 9.2.1-1)
REM options -cpp -mtune=generic -march=x86-64 -g -O0 -fpre-include=/usr/include/finclude/math-vector-fortran.h
REM seed 1549489948 -1943275758 -409929741 -830785448 1804205561 -1637983094 35018751 -1376966479 -1671133416 -431378454 -1680793646 -1290347695 -1055729008 1068443399 859040048 -77857733 593938437 1984673687 52050371 1184334012 -856285154 -397338806 1606788647 200123898 -918186735 299338411 1975939403 174120740 -1522857594 1217586830 -1830079427 -563407632 -784223284
REM
CELL 1.54180   50.00000   50.00000   50.00000   90.00000   90.00000   90.00000
LATT -1
SFAC C  
C      1  0.5133040000000  0.5712760000000  0.5430840000000 1.0
C      1  0.5949300000000  0.5266270000000  0.5332690000000 1.0
C      1  0.4995890000000  0.4871460000000  0.4265170000000 1.0
C      1  0.5452820000000  0.4783950000000  0.5502380000000 1.0
C      1  0.5575770000000  0.5180870000000  0.5442880000000 1.0
C      1  0.4527010000000  0.5337630000000  0.4491780000000 1.0
C      1  0.5106380000000  0.4970660000000  0.5382770000000 1.0
C      1  0.4679420000000  0.5745610000000  0.4601640000000 1.0
C      1  0.4720490000000  0.5366090000000  0.5403210000000 1.0
C      1  0.4448060000000  0.5865020000000  0.5401300000000 1.0
C      1  0.4241860000000  0.4600170000000  0.4343950000000 1.0
C      1  0.4091980000000  0.5496580000000  0.5026960000000 1.0
C      1  0.4694350000000  0.5100010000000  0.5579550000000 1.0
C      1  0.4025570000000  0.5208370000000  0.4907420000000 1.0
C      1  0.4961810000000  0.6044330000000  0.4688430000000 1.0
C      1  0.5823030000000  0.5502220000000  0.5281770000000 1.0
C      1  0.5781820000000  0.5583880000000  0.4522050000000 1.0
C      1  0.5315870000000  0.4481250000000  0.5887270000000 1.0
C      1  0.4539240000000  0.4190400000000  0.5087660000000 1.0
C      1  0.5136650000000  0.4932580000000  0.5949400000000 1.0
C      1  0.5269020000000  0.5080250000000  0.5110220000000 1.0
C      1  0.4793890000000  0.5319600000000  0.3947230000000 1.0
C      1  0.5316600000000  0.4441850000000  0.5351200000000 1.0
C      1  0.4387120000000  0.5610180000000  0.4591750000000 1.0
C      1  0.4347060000000  0.5164180000000  0.4180810000000 1.0
C      1  0.5169710000000  0.4147030000000  0.4847780000000 1.0
C      1  0.4799990000000  0.5787140000000  0.5107330000000 1.0
C      1  0.5219040000000  0.4339870000000  0.6181580000000 1.0
C      1  0.4316390000000  0.5094540000000  0.4512430000000 1.0
C      1  0.4090000000000  0.4695800000000  0.4816050000000 1.0
C      1  0.4894750000000  0.4752890000000  0.5913130000000 1.0
C      1  0.4731800000000  0.4412790000000  0.5782120000000 1.0
C      1  0.5312690000000  0.4430850000000  0.4309530000000 1.0
C      1  0.4121760000000  0.4878510000000  0.5383450000000 1.0
C      1  0.4473860000000  0.4237550000000  0.5389870000000 1.0
C      1  0.4985440000000  0.4446630000000  0.5959520000000 1.0
C      1  0.5385680000000  0.4785970000000  0.5835800000000 1.0
C      1  0.5278670000000  0.4197220000000  0.4524130000000 1.0
C      1  0.4345260000000  0.5198830000000  0.5369520000000 1.0
C      1  0.5503460000000  0.4865560000000  0.5214210000000 1.0
C      1  0.5440850000000  0.5717330000000  0.5485580000000 1.0
C      1  0.5005580000000  0.5057030000000  0.3899810000000 1.0
C      1  0.5789190000000  0.4861190000000  0.4619280000000 1.0
C      1  0.5141380000000  0.4686420000000  0.5509610000000 1.0
C      1  0.4545770000000  0.4594940000000  0.4602870000000 1.0
C      1  0.4707040000000  0.5918870000000  0.5377560000000 1.0
C      1  0.5247470000000  0.5193970000000  0.5530870000000 1.0
C      1  0.5439800000000  0.4331720000000  0.5649140000000 1.0
C      1  0.4668370000000  0.4219600000000  0.4470390000000 1.0
C      1  0.5055860000000  0.5194700000000  0.4352330000000 1.0
C      1  0.5825490000000  0.4640590000000  0.5140270000000 1.0
C      1  0.4985900000000  0.4204710000000  0.4343670000000 1.0
C      1  0.4532190000000  0.4449880000000  0.4291710000000 1.0
C      1  0.5877670000000  0.5309160000000  0.4476100000000 1.0
C      1  0.5701400000000  0.5181860000000  0.4296120000000 1.0
C      1  0.4392560000000  0.4203960000000  0.4587390000000 1.0
C      1  0.5594340000000  0.5027770000000  0.5811640000000 1.0
C      1  0.4231790000000  0.5004680000000  0.4829610000000 1.0
C      1  0.5752160000000  0.4680700000000  0.4098420000000 1.0
C      1  0.5776510000000  0.5363540000000  0.4855780000000 1.0
C      1  0.4598530000000  0.4846320000000  0.4825790000000 1.0
C      1  0.5855200000000  0.4540070000000  0.4595140000000 1.0
C      1  0.5161870000000  0.5391860000000  0.5194080000000 1.0
C      1  0.5625390000000  0.4888110000000  0.4329610000000 1.0
C      1  0.5532720000000  0.5526820000000  0.5741750000000 1.0
C      1  0.4535760000000  0.4612790000000  0.5806040000000 1.0
C      1  0.5537250000000  0.5641250000000  0.4634080000000 1.0
C      1  0.5339670000000  0.4850580000000  0.4651090000000 1.0
C      1  0.5506360000000  0.4143890000000  0.5136970000000 1.0
C      1  0.4418930000000  0.4675210000000  0.5551670000000 1.0
C      1  0.5013400000000  0.5591830000000  0.4785030000000 1.0
C      1  0.5631990000000  0.4489730000000  0.4310540000000 1.0
C      1  0.4394070000000  0.5981430000000  0.4895090000000 1.0
C      1  0.4831570000000  0.4789910000000  0.5604520000000 1.0
C      1  0.4912550000000  0.4239110000000  0.4674050000000 1.0
C      1  0.4777730000000  0.5325500000000  0.4303470000000 1.0
C      1  0.5519570000000  0.4568300000000  0.4621710000000 1.0
C      1  0.5061180000000  0.4756060000000  0.3951930000000 1.0
C      1  0.5907280000000  0.4902530000000  0.4938320000000 1.0
C      1  0.4029630000000  0.4594850000000  0.4515480000000 1.0
C      1  0.5495550000000  0.5347080000000  0.4197780000000 1.0
C      1  0.4284460000000  0.5043730000000  0.5633330000000 1.0
C      1  0.4575720000000  0.5105580000000  0.4038750000000 1.0
C      1  0.4301460000000  0.4435260000000  0.4761140000000 1.0
C      1  0.4708780000000  0.5442480000000  0.4759410000000 1.0
C      1  0.5411170000000  0.4340770000000  0.4802430000000 1.0
C      1  0.3903450000000  0.5606580000000  0.5199830000000 1.0
C      1  0.5170100000000  0.5571160000000  0.5909980000000 1.0
C      1  0.5132790000000  0.5238890000000  0.5847900000000 1.0
C      1  0.4805420000000  0.5592260000000  0.4143610000000 1.0
C      1  0.5793980000000  0.4971650000000  0.5596580000000 1.0
C      1  0.5845760000000  0.4726870000000  0.5461010000000 1.0
C      1  0.5089810000000  0.5701860000000  0.5092720000000 1.0
C      1  0.4592450000000  0.4839390000000  0.5993010000000 1.0
C      1  0.4341340000000  0.5333270000000  0.5126760000000 1.0
C      1  0.4865760000000  0.4657290000000  0.4495040000000 1.0
C      1  0.5529950000000  0.4479960000000  0.5089120000000 1.0
C      1  0.5766730000000  0.5030340000000  0.5204790000000 1.0
C      1  0.4452880000000  0.4844700000000  0.4394020000000 1.0
C      1  0.5647050000000  0.4527110000000  0.5557130000000 1.0
C      1  0.4575580000000  0.4616410000000  0.5057160000000 1.0
C      1  0.5038610000000  0.5878540000000  0.4486280000000 1.0
C      1  0.4842100000000  0.4936800000000  0.5192280000000 1.0
C      1  0.4527620000000  0.5170660000000  0.4854590000000 1.0
C      1  0.5240750000000  0.5642690000000  0.4537360000000 1.0
C      1  0.4257450000000  0.4380830000000  0.5088980000000 1.0
C      1  0.4884580000000  0.5247290000000  0.5059630000000 1.0
C      1  0.4801280000000  0.4370840000000  0.4967240000000 1.0
C      1  0.5199040000000  0.5133080000000  0.4649850000000 1.0
C      1  0.5055120000000  0.4453350000000  0.5178020000000 1.0
C      1  0.4925860000000  0.4100310000000  0.5385020000000 1.0
C      1  0.5270440000000  0.5413230000000  0.4330640000000 1.0
C      1  0.5176080000000  0.4068410000000  0.5157010000000 1.0
C      1  0.4705740000000  0.4871560000000  0.4087610000000 1.0
C      1  0.4773310000000  0.5592120000000  0.5869370000000 1.0
C      1  0.4802360000000  0.5313820000000  0.5896140000000 1.0
C      1  0.5359080000000  0.4726150000000  0.4952360000000 1.0
C      1  0.5812290000000  0.4293760000000  0.5124740000000 1.0
C      1  0.5892760000000  0.5727380000000  0.5129620000000 1.0
C      1  0.5470370000000  0.5280090000000  0.5850930000000 1.0
C      1  0.5643520000000  0.5863110000000  0.5059090000000 1.0
C      1  0.5517360000000  0.5957500000000  0.5286230000000 1.0
C      1  0.4534320000000  0.5107910000000  0.5856720000000 1.0
C      1  0.4882110000000  0.4659670000000  0.4807050000000 1.0
C      1  0.4754810000000  0.4972250000000  0.4484650000000 1.0
C      1  0.4849080000000  0.4048060000000  0.5063500000000 1.0
C      1  0.4226320000000  0.5700790000000  0.4830180000000 1.0
C      1  0.4542680000000  0.4922420000000  0.5353350000000 1.0
C      1  0.5031960000000  0.4487370000000  0.4159840000000 1.0
C      1  0.4896450000000  0.5160290000000  0.4730970000000 1.0
C      1  0.4405330000000  0.5726610000000  0.5119930000000 1.0
C      1  0.5012820000000  0.5417870000000  0.5489630000000 1.0
C      1  0.5004510000000  0.5735660000000  0.5730160000000 1.0
C      1  0.4731210000000  0.4580930000000  0.4109720000000 1.0
C      1  0.5486290000000  0.5454710000000  0.5275620000000 1.0
C      1  0.5308840000000  0.4763910000000  0.4343800000000 1.0
C      1  0.4320750000000  0.4835200000000  0.5110920000000 1.0
C      1  0.4801470000000  0.4620350000000  0.5311270000000 1.0
C      1  0.4815480000000  0.5806660000000  0.4310020000000 1.0
C      1  0.6021180000000  0.5159640000000  0.4745840000000 1.0
C      1  0.5062040000000  0.4845900000000  0.4949400000000 1.0
C      1  0.4710740000000  0.5945860000000  0.4861120000000 1.0
C      1  0.4045450000000  0.4639390000000  0.5150760000000 1.0
C      1  0.4278600000000  0.4460970000000  0.5419980000000 1.0
C      1  0.5520210000000  0.5563620000000  0.4955220000000 1.0
C      1  0.4752670000000  0.4335700000000  0.5491070000000 1.0
C      1  0.4643840000000  0.5485210000000  0.5093890000000 1.0
C      1  0.5393310000000  0.5253930000000  0.4858280000000 1.0
C      1  0.5637130000000  0.5108870000000  0.4731320000000 1.0
END
