TITL C-2848496-4490-506 0.000532230365562019 125000 -963.161595193186 0 0 180 (C1) n - 1
REM
REM in /home/bkarasulu/work/CARBON/AIRSS/Generating-Clusters/AIREBO/with-SteepDescent/Only-C1/SD-CG-opt/Try1-1.4A-POS3A/HFTN-CG
REM
REM
REM
REM
REM
REM ./C.cell (11c1c37f851c82e70ff6c80c92926a4b)
REM
REM compiler GCC version 9.2.1 20190827 (Red Hat 9.2.1-1)
REM options -cpp -mtune=generic -march=x86-64 -g -O0 -fpre-include=/usr/include/finclude/math-vector-fortran.h
REM seed -1491608267 1347335570 217571857 -21082700 -1007882486 1602767232 1176910146 1477761994 -538142867 -1716911899 -414906959 531964093 -265986618 1862931130 -1238759379 -467668009 216247066 691995244 585608288 -195512929 2089907261 -1785412042 310468839 -39384234 1790772384 -1558126718 -850140896 460070718 628710494 1711387342 -713928685 1646833177 -844703592
REM
CELL 1.54180   50.00000   50.00000   50.00000   90.00000   90.00000   90.00000
LATT -1
SFAC C  
C      1  0.5190690000000  0.4725450000000  0.5231770000000 1.0
C      1  0.5099410000000  0.4993020000000  0.3857600000000 1.0
C      1  0.4361660000000  0.4736230000000  0.5094700000000 1.0
C      1  0.5454200000000  0.5772820000000  0.4275100000000 1.0
C      1  0.4078710000000  0.5364930000000  0.4727090000000 1.0
C      1  0.4562220000000  0.5327330000000  0.5612130000000 1.0
C      1  0.5219240000000  0.5823370000000  0.4454440000000 1.0
C      1  0.4530430000000  0.5724550000000  0.5584190000000 1.0
C      1  0.5040550000000  0.5770180000000  0.4930360000000 1.0
C      1  0.5190130000000  0.5124640000000  0.5236080000000 1.0
C      1  0.5293290000000  0.6015490000000  0.4687050000000 1.0
C      1  0.4266920000000  0.4829760000000  0.4049800000000 1.0
C      1  0.5202440000000  0.4607580000000  0.4775220000000 1.0
C      1  0.5525130000000  0.5625950000000  0.5653510000000 1.0
C      1  0.4119610000000  0.4436480000000  0.5669210000000 1.0
C      1  0.4539690000000  0.5504010000000  0.5069140000000 1.0
C      1  0.5325390000000  0.4534740000000  0.5479460000000 1.0
C      1  0.4811970000000  0.4049150000000  0.5109250000000 1.0
C      1  0.5060920000000  0.4760850000000  0.4503330000000 1.0
C      1  0.4508480000000  0.5657390000000  0.5873940000000 1.0
C      1  0.5146780000000  0.4270150000000  0.4394320000000 1.0
C      1  0.4776110000000  0.5418940000000  0.4643290000000 1.0
C      1  0.4187810000000  0.5417630000000  0.5390370000000 1.0
C      1  0.5491400000000  0.3826280000000  0.4786810000000 1.0
C      1  0.5340380000000  0.4796550000000  0.4320570000000 1.0
C      1  0.4650670000000  0.5247290000000  0.3806590000000 1.0
C      1  0.5526730000000  0.4993620000000  0.4775030000000 1.0
C      1  0.5573690000000  0.4360330000000  0.5114070000000 1.0
C      1  0.5667220000000  0.5662860000000  0.4410390000000 1.0
C      1  0.4978840000000  0.4524860000000  0.4243540000000 1.0
C      1  0.5299190000000  0.4228050000000  0.5813990000000 1.0
C      1  0.4725150000000  0.4153620000000  0.4184950000000 1.0
C      1  0.6170000000000  0.4182040000000  0.4754350000000 1.0
C      1  0.5701160000000  0.4167770000000  0.5342290000000 1.0
C      1  0.4602120000000  0.4879150000000  0.4256910000000 1.0
C      1  0.4740260000000  0.5701160000000  0.4786590000000 1.0
C      1  0.5907630000000  0.5215280000000  0.5575810000000 1.0
C      1  0.4644110000000  0.5059850000000  0.4890720000000 1.0
C      1  0.5087280000000  0.5539980000000  0.4578920000000 1.0
C      1  0.5486150000000  0.5897730000000  0.4857030000000 1.0
C      1  0.5233190000000  0.4988340000000  0.5952730000000 1.0
C      1  0.4855880000000  0.4493870000000  0.4551830000000 1.0
C      1  0.5964010000000  0.4675470000000  0.5271080000000 1.0
C      1  0.5783830000000  0.4754530000000  0.4473950000000 1.0
C      1  0.4314340000000  0.5815340000000  0.5180310000000 1.0
C      1  0.4296300000000  0.5596150000000  0.4849490000000 1.0
C      1  0.5160660000000  0.5427370000000  0.4140820000000 1.0
C      1  0.5029530000000  0.5869070000000  0.5499010000000 1.0
C      1  0.5192060000000  0.5564960000000  0.5237180000000 1.0
C      1  0.4997150000000  0.4196200000000  0.5336350000000 1.0
C      1  0.4554620000000  0.5560150000000  0.4282500000000 1.0
C      1  0.4941490000000  0.5844510000000  0.4305160000000 1.0
C      1  0.3912390000000  0.5121430000000  0.5364640000000 1.0
C      1  0.4554010000000  0.3982210000000  0.5151150000000 1.0
C      1  0.4697350000000  0.4714660000000  0.4698110000000 1.0
C      1  0.4521780000000  0.4606020000000  0.4076270000000 1.0
C      1  0.5375800000000  0.4546250000000  0.5816590000000 1.0
C      1  0.5576550000000  0.4995700000000  0.5465340000000 1.0
C      1  0.5306780000000  0.5272720000000  0.4386520000000 1.0
C      1  0.4707250000000  0.4513650000000  0.5960720000000 1.0
C      1  0.4743680000000  0.5676740000000  0.6026420000000 1.0
C      1  0.4288990000000  0.5067780000000  0.5074450000000 1.0
C      1  0.4777750000000  0.5302240000000  0.4323860000000 1.0
C      1  0.5878430000000  0.4933610000000  0.5748830000000 1.0
C      1  0.5064860000000  0.5134760000000  0.4102060000000 1.0
C      1  0.4645210000000  0.5930650000000  0.4949630000000 1.0
C      1  0.4746470000000  0.4416920000000  0.5400400000000 1.0
C      1  0.5005830000000  0.5622340000000  0.5987710000000 1.0
C      1  0.5330400000000  0.4627580000000  0.4067770000000 1.0
C      1  0.5834440000000  0.3909980000000  0.5273270000000 1.0
C      1  0.4521490000000  0.4180180000000  0.4614940000000 1.0
C      1  0.4850800000000  0.5289110000000  0.4948580000000 1.0
C      1  0.6273450000000  0.5546250000000  0.5464170000000 1.0
C      1  0.4058580000000  0.4642110000000  0.5216970000000 1.0
C      1  0.4962330000000  0.4809070000000  0.5074730000000 1.0
C      1  0.5592690000000  0.4246460000000  0.4264370000000 1.0
C      1  0.5907810000000  0.4927040000000  0.5408930000000 1.0
C      1  0.4679220000000  0.4688980000000  0.5205130000000 1.0
C      1  0.4822320000000  0.3760450000000  0.4762130000000 1.0
C      1  0.4354320000000  0.5075610000000  0.4740760000000 1.0
C      1  0.5827600000000  0.4559280000000  0.5004730000000 1.0
C      1  0.5801020000000  0.4794330000000  0.4801360000000 1.0
C      1  0.5125300000000  0.5304300000000  0.5954920000000 1.0
C      1  0.5126980000000  0.3928880000000  0.5454450000000 1.0
C      1  0.4343380000000  0.5645500000000  0.4515680000000 1.0
C      1  0.5117040000000  0.5211240000000  0.4662200000000 1.0
C      1  0.4738940000000  0.4493490000000  0.4933360000000 1.0
C      1  0.4452690000000  0.5333370000000  0.4594800000000 1.0
C      1  0.4723610000000  0.4422990000000  0.4090400000000 1.0
C      1  0.4381740000000  0.4840130000000  0.5536740000000 1.0
C      1  0.5483040000000  0.5293750000000  0.5220050000000 1.0
C      1  0.4612760000000  0.4647910000000  0.5597800000000 1.0
C      1  0.4938210000000  0.4945420000000  0.4764100000000 1.0
C      1  0.4598440000000  0.4331580000000  0.5698060000000 1.0
C      1  0.4983940000000  0.6023700000000  0.4710890000000 1.0
C      1  0.4169360000000  0.4485240000000  0.4619200000000 1.0
C      1  0.4954850000000  0.4045810000000  0.4800680000000 1.0
C      1  0.4330110000000  0.5933730000000  0.4873350000000 1.0
C      1  0.5237540000000  0.4312550000000  0.5136850000000 1.0
C      1  0.5799530000000  0.4827800000000  0.4216090000000 1.0
C      1  0.4699090000000  0.5432470000000  0.4019730000000 1.0
C      1  0.4047900000000  0.5148430000000  0.4494450000000 1.0
C      1  0.5256980000000  0.4926350000000  0.5473560000000 1.0
C      1  0.4052040000000  0.4318600000000  0.5129150000000 1.0
C      1  0.4517780000000  0.4289920000000  0.4898640000000 1.0
C      1  0.5416830000000  0.5883590000000  0.5152570000000 1.0
C      1  0.4312470000000  0.4152830000000  0.5127810000000 1.0
C      1  0.4551870000000  0.4966630000000  0.3929550000000 1.0
C      1  0.6025900000000  0.4353700000000  0.4876380000000 1.0
C      1  0.5415480000000  0.3940860000000  0.5600350000000 1.0
C      1  0.4854580000000  0.5296790000000  0.5744330000000 1.0
C      1  0.4890170000000  0.5181630000000  0.5249830000000 1.0
C      1  0.5602220000000  0.5604160000000  0.4730380000000 1.0
C      1  0.5191950000000  0.5806060000000  0.5781980000000 1.0
C      1  0.4278620000000  0.5034720000000  0.5762960000000 1.0
C      1  0.5344810000000  0.4841220000000  0.3869240000000 1.0
C      1  0.4797330000000  0.5667310000000  0.5462720000000 1.0
C      1  0.5387160000000  0.5457500000000  0.6108660000000 1.0
C      1  0.4837620000000  0.4988350000000  0.3743300000000 1.0
C      1  0.4574710000000  0.4727200000000  0.6061610000000 1.0
C      1  0.5256800000000  0.3927100000000  0.4791470000000 1.0
C      1  0.5771210000000  0.4471860000000  0.5758740000000 1.0
C      1  0.5450810000000  0.4378560000000  0.4502430000000 1.0
C      1  0.4293340000000  0.4274650000000  0.4488160000000 1.0
C      1  0.4921220000000  0.5624860000000  0.4138410000000 1.0
C      1  0.5287840000000  0.5550100000000  0.4848450000000 1.0
C      1  0.4470150000000  0.5255090000000  0.5292880000000 1.0
C      1  0.4144550000000  0.5378690000000  0.5062440000000 1.0
C      1  0.5635700000000  0.4980820000000  0.3960170000000 1.0
C      1  0.4073920000000  0.5243240000000  0.5638130000000 1.0
C      1  0.4483540000000  0.4845040000000  0.4534290000000 1.0
C      1  0.4173510000000  0.4774500000000  0.4550320000000 1.0
C      1  0.4865670000000  0.5568770000000  0.5141540000000 1.0
C      1  0.5263750000000  0.3656730000000  0.5542260000000 1.0
C      1  0.5743370000000  0.5228270000000  0.4167010000000 1.0
C      1  0.5876440000000  0.5590370000000  0.4847660000000 1.0
C      1  0.6526470000000  0.5590340000000  0.5412020000000 1.0
C      1  0.5470960000000  0.5053120000000  0.4250510000000 1.0
C      1  0.4134360000000  0.4933490000000  0.4271830000000 1.0
C      1  0.4537790000000  0.4945620000000  0.5888970000000 1.0
C      1  0.5788010000000  0.4467000000000  0.5434270000000 1.0
C      1  0.4089640000000  0.5704490000000  0.4387630000000 1.0
C      1  0.4830760000000  0.6078160000000  0.5075590000000 1.0
C      1  0.5603590000000  0.5320630000000  0.5525920000000 1.0
C      1  0.5445980000000  0.4795180000000  0.5968590000000 1.0
C      1  0.5322240000000  0.5221580000000  0.4929300000000 1.0
C      1  0.4249930000000  0.4478910000000  0.4911090000000 1.0
C      1  0.5011710000000  0.5403520000000  0.5473410000000 1.0
C      1  0.5593530000000  0.4207420000000  0.5662820000000 1.0
C      1  0.5560300000000  0.5596690000000  0.5980920000000 1.0
C      1  0.5529490000000  0.5603600000000  0.5255230000000 1.0
C      1  0.5028970000000  0.4364680000000  0.4892950000000 1.0
C      1  0.4499930000000  0.5940680000000  0.4578740000000 1.0
C      1  0.5471910000000  0.4703850000000  0.4599410000000 1.0
C      1  0.4304980000000  0.5705870000000  0.5422660000000 1.0
C      1  0.3972100000000  0.4945590000000  0.5119120000000 1.0
C      1  0.4773430000000  0.5982690000000  0.4505520000000 1.0
C      1  0.4773740000000  0.4999750000000  0.5695800000000 1.0
C      1  0.4032810000000  0.4971930000000  0.4784700000000 1.0
C      1  0.5369240000000  0.5881100000000  0.5491380000000 1.0
C      1  0.5071550000000  0.4878080000000  0.5712030000000 1.0
C      1  0.4306430000000  0.4240680000000  0.5720480000000 1.0
C      1  0.4329630000000  0.5428880000000  0.5763690000000 1.0
C      1  0.4920510000000  0.4595760000000  0.5724460000000 1.0
C      1  0.4887720000000  0.4987490000000  0.4317970000000 1.0
C      1  0.5102300000000  0.5960920000000  0.5205140000000 1.0
C      1  0.5792910000000  0.5663900000000  0.5447390000000 1.0
C      1  0.4151460000000  0.4645080000000  0.5501110000000 1.0
C      1  0.6006960000000  0.5492230000000  0.5492950000000 1.0
C      1  0.5331860000000  0.4359270000000  0.4123340000000 1.0
C      1  0.4842120000000  0.4164880000000  0.4502780000000 1.0
C      1  0.5812470000000  0.5458730000000  0.4277140000000 1.0
C      1  0.5373820000000  0.5637370000000  0.4051090000000 1.0
C      1  0.5082650000000  0.4368770000000  0.5616560000000 1.0
C      1  0.5230320000000  0.5481410000000  0.5688560000000 1.0
C      1  0.5427610000000  0.4644630000000  0.5027500000000 1.0
C      1  0.5726590000000  0.4732120000000  0.5861020000000 1.0
C      1  0.5572370000000  0.4692330000000  0.5336480000000 1.0
C      1  0.4649580000000  0.4979370000000  0.5379860000000 1.0
C      1  0.5548030000000  0.5290700000000  0.4609980000000 1.0
END
