TITL C-2847953-8112-3 0.000423776306041596 125000 -838.448295717503 0 0 161 (C1) n - 1
REM
REM in /home/bkarasulu/work/CARBON/AIRSS/Generating-Clusters/AIREBO/with-SteepDescent/Only-C1/SD-CG-opt/Try1-1.4A-POS3A/HFTN-CG
REM
REM
REM
REM
REM
REM ./C.cell (11c1c37f851c82e70ff6c80c92926a4b)
REM
REM compiler GCC version 9.2.1 20190827 (Red Hat 9.2.1-1)
REM options -cpp -mtune=generic -march=x86-64 -g -O0 -fpre-include=/usr/include/finclude/math-vector-fortran.h
REM seed -773376681 -1038625408 -1165659411 -113967367 -2051860472 298991904 -1805434896 -1960861975 1898688286 -1474884025 -1180142642 476970878 1388986448 -44065569 -2092412497 1200567666 -2042179893 -1766129232 1921954773 -1189787972 1391773799 -262232479 1160016945 -1759054759 1043580667 1942866588 530291779 -1543834525 1120259043 -1350958815 -443549448 -1590193865 1179980107
REM
CELL 1.54180   50.00000   50.00000   50.00000   90.00000   90.00000   90.00000
LATT -1
SFAC C  
C      1  0.4601450000000  0.4397740000000  0.5840030000000 1.0
C      1  0.4651310000000  0.4258880000000  0.4473170000000 1.0
C      1  0.5736600000000  0.5080850000000  0.5643940000000 1.0
C      1  0.5375990000000  0.4587540000000  0.5304190000000 1.0
C      1  0.5730080000000  0.4798010000000  0.5574030000000 1.0
C      1  0.4898110000000  0.4612130000000  0.5355480000000 1.0
C      1  0.4574680000000  0.4967200000000  0.4278760000000 1.0
C      1  0.5692990000000  0.4939970000000  0.4109780000000 1.0
C      1  0.5272320000000  0.4343060000000  0.5925880000000 1.0
C      1  0.5348290000000  0.4758880000000  0.4837830000000 1.0
C      1  0.5501640000000  0.5217870000000  0.4741180000000 1.0
C      1  0.5828420000000  0.5231420000000  0.5405410000000 1.0
C      1  0.5455390000000  0.4679710000000  0.5590880000000 1.0
C      1  0.5609940000000  0.4195060000000  0.5019940000000 1.0
C      1  0.4129630000000  0.4204850000000  0.4747940000000 1.0
C      1  0.5463390000000  0.4399160000000  0.5735450000000 1.0
C      1  0.4945500000000  0.5489840000000  0.5929920000000 1.0
C      1  0.4045820000000  0.4874460000000  0.5078260000000 1.0
C      1  0.4991760000000  0.3940100000000  0.4962500000000 1.0
C      1  0.4365100000000  0.5823140000000  0.5358590000000 1.0
C      1  0.3988320000000  0.5472750000000  0.5433580000000 1.0
C      1  0.5301730000000  0.4013930000000  0.5349210000000 1.0
C      1  0.5069390000000  0.5709500000000  0.5216040000000 1.0
C      1  0.5665580000000  0.4714250000000  0.4585010000000 1.0
C      1  0.5172290000000  0.3887190000000  0.4714680000000 1.0
C      1  0.5741660000000  0.5035860000000  0.4624780000000 1.0
C      1  0.4480880000000  0.4760550000000  0.6027190000000 1.0
C      1  0.4743530000000  0.4720280000000  0.4014310000000 1.0
C      1  0.4636640000000  0.5393240000000  0.4961250000000 1.0
C      1  0.4618200000000  0.4044170000000  0.4635370000000 1.0
C      1  0.4314140000000  0.5714570000000  0.4759750000000 1.0
C      1  0.5235500000000  0.5968080000000  0.4657850000000 1.0
C      1  0.4414470000000  0.5549660000000  0.4544990000000 1.0
C      1  0.6016070000000  0.4602540000000  0.4436410000000 1.0
C      1  0.4884160000000  0.4489010000000  0.4077280000000 1.0
C      1  0.4474760000000  0.5271080000000  0.6097800000000 1.0
C      1  0.5316900000000  0.5607860000000  0.4337730000000 1.0
C      1  0.4665630000000  0.5676340000000  0.5147380000000 1.0
C      1  0.4651310000000  0.4445240000000  0.5447010000000 1.0
C      1  0.5317040000000  0.5339160000000  0.4520230000000 1.0
C      1  0.4137730000000  0.5579780000000  0.4932800000000 1.0
C      1  0.4458280000000  0.5010070000000  0.4583550000000 1.0
C      1  0.3996310000000  0.4956330000000  0.4757580000000 1.0
C      1  0.5475940000000  0.4789160000000  0.4006940000000 1.0
C      1  0.4155580000000  0.5160920000000  0.4548390000000 1.0
C      1  0.4054120000000  0.5304260000000  0.4839780000000 1.0
C      1  0.5570300000000  0.4745160000000  0.5070810000000 1.0
C      1  0.4829650000000  0.5158400000000  0.4588690000000 1.0
C      1  0.4365800000000  0.4583410000000  0.5015270000000 1.0
C      1  0.4233030000000  0.4467940000000  0.4724290000000 1.0
C      1  0.4357080000000  0.4582150000000  0.5691820000000 1.0
C      1  0.5983790000000  0.5246410000000  0.4870660000000 1.0
C      1  0.4932440000000  0.4843480000000  0.4476700000000 1.0
C      1  0.4220380000000  0.5573220000000  0.5240380000000 1.0
C      1  0.5173790000000  0.4323950000000  0.5377280000000 1.0
C      1  0.5920460000000  0.4554950000000  0.4746780000000 1.0
C      1  0.4570450000000  0.5007110000000  0.3943930000000 1.0
C      1  0.4372510000000  0.4919400000000  0.5733970000000 1.0
C      1  0.4559210000000  0.5322750000000  0.4671170000000 1.0
C      1  0.5472590000000  0.5547020000000  0.5749110000000 1.0
C      1  0.4349990000000  0.5260120000000  0.5295520000000 1.0
C      1  0.5012040000000  0.4498100000000  0.5054870000000 1.0
C      1  0.4584270000000  0.4883280000000  0.5368040000000 1.0
C      1  0.4671690000000  0.5177740000000  0.5221920000000 1.0
C      1  0.4917240000000  0.5503120000000  0.4890370000000 1.0
C      1  0.4891290000000  0.4940930000000  0.6063830000000 1.0
C      1  0.5148270000000  0.5032970000000  0.3691920000000 1.0
C      1  0.5822130000000  0.5706680000000  0.5002590000000 1.0
C      1  0.4705910000000  0.4103240000000  0.4921920000000 1.0
C      1  0.4710860000000  0.4709590000000  0.5796040000000 1.0
C      1  0.5174920000000  0.4779320000000  0.5120100000000 1.0
C      1  0.5747080000000  0.4490610000000  0.5004170000000 1.0
C      1  0.5716600000000  0.5294870000000  0.4417930000000 1.0
C      1  0.5139650000000  0.4598070000000  0.4364970000000 1.0
C      1  0.4712610000000  0.4751790000000  0.5107080000000 1.0
C      1  0.4010460000000  0.5274080000000  0.5584920000000 1.0
C      1  0.4868140000000  0.6207750000000  0.4820480000000 1.0
C      1  0.5248110000000  0.5045000000000  0.5319370000000 1.0
C      1  0.4232660000000  0.5127660000000  0.5029380000000 1.0
C      1  0.5202600000000  0.4907500000000  0.5606730000000 1.0
C      1  0.4641620000000  0.4723680000000  0.4588390000000 1.0
C      1  0.4408500000000  0.4901190000000  0.4901790000000 1.0
C      1  0.5640690000000  0.5897290000000  0.4851740000000 1.0
C      1  0.5735710000000  0.4339720000000  0.5306890000000 1.0
C      1  0.4323370000000  0.4287710000000  0.5283410000000 1.0
C      1  0.5196090000000  0.4413100000000  0.4085210000000 1.0
C      1  0.5268280000000  0.4162350000000  0.4173500000000 1.0
C      1  0.5751260000000  0.5538620000000  0.4553810000000 1.0
C      1  0.4212710000000  0.5041890000000  0.5517340000000 1.0
C      1  0.5385170000000  0.5119530000000  0.5017210000000 1.0
C      1  0.5665900000000  0.5296110000000  0.5103250000000 1.0
C      1  0.4739560000000  0.5966810000000  0.4722810000000 1.0
C      1  0.4995380000000  0.5650900000000  0.4235880000000 1.0
C      1  0.5524590000000  0.5689490000000  0.5475650000000 1.0
C      1  0.4729680000000  0.4206960000000  0.5602910000000 1.0
C      1  0.4091700000000  0.4801780000000  0.5343060000000 1.0
C      1  0.4870310000000  0.6083090000000  0.5132320000000 1.0
C      1  0.5222470000000  0.4923300000000  0.6134460000000 1.0
C      1  0.4847440000000  0.5461880000000  0.5292110000000 1.0
C      1  0.4944040000000  0.5712220000000  0.4667780000000 1.0
C      1  0.4372970000000  0.4616850000000  0.5353780000000 1.0
C      1  0.5369980000000  0.4546760000000  0.4598240000000 1.0
C      1  0.4938570000000  0.5324510000000  0.4312550000000 1.0
C      1  0.5083310000000  0.4694360000000  0.5925020000000 1.0
C      1  0.5299120000000  0.5856620000000  0.5407610000000 1.0
C      1  0.5912580000000  0.5516600000000  0.4798160000000 1.0
C      1  0.5035450000000  0.5235560000000  0.6011990000000 1.0
C      1  0.5439120000000  0.5630580000000  0.4920680000000 1.0
C      1  0.5533110000000  0.5248780000000  0.5783590000000 1.0
C      1  0.4967690000000  0.5049090000000  0.5114400000000 1.0
C      1  0.5156040000000  0.5609690000000  0.5710750000000 1.0
C      1  0.4733880000000  0.4996750000000  0.4872140000000 1.0
C      1  0.4938280000000  0.4393580000000  0.5886200000000 1.0
C      1  0.5477900000000  0.5736690000000  0.4599960000000 1.0
C      1  0.4538720000000  0.6044400000000  0.5197800000000 1.0
C      1  0.5062810000000  0.5879330000000  0.4939070000000 1.0
C      1  0.5054930000000  0.5165510000000  0.3947160000000 1.0
C      1  0.5130360000000  0.4938030000000  0.4736550000000 1.0
C      1  0.5247690000000  0.4392540000000  0.4876130000000 1.0
C      1  0.5088610000000  0.4527620000000  0.5624210000000 1.0
C      1  0.5197270000000  0.4127090000000  0.4485880000000 1.0
C      1  0.5285240000000  0.4095020000000  0.5036440000000 1.0
C      1  0.4980550000000  0.5365130000000  0.5552580000000 1.0
C      1  0.5238020000000  0.5443670000000  0.5344780000000 1.0
C      1  0.5763640000000  0.5003120000000  0.4960950000000 1.0
C      1  0.4682980000000  0.5684760000000  0.4105920000000 1.0
C      1  0.5133220000000  0.6087050000000  0.5328750000000 1.0
C      1  0.4823230000000  0.5701290000000  0.5693320000000 1.0
C      1  0.5837310000000  0.4796400000000  0.4303140000000 1.0
C      1  0.4664460000000  0.5286280000000  0.4114290000000 1.0
C      1  0.4480410000000  0.4479340000000  0.4526710000000 1.0
C      1  0.4865550000000  0.4876780000000  0.5566520000000 1.0
C      1  0.4939390000000  0.4088050000000  0.5449090000000 1.0
C      1  0.5069580000000  0.5492300000000  0.3944340000000 1.0
C      1  0.5635660000000  0.4230980000000  0.5591030000000 1.0
C      1  0.5489730000000  0.5249490000000  0.5380610000000 1.0
C      1  0.5104730000000  0.5259120000000  0.4745660000000 1.0
C      1  0.4786910000000  0.3966580000000  0.5215810000000 1.0
C      1  0.4893560000000  0.4962550000000  0.4160600000000 1.0
C      1  0.5268900000000  0.4837670000000  0.4179240000000 1.0
C      1  0.4165860000000  0.5335430000000  0.4318760000000 1.0
C      1  0.5247930000000  0.5420400000000  0.5008670000000 1.0
C      1  0.4437420000000  0.5502710000000  0.4226020000000 1.0
C      1  0.5570180000000  0.5193010000000  0.4197660000000 1.0
C      1  0.6121160000000  0.4658760000000  0.5254380000000 1.0
C      1  0.5886180000000  0.4626340000000  0.5408100000000 1.0
C      1  0.6133610000000  0.4592180000000  0.4988740000000 1.0
C      1  0.5232830000000  0.5171100000000  0.4236900000000 1.0
C      1  0.4814170000000  0.4611720000000  0.4817140000000 1.0
C      1  0.5688400000000  0.5602710000000  0.5248770000000 1.0
C      1  0.4624150000000  0.4390420000000  0.4963840000000 1.0
C      1  0.4938210000000  0.4324140000000  0.4375720000000 1.0
C      1  0.4472470000000  0.4090530000000  0.5245870000000 1.0
C      1  0.5288700000000  0.5083150000000  0.5850920000000 1.0
C      1  0.4600970000000  0.5066220000000  0.5938750000000 1.0
C      1  0.5438800000000  0.4097570000000  0.4732240000000 1.0
C      1  0.4527380000000  0.5864150000000  0.4909690000000 1.0
C      1  0.4006600000000  0.4671800000000  0.4644710000000 1.0
C      1  0.4653710000000  0.5754580000000  0.5479320000000 1.0
C      1  0.4808590000000  0.5168690000000  0.5689680000000 1.0
C      1  0.4994190000000  0.5936840000000  0.4419910000000 1.0
END
