TITL C-2847952-8118-271 -0.00183964662750094 125000 -861.668818483075 0 0 159 (C1) n - 1
REM
REM in /home/bkarasulu/work/CARBON/AIRSS/Generating-Clusters/AIREBO/with-SteepDescent/Only-C1/SD-CG-opt/Try1-1.4A-POS3A/HFTN-CG
REM
REM
REM
REM
REM
REM ./C.cell (11c1c37f851c82e70ff6c80c92926a4b)
REM
REM compiler GCC version 9.2.1 20190827 (Red Hat 9.2.1-1)
REM options -cpp -mtune=generic -march=x86-64 -g -O0 -fpre-include=/usr/include/finclude/math-vector-fortran.h
REM seed 1140925825 2022000692 853092702 -484722873 1425778932 1926024147 1000379206 -326400027 166289604 903365304 -1464784745 1066954162 -232963357 1262990825 -1714735857 978167940 860599371 -1884582015 1474165044 1165366986 699269416 1281325985 1198950583 924440712 1749393736 -460511826 -1568025430 -195966459 1256787471 -1370096943 2068086939 1333816008 1214417205
REM
CELL 1.54180   50.00000   50.00000   50.00000   90.00000   90.00000   90.00000
LATT -1
SFAC C  
C      1  0.4788560000000  0.4348620000000  0.4989340000000 1.0
C      1  0.4402500000000  0.5015710000000  0.4410460000000 1.0
C      1  0.5728880000000  0.5545770000000  0.5579090000000 1.0
C      1  0.4572140000000  0.5882320000000  0.4967690000000 1.0
C      1  0.4858540000000  0.4803720000000  0.6118300000000 1.0
C      1  0.4941810000000  0.4240260000000  0.5516910000000 1.0
C      1  0.4655410000000  0.4861570000000  0.4509400000000 1.0
C      1  0.4202680000000  0.5359010000000  0.4311890000000 1.0
C      1  0.5579940000000  0.5369110000000  0.5736160000000 1.0
C      1  0.4586740000000  0.5632140000000  0.4532710000000 1.0
C      1  0.4616660000000  0.5116040000000  0.5399840000000 1.0
C      1  0.5383620000000  0.4678530000000  0.5545960000000 1.0
C      1  0.3911200000000  0.4967720000000  0.5065260000000 1.0
C      1  0.4949290000000  0.4633610000000  0.4649370000000 1.0
C      1  0.4192710000000  0.5158970000000  0.5081540000000 1.0
C      1  0.5587770000000  0.4968790000000  0.5104310000000 1.0
C      1  0.4156210000000  0.4877700000000  0.4562340000000 1.0
C      1  0.4247590000000  0.4321110000000  0.5291850000000 1.0
C      1  0.4752230000000  0.4357800000000  0.4676480000000 1.0
C      1  0.5760550000000  0.4831310000000  0.5778450000000 1.0
C      1  0.5466800000000  0.5324350000000  0.5245670000000 1.0
C      1  0.4895150000000  0.5444430000000  0.5943010000000 1.0
C      1  0.5821900000000  0.4374520000000  0.4876200000000 1.0
C      1  0.5011470000000  0.5972820000000  0.5290770000000 1.0
C      1  0.4685600000000  0.4323990000000  0.4248880000000 1.0
C      1  0.5285010000000  0.4552280000000  0.5047340000000 1.0
C      1  0.4724230000000  0.5926940000000  0.4477050000000 1.0
C      1  0.4839250000000  0.4535370000000  0.5967780000000 1.0
C      1  0.5378190000000  0.5120970000000  0.4912110000000 1.0
C      1  0.5547710000000  0.4878420000000  0.4181790000000 1.0
C      1  0.5568620000000  0.5547860000000  0.4688350000000 1.0
C      1  0.5025760000000  0.4592250000000  0.3944610000000 1.0
C      1  0.6053860000000  0.4764500000000  0.5270650000000 1.0
C      1  0.5537490000000  0.5158370000000  0.4613520000000 1.0
C      1  0.5257200000000  0.5805020000000  0.4459670000000 1.0
C      1  0.5018690000000  0.5384560000000  0.4230190000000 1.0
C      1  0.4071530000000  0.4416590000000  0.4912780000000 1.0
C      1  0.4078870000000  0.5546330000000  0.4985010000000 1.0
C      1  0.5469580000000  0.4859880000000  0.5820640000000 1.0
C      1  0.4732180000000  0.5488730000000  0.5647900000000 1.0
C      1  0.4319850000000  0.4654870000000  0.5490950000000 1.0
C      1  0.5001640000000  0.5938290000000  0.4605300000000 1.0
C      1  0.5717580000000  0.4292130000000  0.5189320000000 1.0
C      1  0.5753780000000  0.5302960000000  0.4249770000000 1.0
C      1  0.4746890000000  0.5200080000000  0.4961870000000 1.0
C      1  0.5268020000000  0.4358590000000  0.5553430000000 1.0
C      1  0.4209040000000  0.5116130000000  0.5762670000000 1.0
C      1  0.5840980000000  0.5405050000000  0.4538550000000 1.0
C      1  0.4884790000000  0.5275550000000  0.3969270000000 1.0
C      1  0.4539240000000  0.5226780000000  0.4621590000000 1.0
C      1  0.5429610000000  0.4414740000000  0.4483830000000 1.0
C      1  0.4525070000000  0.4104880000000  0.4682660000000 1.0
C      1  0.5013750000000  0.3895440000000  0.4835140000000 1.0
C      1  0.4614760000000  0.4915420000000  0.5208560000000 1.0
C      1  0.5346890000000  0.4360640000000  0.5884160000000 1.0
C      1  0.4170430000000  0.4856390000000  0.5588740000000 1.0
C      1  0.5839530000000  0.4728420000000  0.5480600000000 1.0
C      1  0.5626600000000  0.5820160000000  0.4847380000000 1.0
C      1  0.5147330000000  0.5151010000000  0.5604360000000 1.0
C      1  0.5192340000000  0.4933000000000  0.4356790000000 1.0
C      1  0.5227680000000  0.6115160000000  0.4739120000000 1.0
C      1  0.4514420000000  0.4525790000000  0.5628420000000 1.0
C      1  0.5656770000000  0.4732170000000  0.4934990000000 1.0
C      1  0.3952800000000  0.5355020000000  0.4759840000000 1.0
C      1  0.4348590000000  0.5175340000000  0.4067400000000 1.0
C      1  0.5476380000000  0.5409590000000  0.4391710000000 1.0
C      1  0.4393090000000  0.4493580000000  0.4284850000000 1.0
C      1  0.5497080000000  0.4455790000000  0.4816500000000 1.0
C      1  0.4915140000000  0.4212270000000  0.4421800000000 1.0
C      1  0.5745340000000  0.5266830000000  0.5059330000000 1.0
C      1  0.4935110000000  0.5280490000000  0.5222660000000 1.0
C      1  0.5324020000000  0.6068710000000  0.5194740000000 1.0
C      1  0.4724260000000  0.5306050000000  0.4347540000000 1.0
C      1  0.5232100000000  0.4657270000000  0.5915470000000 1.0
C      1  0.4848600000000  0.5752480000000  0.4822020000000 1.0
C      1  0.5624700000000  0.4319940000000  0.5730280000000 1.0
C      1  0.4467620000000  0.5006060000000  0.4955500000000 1.0
C      1  0.4862480000000  0.6025480000000  0.5018410000000 1.0
C      1  0.4155630000000  0.4638020000000  0.4320280000000 1.0
C      1  0.4948820000000  0.4651330000000  0.5236960000000 1.0
C      1  0.5719610000000  0.5077930000000  0.4081090000000 1.0
C      1  0.4689210000000  0.5498520000000  0.5309980000000 1.0
C      1  0.5902650000000  0.5516180000000  0.5328180000000 1.0
C      1  0.5202490000000  0.5442230000000  0.5872740000000 1.0
C      1  0.5510250000000  0.5913100000000  0.4541700000000 1.0
C      1  0.4557960000000  0.4578120000000  0.4528530000000 1.0
C      1  0.5050510000000  0.5198240000000  0.4704070000000 1.0
C      1  0.5053850000000  0.4861260000000  0.4054420000000 1.0
C      1  0.4739060000000  0.4625040000000  0.4124540000000 1.0
C      1  0.4230930000000  0.5612030000000  0.5237270000000 1.0
C      1  0.5277030000000  0.5585380000000  0.4200860000000 1.0
C      1  0.4980300000000  0.4704610000000  0.5708650000000 1.0
C      1  0.5444540000000  0.5163850000000  0.5533760000000 1.0
C      1  0.4729270000000  0.4096730000000  0.5292740000000 1.0
C      1  0.4542150000000  0.4473640000000  0.5897210000000 1.0
C      1  0.5191130000000  0.4178710000000  0.4475560000000 1.0
C      1  0.4869320000000  0.5126150000000  0.5889750000000 1.0
C      1  0.4791240000000  0.5433670000000  0.4718520000000 1.0
C      1  0.5329350000000  0.4633710000000  0.4271560000000 1.0
C      1  0.4409930000000  0.5171820000000  0.5953530000000 1.0
C      1  0.6164010000000  0.5013740000000  0.5271340000000 1.0
C      1  0.4622190000000  0.4995010000000  0.6037370000000 1.0
C      1  0.5389080000000  0.5163420000000  0.5928260000000 1.0
C      1  0.4553460000000  0.5416790000000  0.5915280000000 1.0
C      1  0.5004920000000  0.5765330000000  0.4118910000000 1.0
C      1  0.5118390000000  0.4862270000000  0.5438500000000 1.0
C      1  0.5767240000000  0.4375280000000  0.4537280000000 1.0
C      1  0.4209480000000  0.5123980000000  0.5419620000000 1.0
C      1  0.4329680000000  0.4622400000000  0.5166610000000 1.0
C      1  0.5972010000000  0.4903030000000  0.4761440000000 1.0
C      1  0.4297620000000  0.5539280000000  0.4565960000000 1.0
C      1  0.5402410000000  0.6033980000000  0.4929240000000 1.0
C      1  0.4794660000000  0.4528120000000  0.5513870000000 1.0
C      1  0.4339190000000  0.5368760000000  0.4857230000000 1.0
C      1  0.4273820000000  0.4756660000000  0.4859030000000 1.0
C      1  0.4815600000000  0.5095080000000  0.5585100000000 1.0
C      1  0.4397470000000  0.5843190000000  0.5242940000000 1.0
C      1  0.5292530000000  0.5823700000000  0.5399340000000 1.0
C      1  0.4375500000000  0.4465710000000  0.4756260000000 1.0
C      1  0.5033510000000  0.5551100000000  0.4510810000000 1.0
C      1  0.5022710000000  0.4315770000000  0.5838730000000 1.0
C      1  0.5975870000000  0.4654190000000  0.4993270000000 1.0
C      1  0.5264340000000  0.5453610000000  0.4724520000000 1.0
C      1  0.5214140000000  0.5099040000000  0.5213640000000 1.0
C      1  0.5293660000000  0.4142920000000  0.5140790000000 1.0
C      1  0.5458600000000  0.4172090000000  0.5374330000000 1.0
C      1  0.5129690000000  0.4971470000000  0.5996880000000 1.0
C      1  0.4316060000000  0.4179080000000  0.4927080000000 1.0
C      1  0.4453280000000  0.4122230000000  0.5232990000000 1.0
C      1  0.5066090000000  0.4343280000000  0.5151450000000 1.0
C      1  0.4718820000000  0.5836230000000  0.5336170000000 1.0
C      1  0.5233620000000  0.4916910000000  0.4681720000000 1.0
C      1  0.5837920000000  0.5177600000000  0.4765960000000 1.0
C      1  0.4999160000000  0.4591780000000  0.4341040000000 1.0
C      1  0.5757330000000  0.4690720000000  0.4624040000000 1.0
C      1  0.4849670000000  0.4931900000000  0.4779460000000 1.0
C      1  0.5742820000000  0.5611610000000  0.5053140000000 1.0
C      1  0.4506910000000  0.5452510000000  0.4184510000000 1.0
C      1  0.6019120000000  0.5247570000000  0.5260070000000 1.0
C      1  0.5244610000000  0.5632290000000  0.5633910000000 1.0
C      1  0.5505800000000  0.4549620000000  0.5256010000000 1.0
C      1  0.4557890000000  0.4913700000000  0.4125360000000 1.0
C      1  0.4389200000000  0.5366140000000  0.5361250000000 1.0
C      1  0.5732010000000  0.4435880000000  0.5494910000000 1.0
C      1  0.5407390000000  0.4137750000000  0.4888130000000 1.0
C      1  0.5570580000000  0.4878690000000  0.4474690000000 1.0
C      1  0.4643260000000  0.4600020000000  0.5120380000000 1.0
C      1  0.4687530000000  0.5723730000000  0.4217160000000 1.0
C      1  0.5519810000000  0.5623410000000  0.5345410000000 1.0
C      1  0.5023110000000  0.5428540000000  0.5515950000000 1.0
C      1  0.5098640000000  0.4804440000000  0.4972850000000 1.0
C      1  0.5581470000000  0.4914240000000  0.5401160000000 1.0
C      1  0.4864830000000  0.4020290000000  0.5034740000000 1.0
C      1  0.3980280000000  0.4708820000000  0.4993470000000 1.0
C      1  0.4893020000000  0.5035170000000  0.4377850000000 1.0
C      1  0.5235560000000  0.4017270000000  0.4703830000000 1.0
C      1  0.4831380000000  0.5013340000000  0.3984160000000 1.0
C      1  0.4557440000000  0.5558790000000  0.5013520000000 1.0
C      1  0.4060010000000  0.5203670000000  0.4552390000000 1.0
END
