TITL C-2847944-5688-242 0.00149345538256124 125000 -292.734662946841 0 0 54 (C1) n - 1
REM
REM in /home/bkarasulu/work/CARBON/AIRSS/Generating-Clusters/AIREBO/with-SteepDescent/Only-C1/SD-CG-opt/Try1-1.4A-POS3A/HFTN-CG
REM
REM
REM
REM
REM
REM ./C.cell (11c1c37f851c82e70ff6c80c92926a4b)
REM
REM compiler GCC version 9.2.1 20190827 (Red Hat 9.2.1-1)
REM options -cpp -mtune=generic -march=x86-64 -g -O0 -fpre-include=/usr/include/finclude/math-vector-fortran.h
REM seed -5986706 240225659 1840614464 306060527 -1503890156 -742908436 120034979 2019223113 -438279905 319509330 1294411634 2021354522 2042185212 -902891238 -603628525 -1712431013 -174966939 -1481112686 -1956259420 2124699210 1453416026 1348014696 912695290 -1596128259 -1961495055 198162089 309052027 1495967426 -1730427945 -480372835 1967262037 -1168751021 -693446936
REM
CELL 1.54180   50.00000   50.00000   50.00000   90.00000   90.00000   90.00000
LATT -1
SFAC C  
C      1  0.5254420000000  0.4985210000000  0.4638370000000 1.0
C      1  0.5240510000000  0.4332630000000  0.5099020000000 1.0
C      1  0.4844960000000  0.4881210000000  0.5378330000000 1.0
C      1  0.4658940000000  0.5221080000000  0.5253730000000 1.0
C      1  0.5086100000000  0.5041950000000  0.5493990000000 1.0
C      1  0.5589670000000  0.4786340000000  0.4481440000000 1.0
C      1  0.5098210000000  0.4798930000000  0.4295140000000 1.0
C      1  0.4316130000000  0.4827480000000  0.4852510000000 1.0
C      1  0.4468410000000  0.5095990000000  0.4930160000000 1.0
C      1  0.4848290000000  0.4525830000000  0.4814230000000 1.0
C      1  0.4598040000000  0.5084880000000  0.4427630000000 1.0
C      1  0.4947320000000  0.4609030000000  0.5666150000000 1.0
C      1  0.4708970000000  0.4651920000000  0.4619340000000 1.0
C      1  0.4573050000000  0.5399960000000  0.4889700000000 1.0
C      1  0.5428140000000  0.4946310000000  0.5035200000000 1.0
C      1  0.5108440000000  0.5207150000000  0.4425500000000 1.0
C      1  0.4613730000000  0.4245410000000  0.5009530000000 1.0
C      1  0.5513780000000  0.5227280000000  0.5443620000000 1.0
C      1  0.5313900000000  0.5606240000000  0.5195880000000 1.0
C      1  0.4949090000000  0.5521750000000  0.5480530000000 1.0
C      1  0.4855100000000  0.5681870000000  0.5254180000000 1.0
C      1  0.5004260000000  0.5586990000000  0.4820170000000 1.0
C      1  0.4766770000000  0.5473740000000  0.4694850000000 1.0
C      1  0.4912660000000  0.4713190000000  0.5090560000000 1.0
C      1  0.4790700000000  0.5019690000000  0.5007550000000 1.0
C      1  0.5343690000000  0.4652610000000  0.5383560000000 1.0
C      1  0.5170970000000  0.4766840000000  0.5577460000000 1.0
C      1  0.4491790000000  0.4854130000000  0.4612430000000 1.0
C      1  0.5625820000000  0.5137910000000  0.5206820000000 1.0
C      1  0.5297940000000  0.4655730000000  0.4721150000000 1.0
C      1  0.4480710000000  0.4578710000000  0.5308220000000 1.0
C      1  0.5069270000000  0.5711910000000  0.5066530000000 1.0
C      1  0.4629760000000  0.5532790000000  0.5150690000000 1.0
C      1  0.5579330000000  0.4979070000000  0.4738370000000 1.0
C      1  0.5588110000000  0.5599290000000  0.5122590000000 1.0
C      1  0.4733580000000  0.5356130000000  0.5543140000000 1.0
C      1  0.4871870000000  0.4896060000000  0.4498140000000 1.0
C      1  0.5172810000000  0.5343400000000  0.4794450000000 1.0
C      1  0.5228270000000  0.5193090000000  0.5068380000000 1.0
C      1  0.5088420000000  0.4416940000000  0.4739240000000 1.0
C      1  0.5203120000000  0.5338870000000  0.5374590000000 1.0
C      1  0.4294750000000  0.4638390000000  0.5050150000000 1.0
C      1  0.4764770000000  0.4426700000000  0.5199290000000 1.0
C      1  0.4822050000000  0.5292130000000  0.4474830000000 1.0
C      1  0.5248580000000  0.4668510000000  0.5057460000000 1.0
C      1  0.4382640000000  0.5059440000000  0.5257210000000 1.0
C      1  0.5438190000000  0.5410330000000  0.4648800000000 1.0
C      1  0.4732020000000  0.4524800000000  0.5530970000000 1.0
C      1  0.4561360000000  0.4863610000000  0.5404360000000 1.0
C      1  0.4970260000000  0.5071110000000  0.4772660000000 1.0
C      1  0.5652200000000  0.5277550000000  0.4761360000000 1.0
C      1  0.5332110000000  0.4686420000000  0.4388390000000 1.0
C      1  0.5034910000000  0.4244520000000  0.5220070000000 1.0
C      1  0.5701140000000  0.5350900000000  0.5031390000000 1.0
END
