TITL C-2848503-6230-271 -0.00160410382566946 125000 -263.639291973984 0 0 54 (C1) n - 1
REM
REM in /home/bkarasulu/work/CARBON/AIRSS/Generating-Clusters/AIREBO/with-SteepDescent/Only-C1/SD-CG-opt/Try1-1.4A-POS3A/HFTN-CG
REM
REM
REM
REM
REM
REM ./C.cell (11c1c37f851c82e70ff6c80c92926a4b)
REM
REM compiler GCC version 9.2.1 20190827 (Red Hat 9.2.1-1)
REM options -cpp -mtune=generic -march=x86-64 -g -O0 -fpre-include=/usr/include/finclude/math-vector-fortran.h
REM seed -1791840872 462019263 54173524 -502862537 303294173 -599109736 -545246418 -1704609583 -353776080 568673457 -1841275948 -313649971 1737475599 1767015005 -262957833 1300764411 -599745266 1981438111 -1873890179 -1839881252 668556601 -512224324 -1325495874 -1695117801 -2097874187 -1730588128 1888851484 -1968453638 587979365 -1350323819 -300638410 383832869 -181309900
REM
CELL 1.54180   50.00000   50.00000   50.00000   90.00000   90.00000   90.00000
LATT -1
SFAC C  
C      1  0.4670050000000  0.4751930000000  0.4550820000000 1.0
C      1  0.5580940000000  0.5145130000000  0.4873830000000 1.0
C      1  0.5284940000000  0.5484560000000  0.4904080000000 1.0
C      1  0.5204910000000  0.5266890000000  0.5153930000000 1.0
C      1  0.5185180000000  0.4756150000000  0.4418160000000 1.0
C      1  0.4681940000000  0.5208660000000  0.4477800000000 1.0
C      1  0.5386020000000  0.4639290000000  0.5215440000000 1.0
C      1  0.5098180000000  0.5013790000000  0.5666960000000 1.0
C      1  0.4314910000000  0.4798100000000  0.4940560000000 1.0
C      1  0.4853100000000  0.5520270000000  0.5037240000000 1.0
C      1  0.5208110000000  0.5050770000000  0.4446210000000 1.0
C      1  0.4532300000000  0.4545640000000  0.5013320000000 1.0
C      1  0.5320910000000  0.4837840000000  0.5484010000000 1.0
C      1  0.5409490000000  0.5608010000000  0.5186190000000 1.0
C      1  0.4806920000000  0.5523830000000  0.4709520000000 1.0
C      1  0.5134530000000  0.4413420000000  0.5265740000000 1.0
C      1  0.4775750000000  0.4655130000000  0.4843700000000 1.0
C      1  0.4375360000000  0.5025160000000  0.4794430000000 1.0
C      1  0.5600280000000  0.5107420000000  0.5198890000000 1.0
C      1  0.4674530000000  0.5261030000000  0.5166230000000 1.0
C      1  0.5024760000000  0.4724660000000  0.5361000000000 1.0
C      1  0.5099120000000  0.5667530000000  0.4759850000000 1.0
C      1  0.4522330000000  0.4984910000000  0.4553310000000 1.0
C      1  0.4729540000000  0.5423860000000  0.5601470000000 1.0
C      1  0.4494120000000  0.5487820000000  0.4758890000000 1.0
C      1  0.5244870000000  0.5269390000000  0.4696620000000 1.0
C      1  0.5638170000000  0.5414410000000  0.5073400000000 1.0
C      1  0.4942680000000  0.5216240000000  0.4665560000000 1.0
C      1  0.5360140000000  0.4615610000000  0.4632770000000 1.0
C      1  0.4640760000000  0.4968400000000  0.5348750000000 1.0
C      1  0.4812350000000  0.5093210000000  0.5594790000000 1.0
C      1  0.5123460000000  0.4621580000000  0.4111620000000 1.0
C      1  0.4697170000000  0.4633320000000  0.5364810000000 1.0
C      1  0.5071270000000  0.5646270000000  0.5200120000000 1.0
C      1  0.5012370000000  0.5599900000000  0.5526070000000 1.0
C      1  0.4914320000000  0.4447590000000  0.4611290000000 1.0
C      1  0.5308800000000  0.5170570000000  0.5463010000000 1.0
C      1  0.4872720000000  0.4627950000000  0.5656030000000 1.0
C      1  0.4501250000000  0.5457560000000  0.5390370000000 1.0
C      1  0.5313970000000  0.4951670000000  0.5102110000000 1.0
C      1  0.5012710000000  0.4810320000000  0.5032060000000 1.0
C      1  0.4879190000000  0.4626200000000  0.4346840000000 1.0
C      1  0.5514030000000  0.5122170000000  0.4551840000000 1.0
C      1  0.4806990000000  0.4394170000000  0.5144700000000 1.0
C      1  0.5312460000000  0.5485820000000  0.5469600000000 1.0
C      1  0.5131700000000  0.4504890000000  0.4941620000000 1.0
C      1  0.4397170000000  0.4746780000000  0.5251840000000 1.0
C      1  0.4945650000000  0.5306960000000  0.5366310000000 1.0
C      1  0.5516020000000  0.4612930000000  0.4934960000000 1.0
C      1  0.5598550000000  0.4845950000000  0.4716660000000 1.0
C      1  0.4934750000000  0.4236680000000  0.4871790000000 1.0
C      1  0.4438470000000  0.5269860000000  0.4921680000000 1.0
C      1  0.5218180000000  0.4311600000000  0.4683240000000 1.0
C      1  0.4871610000000  0.5090190000000  0.4947950000000 1.0
END
