TITL C-2848504-8560-629 -0.000156297585843348 125000 -201.66274803252 0 0 37 (C1) n - 1
REM
REM in /home/bkarasulu/work/CARBON/AIRSS/Generating-Clusters/AIREBO/with-SteepDescent/Only-C1/SD-CG-opt/Try1-1.4A-POS3A/HFTN-CG
REM
REM
REM
REM
REM
REM ./C.cell (11c1c37f851c82e70ff6c80c92926a4b)
REM
REM compiler GCC version 9.2.1 20190827 (Red Hat 9.2.1-1)
REM options -cpp -mtune=generic -march=x86-64 -g -O0 -fpre-include=/usr/include/finclude/math-vector-fortran.h
REM seed -1435550114 1993477890 143963839 -2043211443 -2002024110 1606642822 641804874 1825038625 475457037 300809034 1631261037 1004674148 -268851050 2040116074 -152805304 1636821808 -101773745 -1581408752 -577557423 -248762199 -251008130 1509514328 1812231878 -1962830105 -374020425 -2102779675 177219589 1693610104 1663191497 -692823289 1586424561 461348031 -1224842190
REM
CELL 1.54180   50.00000   50.00000   50.00000   90.00000   90.00000   90.00000
LATT -1
SFAC C  
C      1  0.4535050000000  0.5103190000000  0.4782990000000 1.0
C      1  0.5014150000000  0.4382830000000  0.4831790000000 1.0
C      1  0.5069720000000  0.5038710000000  0.4664490000000 1.0
C      1  0.5003840000000  0.5963470000000  0.5309450000000 1.0
C      1  0.4716570000000  0.4624500000000  0.3827210000000 1.0
C      1  0.4445230000000  0.4863430000000  0.4875230000000 1.0
C      1  0.4684110000000  0.5209640000000  0.5525230000000 1.0
C      1  0.4603750000000  0.5335730000000  0.5013240000000 1.0
C      1  0.5317240000000  0.4849470000000  0.5164080000000 1.0
C      1  0.4727400000000  0.5457710000000  0.5296760000000 1.0
C      1  0.5433080000000  0.4377480000000  0.4999470000000 1.0
C      1  0.4921430000000  0.5654420000000  0.5337780000000 1.0
C      1  0.4448120000000  0.4942670000000  0.5352330000000 1.0
C      1  0.5297070000000  0.4391470000000  0.4738190000000 1.0
C      1  0.4992110000000  0.4506260000000  0.5097620000000 1.0
C      1  0.5270300000000  0.4541930000000  0.5173210000000 1.0
C      1  0.5290140000000  0.4945810000000  0.5458070000000 1.0
C      1  0.5131530000000  0.4789500000000  0.4480120000000 1.0
C      1  0.5004080000000  0.4736410000000  0.4255450000000 1.0
C      1  0.5387410000000  0.4628570000000  0.4582130000000 1.0
C      1  0.5480270000000  0.5674360000000  0.5389270000000 1.0
C      1  0.5499050000000  0.4945690000000  0.4490090000000 1.0
C      1  0.4847840000000  0.4767650000000  0.5154540000000 1.0
C      1  0.5311270000000  0.5145580000000  0.4503150000000 1.0
C      1  0.5230540000000  0.5734710000000  0.5341890000000 1.0
C      1  0.5302140000000  0.5382560000000  0.4368890000000 1.0
C      1  0.4442970000000  0.5267430000000  0.5299270000000 1.0
C      1  0.4859220000000  0.4667530000000  0.4042840000000 1.0
C      1  0.4804160000000  0.4927400000000  0.5451740000000 1.0
C      1  0.4845810000000  0.5177490000000  0.4849490000000 1.0
C      1  0.4542990000000  0.4791630000000  0.5130170000000 1.0
C      1  0.5580600000000  0.4896900000000  0.5006220000000 1.0
C      1  0.5069900000000  0.4905070000000  0.5580500000000 1.0
C      1  0.4626340000000  0.5267880000000  0.5814650000000 1.0
C      1  0.4602060000000  0.5321820000000  0.6062920000000 1.0
C      1  0.5608130000000  0.4816740000000  0.4752140000000 1.0
C      1  0.5054370000000  0.4966380000000  0.4997370000000 1.0
END
