TITL C-2848497-6229-464 0.00158999192513851 125000 -688.729123936721 0 0 126 (C1) n - 1
REM
REM in /home/bkarasulu/work/CARBON/AIRSS/Generating-Clusters/AIREBO/with-SteepDescent/Only-C1/SD-CG-opt/Try1-1.4A-POS3A/HFTN-CG
REM
REM
REM
REM
REM
REM ./C.cell (11c1c37f851c82e70ff6c80c92926a4b)
REM
REM compiler GCC version 9.2.1 20190827 (Red Hat 9.2.1-1)
REM options -cpp -mtune=generic -march=x86-64 -g -O0 -fpre-include=/usr/include/finclude/math-vector-fortran.h
REM seed -3988845 1698177561 793151821 -1940655083 -280332658 -409066643 259645246 -1520092883 -1311685940 1054280907 -1922162420 1147881191 -1975306744 -2093960654 361373846 2106269294 1629694194 496050151 652812381 708971935 -1113252056 509064817 1507716580 -1835378665 -835539514 -1148506569 -1076645884 -1175966160 1804097218 2129479648 946872968 1714445896 -1417360783
REM
CELL 1.54180   50.00000   50.00000   50.00000   90.00000   90.00000   90.00000
LATT -1
SFAC C  
C      1  0.4690680000000  0.5383810000000  0.5488230000000 1.0
C      1  0.5193580000000  0.4730830000000  0.4905400000000 1.0
C      1  0.5273770000000  0.5149380000000  0.5561670000000 1.0
C      1  0.4575640000000  0.4246890000000  0.5540170000000 1.0
C      1  0.5830060000000  0.4811840000000  0.5137690000000 1.0
C      1  0.5573590000000  0.4162160000000  0.5035460000000 1.0
C      1  0.5353640000000  0.4189940000000  0.5293260000000 1.0
C      1  0.4889250000000  0.4355100000000  0.4764490000000 1.0
C      1  0.5137920000000  0.5391060000000  0.4426660000000 1.0
C      1  0.5928350000000  0.5118360000000  0.5150810000000 1.0
C      1  0.4693310000000  0.5150490000000  0.4465750000000 1.0
C      1  0.4196560000000  0.5143830000000  0.4383580000000 1.0
C      1  0.4860520000000  0.4707470000000  0.5978260000000 1.0
C      1  0.4857280000000  0.5807870000000  0.4923040000000 1.0
C      1  0.5191010000000  0.4680550000000  0.5232890000000 1.0
C      1  0.4724080000000  0.4876800000000  0.4890870000000 1.0
C      1  0.5650750000000  0.5375420000000  0.4492580000000 1.0
C      1  0.5512980000000  0.5015510000000  0.5399140000000 1.0
C      1  0.5464930000000  0.4472900000000  0.5034670000000 1.0
C      1  0.4041480000000  0.4659540000000  0.5274140000000 1.0
C      1  0.5585230000000  0.5147320000000  0.4862180000000 1.0
C      1  0.5059570000000  0.4928100000000  0.5611490000000 1.0
C      1  0.4893470000000  0.5659820000000  0.5500310000000 1.0
C      1  0.4982720000000  0.5104160000000  0.4517640000000 1.0
C      1  0.5629800000000  0.5533440000000  0.5187120000000 1.0
C      1  0.4828270000000  0.5396260000000  0.4748980000000 1.0
C      1  0.4372450000000  0.5823550000000  0.5361700000000 1.0
C      1  0.5379320000000  0.4159060000000  0.4490380000000 1.0
C      1  0.4737260000000  0.5725010000000  0.4140780000000 1.0
C      1  0.4487580000000  0.4378520000000  0.4913270000000 1.0
C      1  0.5014470000000  0.4958450000000  0.4773200000000 1.0
C      1  0.5601160000000  0.4842380000000  0.5658740000000 1.0
C      1  0.4758250000000  0.4568860000000  0.4976680000000 1.0
C      1  0.4883920000000  0.4577540000000  0.5257470000000 1.0
C      1  0.5672990000000  0.5460520000000  0.4882590000000 1.0
C      1  0.4588630000000  0.4754510000000  0.5859130000000 1.0
C      1  0.5077570000000  0.4158600000000  0.5709990000000 1.0
C      1  0.4544550000000  0.4320140000000  0.5208390000000 1.0
C      1  0.5160890000000  0.4617490000000  0.5543150000000 1.0
C      1  0.4483750000000  0.5352700000000  0.5233620000000 1.0
C      1  0.4431320000000  0.4410120000000  0.4587600000000 1.0
C      1  0.5956200000000  0.5283740000000  0.4918680000000 1.0
C      1  0.4688000000000  0.5274370000000  0.5882150000000 1.0
C      1  0.6078330000000  0.4830260000000  0.4902580000000 1.0
C      1  0.4158310000000  0.5356130000000  0.5332070000000 1.0
C      1  0.5255050000000  0.4363050000000  0.4343240000000 1.0
C      1  0.4256060000000  0.4595410000000  0.4443120000000 1.0
C      1  0.4204070000000  0.4962700000000  0.4921180000000 1.0
C      1  0.5180900000000  0.5029260000000  0.4266490000000 1.0
C      1  0.5481080000000  0.5149820000000  0.4318570000000 1.0
C      1  0.4448840000000  0.5481050000000  0.5787160000000 1.0
C      1  0.4951530000000  0.5818070000000  0.4604150000000 1.0
C      1  0.5081360000000  0.4086790000000  0.5270600000000 1.0
C      1  0.5369970000000  0.4735970000000  0.5772320000000 1.0
C      1  0.5180380000000  0.4422980000000  0.4846860000000 1.0
C      1  0.4349060000000  0.5328450000000  0.4858550000000 1.0
C      1  0.4585930000000  0.5164920000000  0.4774590000000 1.0
C      1  0.4377350000000  0.4678460000000  0.4877020000000 1.0
C      1  0.5300840000000  0.5947340000000  0.5430360000000 1.0
C      1  0.4819440000000  0.5326960000000  0.6118740000000 1.0
C      1  0.5087080000000  0.5410310000000  0.5516010000000 1.0
C      1  0.5682060000000  0.4962050000000  0.4191270000000 1.0
C      1  0.4672250000000  0.4723960000000  0.4325130000000 1.0
C      1  0.5094380000000  0.5089190000000  0.5045390000000 1.0
C      1  0.5878490000000  0.5248770000000  0.4613060000000 1.0
C      1  0.4227630000000  0.4903200000000  0.4587030000000 1.0
C      1  0.4964470000000  0.4401010000000  0.4256030000000 1.0
C      1  0.4382420000000  0.5026050000000  0.5203980000000 1.0
C      1  0.4414400000000  0.5222860000000  0.5604800000000 1.0
C      1  0.5034180000000  0.5751080000000  0.5207790000000 1.0
C      1  0.5363280000000  0.5138430000000  0.4634850000000 1.0
C      1  0.5516800000000  0.4759250000000  0.5175540000000 1.0
C      1  0.5105060000000  0.5447730000000  0.4119640000000 1.0
C      1  0.4265750000000  0.4815530000000  0.5444290000000 1.0
C      1  0.5732620000000  0.4421150000000  0.4862690000000 1.0
C      1  0.5363370000000  0.4656410000000  0.4410980000000 1.0
C      1  0.4096880000000  0.4596030000000  0.5036690000000 1.0
C      1  0.4429440000000  0.5308290000000  0.4348120000000 1.0
C      1  0.4333380000000  0.4746890000000  0.5770460000000 1.0
C      1  0.5517270000000  0.5637770000000  0.4653710000000 1.0
C      1  0.5398520000000  0.5138680000000  0.5105450000000 1.0
C      1  0.4492920000000  0.4562500000000  0.5441200000000 1.0
C      1  0.4694840000000  0.4981270000000  0.5189630000000 1.0
C      1  0.5256540000000  0.5448280000000  0.5071450000000 1.0
C      1  0.4861480000000  0.4948580000000  0.4166180000000 1.0
C      1  0.4750760000000  0.4998890000000  0.5728140000000 1.0
C      1  0.5684440000000  0.4672680000000  0.4646240000000 1.0
C      1  0.5200240000000  0.5688930000000  0.4541680000000 1.0
C      1  0.4305520000000  0.5595050000000  0.5513330000000 1.0
C      1  0.4911120000000  0.5146350000000  0.5393540000000 1.0
C      1  0.5128030000000  0.4667760000000  0.5938040000000 1.0
C      1  0.4118910000000  0.5268830000000  0.5032060000000 1.0
C      1  0.4418200000000  0.5613130000000  0.4805750000000 1.0
C      1  0.5148490000000  0.5367570000000  0.4765770000000 1.0
C      1  0.4810600000000  0.4105000000000  0.5704940000000 1.0
C      1  0.4739080000000  0.5754580000000  0.4423500000000 1.0
C      1  0.5839080000000  0.5033120000000  0.3980140000000 1.0
C      1  0.5984930000000  0.4534820000000  0.5015690000000 1.0
C      1  0.4718430000000  0.4796030000000  0.5456850000000 1.0
C      1  0.5392750000000  0.4198480000000  0.4756710000000 1.0
C      1  0.4817950000000  0.3799320000000  0.4821140000000 1.0
C      1  0.5817430000000  0.4946280000000  0.4756890000000 1.0
C      1  0.5175750000000  0.5922280000000  0.4947910000000 1.0
C      1  0.5636620000000  0.5508980000000  0.5530160000000 1.0
C      1  0.4840660000000  0.5474910000000  0.4050030000000 1.0
C      1  0.5743110000000  0.5257510000000  0.5348260000000 1.0
C      1  0.5659540000000  0.4709330000000  0.4311160000000 1.0
C      1  0.4939210000000  0.5362700000000  0.5132620000000 1.0
C      1  0.4551310000000  0.4801630000000  0.4610900000000 1.0
C      1  0.5381440000000  0.4827640000000  0.4682770000000 1.0
C      1  0.4134060000000  0.5108280000000  0.5546080000000 1.0
C      1  0.5371300000000  0.5709840000000  0.5224170000000 1.0
C      1  0.5068770000000  0.4708430000000  0.4276790000000 1.0
C      1  0.5089710000000  0.5913720000000  0.5568690000000 1.0
C      1  0.4748250000000  0.4437530000000  0.4492060000000 1.0
C      1  0.4841720000000  0.4053070000000  0.4806080000000 1.0
C      1  0.5402280000000  0.5918890000000  0.4796110000000 1.0
C      1  0.4681810000000  0.5227700000000  0.4134830000000 1.0
C      1  0.4556300000000  0.5829530000000  0.5157120000000 1.0
C      1  0.4380400000000  0.4642640000000  0.4178750000000 1.0
C      1  0.5250410000000  0.4315540000000  0.5551080000000 1.0
C      1  0.4586240000000  0.5526150000000  0.4548500000000 1.0
C      1  0.5858880000000  0.4814590000000  0.5742500000000 1.0
C      1  0.4852580000000  0.4273870000000  0.5344770000000 1.0
C      1  0.4671540000000  0.5540100000000  0.5020580000000 1.0
C      1  0.5391340000000  0.5440960000000  0.5664690000000 1.0
END
