TITL C-2848499-1157-40 0.00527953002748489 125000 -749.979575852933 0 0 140 (C1) n - 1
REM
REM in /home/bkarasulu/work/CARBON/AIRSS/Generating-Clusters/AIREBO/with-SteepDescent/Only-C1/SD-CG-opt/Try1-1.4A-POS3A/HFTN-CG
REM
REM
REM
REM
REM
REM ./C.cell (11c1c37f851c82e70ff6c80c92926a4b)
REM
REM compiler GCC version 9.2.1 20190827 (Red Hat 9.2.1-1)
REM options -cpp -mtune=generic -march=x86-64 -g -O0 -fpre-include=/usr/include/finclude/math-vector-fortran.h
REM seed 652347014 -833937925 485108595 -860095873 -717942057 973006565 -658323737 1219245009 -1786271312 1785720646 -826650160 1052599791 -1414403585 1140275455 1088847038 289839385 -1402177325 963657482 -856621825 -700340337 -1738446816 1342853225 -428372180 1569460776 -183431526 -819521291 -1716160448 1284702121 983359122 -1698978338 2024725517 -1107681491 -68909743
REM
CELL 1.54180   50.00000   50.00000   50.00000   90.00000   90.00000   90.00000
LATT -1
SFAC C  
C      1  0.4683590000000  0.5696360000000  0.5640470000000 1.0
C      1  0.4741490000000  0.4367360000000  0.4880220000000 1.0
C      1  0.4420810000000  0.4731010000000  0.5639570000000 1.0
C      1  0.5927750000000  0.4900150000000  0.5294700000000 1.0
C      1  0.4425800000000  0.6014510000000  0.4735100000000 1.0
C      1  0.4118560000000  0.5275320000000  0.4554520000000 1.0
C      1  0.5871460000000  0.5470100000000  0.5009280000000 1.0
C      1  0.4636780000000  0.4517960000000  0.5684220000000 1.0
C      1  0.5968160000000  0.4449260000000  0.5155480000000 1.0
C      1  0.5398100000000  0.4151810000000  0.4886110000000 1.0
C      1  0.4138540000000  0.4884560000000  0.5556470000000 1.0
C      1  0.4959200000000  0.5479890000000  0.5865820000000 1.0
C      1  0.4014920000000  0.5442980000000  0.5125850000000 1.0
C      1  0.4483170000000  0.5481180000000  0.4878620000000 1.0
C      1  0.4065830000000  0.4714510000000  0.6083310000000 1.0
C      1  0.3972290000000  0.4995360000000  0.4581040000000 1.0
C      1  0.4654920000000  0.3908960000000  0.4733230000000 1.0
C      1  0.3952360000000  0.5136180000000  0.5066790000000 1.0
C      1  0.5573830000000  0.5186350000000  0.5698520000000 1.0
C      1  0.4869000000000  0.5003730000000  0.4578270000000 1.0
C      1  0.5558890000000  0.4853090000000  0.4904130000000 1.0
C      1  0.4238040000000  0.4859330000000  0.5028120000000 1.0
C      1  0.3828450000000  0.5003210000000  0.4871030000000 1.0
C      1  0.5705990000000  0.5749290000000  0.4628420000000 1.0
C      1  0.5383600000000  0.5276000000000  0.4854670000000 1.0
C      1  0.4774120000000  0.4431030000000  0.4460430000000 1.0
C      1  0.5020700000000  0.4510690000000  0.5941300000000 1.0
C      1  0.5367380000000  0.5721470000000  0.5491950000000 1.0
C      1  0.5470300000000  0.5479570000000  0.4309840000000 1.0
C      1  0.4857430000000  0.6023540000000  0.4493900000000 1.0
C      1  0.4549130000000  0.5271480000000  0.4266260000000 1.0
C      1  0.5939790000000  0.5188580000000  0.4849600000000 1.0
C      1  0.4257800000000  0.5182440000000  0.5533070000000 1.0
C      1  0.5337330000000  0.4481310000000  0.4948610000000 1.0
C      1  0.5301720000000  0.5100700000000  0.5975230000000 1.0
C      1  0.4529380000000  0.5021160000000  0.4574110000000 1.0
C      1  0.4268090000000  0.4928440000000  0.4427240000000 1.0
C      1  0.4520990000000  0.4742200000000  0.5154760000000 1.0
C      1  0.4755010000000  0.4930280000000  0.5729380000000 1.0
C      1  0.5738790000000  0.4868760000000  0.4615910000000 1.0
C      1  0.5534480000000  0.5279910000000  0.5312450000000 1.0
C      1  0.5343610000000  0.4364190000000  0.4396120000000 1.0
C      1  0.4739640000000  0.5274570000000  0.5260020000000 1.0
C      1  0.5430510000000  0.4627870000000  0.4684010000000 1.0
C      1  0.4903660000000  0.4140070000000  0.5074270000000 1.0
C      1  0.5095850000000  0.4975880000000  0.6111900000000 1.0
C      1  0.5077560000000  0.4914230000000  0.5621990000000 1.0
C      1  0.5143410000000  0.5467710000000  0.5459190000000 1.0
C      1  0.4931210000000  0.4611690000000  0.5565150000000 1.0
C      1  0.5462550000000  0.4202310000000  0.5216200000000 1.0
C      1  0.4685120000000  0.3920340000000  0.5020620000000 1.0
C      1  0.5814940000000  0.5414160000000  0.5271010000000 1.0
C      1  0.5044220000000  0.5918530000000  0.4369090000000 1.0
C      1  0.5552150000000  0.4314940000000  0.4630320000000 1.0
C      1  0.5691910000000  0.5469900000000  0.5747960000000 1.0
C      1  0.4834480000000  0.5764030000000  0.4956130000000 1.0
C      1  0.5877650000000  0.5149820000000  0.4515700000000 1.0
C      1  0.5145430000000  0.4405250000000  0.4126960000000 1.0
C      1  0.4940570000000  0.5740010000000  0.5438580000000 1.0
C      1  0.5103910000000  0.5155340000000  0.4384590000000 1.0
C      1  0.5356680000000  0.5019210000000  0.3711500000000 1.0
C      1  0.5653560000000  0.4410850000000  0.5051870000000 1.0
C      1  0.5683460000000  0.5047820000000  0.4268850000000 1.0
C      1  0.5398490000000  0.4621800000000  0.4215530000000 1.0
C      1  0.5426860000000  0.5688470000000  0.5016580000000 1.0
C      1  0.5313470000000  0.5037210000000  0.3961790000000 1.0
C      1  0.5801670000000  0.4538180000000  0.4567260000000 1.0
C      1  0.4878290000000  0.4459490000000  0.4075600000000 1.0
C      1  0.5652340000000  0.5292980000000  0.4726290000000 1.0
C      1  0.4877230000000  0.4859010000000  0.4084760000000 1.0
C      1  0.5584150000000  0.5020530000000  0.5988780000000 1.0
C      1  0.4584430000000  0.4447240000000  0.5163990000000 1.0
C      1  0.5024460000000  0.4846800000000  0.5078250000000 1.0
C      1  0.4683410000000  0.6113320000000  0.5246730000000 1.0
C      1  0.5371500000000  0.5868320000000  0.5251400000000 1.0
C      1  0.5429180000000  0.4333960000000  0.5528420000000 1.0
C      1  0.5274520000000  0.4681500000000  0.5192120000000 1.0
C      1  0.4109670000000  0.4748440000000  0.4746760000000 1.0
C      1  0.5689000000000  0.5038360000000  0.5448870000000 1.0
C      1  0.5184140000000  0.4754060000000  0.4539950000000 1.0
C      1  0.4909200000000  0.5913280000000  0.5718900000000 1.0
C      1  0.4472140000000  0.5356500000000  0.5135970000000 1.0
C      1  0.4674090000000  0.5893880000000  0.4698240000000 1.0
C      1  0.5240660000000  0.5108350000000  0.5285720000000 1.0
C      1  0.4824050000000  0.4680700000000  0.3862600000000 1.0
C      1  0.4462550000000  0.3958490000000  0.5191830000000 1.0
C      1  0.5588860000000  0.4112650000000  0.5667780000000 1.0
C      1  0.5641090000000  0.4581520000000  0.5476350000000 1.0
C      1  0.4961500000000  0.5115500000000  0.4879530000000 1.0
C      1  0.4624820000000  0.5432110000000  0.5826940000000 1.0
C      1  0.4259320000000  0.5143790000000  0.5213210000000 1.0
C      1  0.4884270000000  0.4394530000000  0.5300170000000 1.0
C      1  0.4641950000000  0.4841950000000  0.5421100000000 1.0
C      1  0.4677890000000  0.5567570000000  0.4664000000000 1.0
C      1  0.5258370000000  0.4979880000000  0.4783340000000 1.0
C      1  0.5471600000000  0.5889640000000  0.4529810000000 1.0
C      1  0.5234850000000  0.5212780000000  0.5668000000000 1.0
C      1  0.4027510000000  0.4781440000000  0.5282970000000 1.0
C      1  0.4777850000000  0.4371720000000  0.5882890000000 1.0
C      1  0.5095100000000  0.4200100000000  0.4803420000000 1.0
C      1  0.4542080000000  0.5173510000000  0.5660120000000 1.0
C      1  0.5270360000000  0.5416450000000  0.5147490000000 1.0
C      1  0.4832800000000  0.5375830000000  0.5563730000000 1.0
C      1  0.4941990000000  0.4788180000000  0.5974600000000 1.0
C      1  0.4162670000000  0.4739790000000  0.5850770000000 1.0
C      1  0.5710070000000  0.5676610000000  0.4903690000000 1.0
C      1  0.4311300000000  0.4531700000000  0.4331560000000 1.0
C      1  0.4921290000000  0.5009340000000  0.5346070000000 1.0
C      1  0.5406190000000  0.5190050000000  0.4232660000000 1.0
C      1  0.5080350000000  0.4429510000000  0.4552700000000 1.0
C      1  0.4518290000000  0.4558850000000  0.4739440000000 1.0
C      1  0.4671670000000  0.5028600000000  0.5034860000000 1.0
C      1  0.5919880000000  0.4624040000000  0.5379990000000 1.0
C      1  0.4728850000000  0.5451950000000  0.4389150000000 1.0
C      1  0.5551590000000  0.5697600000000  0.5697410000000 1.0
C      1  0.5220380000000  0.5560740000000  0.4778500000000 1.0
C      1  0.5688050000000  0.5498990000000  0.4491500000000 1.0
C      1  0.5255020000000  0.4403700000000  0.5812170000000 1.0
C      1  0.4195040000000  0.5364090000000  0.4847930000000 1.0
C      1  0.4277020000000  0.5318470000000  0.4338990000000 1.0
C      1  0.5166960000000  0.4870780000000  0.4220950000000 1.0
C      1  0.4276740000000  0.4573770000000  0.4611830000000 1.0
C      1  0.5009210000000  0.4574160000000  0.4914340000000 1.0
C      1  0.5660970000000  0.4726560000000  0.4316470000000 1.0
C      1  0.4610630000000  0.4601640000000  0.4230190000000 1.0
C      1  0.5230700000000  0.5661910000000  0.4453810000000 1.0
C      1  0.5867400000000  0.4597610000000  0.4877910000000 1.0
C      1  0.5542420000000  0.4811740000000  0.5242080000000 1.0
C      1  0.4631850000000  0.4941320000000  0.4262850000000 1.0
C      1  0.4887630000000  0.5924460000000  0.5196090000000 1.0
C      1  0.4936260000000  0.5454670000000  0.4857000000000 1.0
C      1  0.4810450000000  0.4698030000000  0.4667790000000 1.0
C      1  0.5882360000000  0.4920220000000  0.4985300000000 1.0
C      1  0.5175720000000  0.4492510000000  0.5397580000000 1.0
C      1  0.4401850000000  0.5093390000000  0.4843650000000 1.0
C      1  0.4387660000000  0.4219600000000  0.5246990000000 1.0
C      1  0.5004200000000  0.5437530000000  0.4346190000000 1.0
C      1  0.4097750000000  0.5454710000000  0.5401080000000 1.0
C      1  0.5175130000000  0.6048900000000  0.5208250000000 1.0
C      1  0.4702710000000  0.4153640000000  0.4620430000000 1.0
END
