TITL C-2847957-7266-633 -0.00170867763037493 125000 -848.528977489983 0 0 156 (C1) n - 1
REM
REM in /home/bkarasulu/work/CARBON/AIRSS/Generating-Clusters/AIREBO/with-SteepDescent/Only-C1/SD-CG-opt/Try1-1.4A-POS3A/HFTN-CG
REM
REM
REM
REM
REM
REM ./C.cell (11c1c37f851c82e70ff6c80c92926a4b)
REM
REM compiler GCC version 9.2.1 20190827 (Red Hat 9.2.1-1)
REM options -cpp -mtune=generic -march=x86-64 -g -O0 -fpre-include=/usr/include/finclude/math-vector-fortran.h
REM seed -830028079 -829638990 54061047 -98930128 2026668625 188736546 978595754 -2035037918 -321357003 1295473618 1083588112 47740243 -533568452 934247083 -373568460 648103448 1797081420 -1528263767 809411221 562408553 730174360 -919263899 1836989607 1928136887 888468062 -1534022726 -1205300547 -1259444117 2064038471 -691539419 1489405335 -127819865 555523873
REM
CELL 1.54180   50.00000   50.00000   50.00000   90.00000   90.00000   90.00000
LATT -1
SFAC C  
C      1  0.4869580000000  0.5256350000000  0.5361480000000 1.0
C      1  0.5233740000000  0.4939260000000  0.4846340000000 1.0
C      1  0.4237720000000  0.5741390000000  0.5137140000000 1.0
C      1  0.5248900000000  0.5324540000000  0.4070020000000 1.0
C      1  0.5971130000000  0.4742920000000  0.4744350000000 1.0
C      1  0.4085700000000  0.5524080000000  0.5312520000000 1.0
C      1  0.4575080000000  0.5793700000000  0.5116910000000 1.0
C      1  0.4340210000000  0.4986990000000  0.4301910000000 1.0
C      1  0.4385310000000  0.4663790000000  0.5726590000000 1.0
C      1  0.4260630000000  0.4570400000000  0.4980270000000 1.0
C      1  0.5371530000000  0.4205850000000  0.5336930000000 1.0
C      1  0.5823480000000  0.5459230000000  0.4595080000000 1.0
C      1  0.5306750000000  0.5258760000000  0.4755700000000 1.0
C      1  0.4868500000000  0.4669530000000  0.5564970000000 1.0
C      1  0.5395720000000  0.4504410000000  0.5698880000000 1.0
C      1  0.4512750000000  0.4106800000000  0.4981880000000 1.0
C      1  0.3993960000000  0.5260170000000  0.5117630000000 1.0
C      1  0.4404300000000  0.4977100000000  0.5335160000000 1.0
C      1  0.5721710000000  0.4945480000000  0.4631020000000 1.0
C      1  0.4962770000000  0.4397820000000  0.5379130000000 1.0
C      1  0.5749530000000  0.5523750000000  0.5225540000000 1.0
C      1  0.5433880000000  0.5693930000000  0.5567810000000 1.0
C      1  0.4793980000000  0.4869420000000  0.4974070000000 1.0
C      1  0.4263310000000  0.5457730000000  0.4388860000000 1.0
C      1  0.4094530000000  0.4941040000000  0.4533790000000 1.0
C      1  0.5253010000000  0.4199240000000  0.4353770000000 1.0
C      1  0.5233060000000  0.5480570000000  0.4371950000000 1.0
C      1  0.4324340000000  0.5818780000000  0.5636740000000 1.0
C      1  0.4734440000000  0.5076740000000  0.3968120000000 1.0
C      1  0.4597740000000  0.4815600000000  0.4165600000000 1.0
C      1  0.5420150000000  0.4439200000000  0.4276210000000 1.0
C      1  0.5572150000000  0.5213870000000  0.5572800000000 1.0
C      1  0.4142350000000  0.4964920000000  0.5037100000000 1.0
C      1  0.4479530000000  0.4400650000000  0.5013080000000 1.0
C      1  0.4117540000000  0.5004020000000  0.5516880000000 1.0
C      1  0.4885850000000  0.4348760000000  0.4790750000000 1.0
C      1  0.5192230000000  0.5918230000000  0.4405910000000 1.0
C      1  0.4253810000000  0.5383640000000  0.5772450000000 1.0
C      1  0.5351050000000  0.4627690000000  0.4843170000000 1.0
C      1  0.5538690000000  0.4684840000000  0.5202570000000 1.0
C      1  0.5440220000000  0.4769020000000  0.5907840000000 1.0
C      1  0.5290740000000  0.5957850000000  0.5482030000000 1.0
C      1  0.5319290000000  0.4348030000000  0.4652310000000 1.0
C      1  0.5403750000000  0.5430200000000  0.5780930000000 1.0
C      1  0.4605540000000  0.5348520000000  0.4057470000000 1.0
C      1  0.4593560000000  0.4219550000000  0.4676180000000 1.0
C      1  0.5054930000000  0.4551000000000  0.4584190000000 1.0
C      1  0.5334580000000  0.4107020000000  0.4891680000000 1.0
C      1  0.5196160000000  0.4290680000000  0.5582400000000 1.0
C      1  0.6036020000000  0.5003920000000  0.4889320000000 1.0
C      1  0.4546540000000  0.4940670000000  0.4539380000000 1.0
C      1  0.4830710000000  0.5175720000000  0.4894010000000 1.0
C      1  0.4373430000000  0.4982690000000  0.4816100000000 1.0
C      1  0.4897070000000  0.4954960000000  0.4223550000000 1.0
C      1  0.4721390000000  0.5836980000000  0.4519600000000 1.0
C      1  0.4199470000000  0.4719090000000  0.5250920000000 1.0
C      1  0.3907600000000  0.5075280000000  0.5367340000000 1.0
C      1  0.5078840000000  0.3963320000000  0.5063580000000 1.0
C      1  0.4461670000000  0.5481040000000  0.5187700000000 1.0
C      1  0.5710780000000  0.4749550000000  0.5702500000000 1.0
C      1  0.5630560000000  0.3945510000000  0.5182610000000 1.0
C      1  0.4542230000000  0.4339490000000  0.5401640000000 1.0
C      1  0.4014830000000  0.5155110000000  0.4787320000000 1.0
C      1  0.5207630000000  0.5995410000000  0.4895250000000 1.0
C      1  0.5781490000000  0.4448210000000  0.5176620000000 1.0
C      1  0.5041500000000  0.5468950000000  0.4722580000000 1.0
C      1  0.5009950000000  0.4150850000000  0.4224390000000 1.0
C      1  0.4516890000000  0.5623640000000  0.4646900000000 1.0
C      1  0.5609750000000  0.4815740000000  0.4896910000000 1.0
C      1  0.4571490000000  0.4549860000000  0.4605660000000 1.0
C      1  0.5013780000000  0.4269810000000  0.5063990000000 1.0
C      1  0.4613780000000  0.5800060000000  0.5619530000000 1.0
C      1  0.4343980000000  0.5267900000000  0.4204630000000 1.0
C      1  0.5450010000000  0.5730630000000  0.5066650000000 1.0
C      1  0.5596250000000  0.5472770000000  0.4925850000000 1.0
C      1  0.5001640000000  0.5333650000000  0.5095710000000 1.0
C      1  0.5084150000000  0.5248510000000  0.5572740000000 1.0
C      1  0.5323060000000  0.5875450000000  0.4644930000000 1.0
C      1  0.4776050000000  0.5416250000000  0.4581850000000 1.0
C      1  0.4902700000000  0.4478960000000  0.5913310000000 1.0
C      1  0.4720510000000  0.4514620000000  0.5171080000000 1.0
C      1  0.4939890000000  0.4242970000000  0.5746420000000 1.0
C      1  0.4552130000000  0.5388810000000  0.5840220000000 1.0
C      1  0.5676240000000  0.4231970000000  0.5409380000000 1.0
C      1  0.4565010000000  0.5265260000000  0.5362740000000 1.0
C      1  0.5651860000000  0.4354880000000  0.5671210000000 1.0
C      1  0.5106160000000  0.4857570000000  0.3973650000000 1.0
C      1  0.5230230000000  0.6060220000000  0.5163500000000 1.0
C      1  0.5284180000000  0.4463950000000  0.5133570000000 1.0
C      1  0.4584840000000  0.4491140000000  0.4270970000000 1.0
C      1  0.4839080000000  0.5397720000000  0.4264130000000 1.0
C      1  0.5246710000000  0.5482440000000  0.5422410000000 1.0
C      1  0.5842590000000  0.5082840000000  0.5137480000000 1.0
C      1  0.4270010000000  0.4688820000000  0.4679540000000 1.0
C      1  0.5503730000000  0.5617460000000  0.4217980000000 1.0
C      1  0.4976210000000  0.4597790000000  0.4073560000000 1.0
C      1  0.6018970000000  0.4553970000000  0.5380210000000 1.0
C      1  0.5890460000000  0.4485390000000  0.4856690000000 1.0
C      1  0.4740290000000  0.5868300000000  0.4858340000000 1.0
C      1  0.5014460000000  0.4667180000000  0.5093870000000 1.0
C      1  0.5301310000000  0.4762110000000  0.5514170000000 1.0
C      1  0.4695190000000  0.4898020000000  0.5277780000000 1.0
C      1  0.5431120000000  0.5553040000000  0.4639210000000 1.0
C      1  0.4991160000000  0.5034610000000  0.4663960000000 1.0
C      1  0.4953370000000  0.5334630000000  0.6036580000000 1.0
C      1  0.4844240000000  0.4366660000000  0.4156910000000 1.0
C      1  0.4557670000000  0.5123780000000  0.5672020000000 1.0
C      1  0.4739440000000  0.5594480000000  0.5786220000000 1.0
C      1  0.5578800000000  0.4902500000000  0.5456310000000 1.0
C      1  0.4339830000000  0.5570700000000  0.4883190000000 1.0
C      1  0.5335350000000  0.3902860000000  0.5235500000000 1.0
C      1  0.4896810000000  0.5089170000000  0.6013410000000 1.0
C      1  0.4725370000000  0.4134830000000  0.5590420000000 1.0
C      1  0.5695590000000  0.5726650000000  0.5397760000000 1.0
C      1  0.5062720000000  0.5168160000000  0.3932290000000 1.0
C      1  0.5523020000000  0.5250370000000  0.4068680000000 1.0
C      1  0.4806000000000  0.4758450000000  0.4653800000000 1.0
C      1  0.4439990000000  0.5630770000000  0.4067900000000 1.0
C      1  0.4141850000000  0.4420140000000  0.4515250000000 1.0
C      1  0.5924370000000  0.4799040000000  0.4414390000000 1.0
C      1  0.5510910000000  0.5123620000000  0.4519710000000 1.0
C      1  0.5717870000000  0.5735710000000  0.4653040000000 1.0
C      1  0.4238080000000  0.5340700000000  0.4674350000000 1.0
C      1  0.5202520000000  0.5084330000000  0.5152390000000 1.0
C      1  0.4318290000000  0.4938630000000  0.5722030000000 1.0
C      1  0.5138210000000  0.5638820000000  0.5158060000000 1.0
C      1  0.5001020000000  0.5891210000000  0.5339980000000 1.0
C      1  0.4369280000000  0.4267560000000  0.4419020000000 1.0
C      1  0.5133880000000  0.4948080000000  0.5724070000000 1.0
C      1  0.5513510000000  0.5067250000000  0.5097920000000 1.0
C      1  0.5664720000000  0.4323050000000  0.4673570000000 1.0
C      1  0.5945120000000  0.4635200000000  0.5635290000000 1.0
C      1  0.4551870000000  0.5252720000000  0.4778500000000 1.0
C      1  0.5665650000000  0.5351610000000  0.4354920000000 1.0
C      1  0.5648090000000  0.4199750000000  0.4985280000000 1.0
C      1  0.5020480000000  0.5737220000000  0.4865440000000 1.0
C      1  0.4797690000000  0.4957280000000  0.5732680000000 1.0
C      1  0.4163620000000  0.5581740000000  0.5586540000000 1.0
C      1  0.5112070000000  0.4673800000000  0.5924020000000 1.0
C      1  0.5211060000000  0.4668790000000  0.4309210000000 1.0
C      1  0.4421030000000  0.5761380000000  0.4366080000000 1.0
C      1  0.4617170000000  0.4029590000000  0.5283260000000 1.0
C      1  0.5066130000000  0.5498940000000  0.5777100000000 1.0
C      1  0.4831960000000  0.3818420000000  0.5176930000000 1.0
C      1  0.4321330000000  0.4529880000000  0.5486190000000 1.0
C      1  0.4644370000000  0.4599140000000  0.5811020000000 1.0
C      1  0.5671140000000  0.4428620000000  0.4379360000000 1.0
C      1  0.5409040000000  0.5095840000000  0.5836160000000 1.0
C      1  0.5028250000000  0.4874450000000  0.5345510000000 1.0
C      1  0.5692400000000  0.5859040000000  0.4917350000000 1.0
C      1  0.5793490000000  0.5280870000000  0.5364410000000 1.0
C      1  0.5840190000000  0.5275110000000  0.4856710000000 1.0
C      1  0.4968420000000  0.5694280000000  0.4368750000000 1.0
C      1  0.5066510000000  0.5182130000000  0.4396230000000 1.0
C      1  0.4718210000000  0.5881860000000  0.5373280000000 1.0
C      1  0.5315030000000  0.4956050000000  0.4343800000000 1.0
END
