TITL C-2848495-5024-340 0.00136005566902001 125000 -638.682759925627 0 0 122 (C1) n - 1
REM
REM in /home/bkarasulu/work/CARBON/AIRSS/Generating-Clusters/AIREBO/with-SteepDescent/Only-C1/SD-CG-opt/Try1-1.4A-POS3A/HFTN-CG
REM
REM
REM
REM
REM
REM ./C.cell (11c1c37f851c82e70ff6c80c92926a4b)
REM
REM compiler GCC version 9.2.1 20190827 (Red Hat 9.2.1-1)
REM options -cpp -mtune=generic -march=x86-64 -g -O0 -fpre-include=/usr/include/finclude/math-vector-fortran.h
REM seed -559370471 -1751327556 -54576874 1684064068 1936309407 -2070394974 667836670 -728097984 667779904 467282436 -1916934934 -1491348203 -7942973 693737993 -1722183638 -914609721 -1868445797 -55938241 -511495509 -1744570796 -119329670 -136189811 -1815452374 1781882681 -11486421 -1939651904 -912091045 -313756882 -1927630955 -1641223740 -1160705738 1525534903 1876174158
REM
CELL 1.54180   50.00000   50.00000   50.00000   90.00000   90.00000   90.00000
LATT -1
SFAC C  
C      1  0.5221330000000  0.3929950000000  0.5224750000000 1.0
C      1  0.4667740000000  0.5178790000000  0.5054310000000 1.0
C      1  0.5593120000000  0.5126390000000  0.4951280000000 1.0
C      1  0.5092200000000  0.4270280000000  0.5846100000000 1.0
C      1  0.4373330000000  0.4399170000000  0.4180370000000 1.0
C      1  0.5753180000000  0.5195360000000  0.4424110000000 1.0
C      1  0.5299430000000  0.4780880000000  0.5210340000000 1.0
C      1  0.5010380000000  0.5931820000000  0.5046390000000 1.0
C      1  0.5884110000000  0.4864530000000  0.5300180000000 1.0
C      1  0.4518860000000  0.4564380000000  0.5632540000000 1.0
C      1  0.5781090000000  0.4922950000000  0.4393030000000 1.0
C      1  0.5030410000000  0.5013050000000  0.6074570000000 1.0
C      1  0.5283140000000  0.5691240000000  0.5239150000000 1.0
C      1  0.5427560000000  0.5564690000000  0.4453380000000 1.0
C      1  0.6001800000000  0.4692310000000  0.4773900000000 1.0
C      1  0.3958080000000  0.4268650000000  0.4805280000000 1.0
C      1  0.5772270000000  0.4737050000000  0.4610710000000 1.0
C      1  0.4951440000000  0.4895170000000  0.5574760000000 1.0
C      1  0.5879410000000  0.5459480000000  0.5207850000000 1.0
C      1  0.4498580000000  0.5579790000000  0.4810650000000 1.0
C      1  0.4079440000000  0.5121070000000  0.4757560000000 1.0
C      1  0.5269440000000  0.5831790000000  0.5727240000000 1.0
C      1  0.4351350000000  0.4200150000000  0.5087310000000 1.0
C      1  0.5857250000000  0.5312310000000  0.4956190000000 1.0
C      1  0.5216440000000  0.4993310000000  0.4958090000000 1.0
C      1  0.4934190000000  0.5840310000000  0.5365340000000 1.0
C      1  0.5151450000000  0.5645490000000  0.4928960000000 1.0
C      1  0.4624450000000  0.5129870000000  0.4177990000000 1.0
C      1  0.4124090000000  0.4825230000000  0.4672220000000 1.0
C      1  0.5868960000000  0.5003270000000  0.5531890000000 1.0
C      1  0.4926060000000  0.5278830000000  0.4766880000000 1.0
C      1  0.5105320000000  0.4838050000000  0.4428150000000 1.0
C      1  0.5086350000000  0.5300060000000  0.4062160000000 1.0
C      1  0.5520560000000  0.5549730000000  0.5060210000000 1.0
C      1  0.5652300000000  0.4213550000000  0.4971250000000 1.0
C      1  0.5362080000000  0.5073150000000  0.5372870000000 1.0
C      1  0.5372360000000  0.5016250000000  0.5867220000000 1.0
C      1  0.4007840000000  0.4526740000000  0.4764830000000 1.0
C      1  0.4904680000000  0.5134820000000  0.3985300000000 1.0
C      1  0.5638380000000  0.4545160000000  0.5045180000000 1.0
C      1  0.4294860000000  0.5332050000000  0.5264460000000 1.0
C      1  0.4640270000000  0.4630440000000  0.4534630000000 1.0
C      1  0.4798700000000  0.4760960000000  0.5278140000000 1.0
C      1  0.4105610000000  0.4115420000000  0.4981780000000 1.0
C      1  0.4672420000000  0.4832120000000  0.5758940000000 1.0
C      1  0.5361680000000  0.5961330000000  0.4726610000000 1.0
C      1  0.4908510000000  0.4379150000000  0.5298390000000 1.0
C      1  0.5414660000000  0.4606930000000  0.5550730000000 1.0
C      1  0.4630290000000  0.5422520000000  0.4004870000000 1.0
C      1  0.5124180000000  0.4572590000000  0.5415620000000 1.0
C      1  0.4729160000000  0.5441750000000  0.4937770000000 1.0
C      1  0.4341950000000  0.4209090000000  0.4002710000000 1.0
C      1  0.4929230000000  0.4183030000000  0.5021360000000 1.0
C      1  0.5095900000000  0.5255570000000  0.6045230000000 1.0
C      1  0.5437560000000  0.4100330000000  0.4797760000000 1.0
C      1  0.5604640000000  0.5428070000000  0.4303640000000 1.0
C      1  0.4172470000000  0.5045240000000  0.5842370000000 1.0
C      1  0.5779100000000  0.5742730000000  0.5188910000000 1.0
C      1  0.4344620000000  0.5001280000000  0.5203050000000 1.0
C      1  0.5483210000000  0.4624320000000  0.4752940000000 1.0
C      1  0.5397230000000  0.5874870000000  0.5481600000000 1.0
C      1  0.4215730000000  0.5421270000000  0.4775790000000 1.0
C      1  0.4419660000000  0.4610480000000  0.4346420000000 1.0
C      1  0.5589430000000  0.5319470000000  0.5300860000000 1.0
C      1  0.4437560000000  0.5431120000000  0.4432800000000 1.0
C      1  0.5430730000000  0.5295870000000  0.5831580000000 1.0
C      1  0.5264910000000  0.4211890000000  0.5068670000000 1.0
C      1  0.5610960000000  0.4878170000000  0.5114460000000 1.0
C      1  0.4987520000000  0.3877850000000  0.4882970000000 1.0
C      1  0.5951420000000  0.4677460000000  0.5055640000000 1.0
C      1  0.5241910000000  0.4539750000000  0.4977390000000 1.0
C      1  0.5606050000000  0.5176190000000  0.5586230000000 1.0
C      1  0.4684160000000  0.4943480000000  0.4609600000000 1.0
C      1  0.4974570000000  0.5676000000000  0.5660470000000 1.0
C      1  0.4118580000000  0.5324650000000  0.4483070000000 1.0
C      1  0.5200880000000  0.5522990000000  0.5863370000000 1.0
C      1  0.5269750000000  0.4835550000000  0.5678920000000 1.0
C      1  0.4342090000000  0.5115730000000  0.4334770000000 1.0
C      1  0.4283040000000  0.5527180000000  0.5070780000000 1.0
C      1  0.5043900000000  0.5750490000000  0.4350270000000 1.0
C      1  0.4045680000000  0.5026020000000  0.5042910000000 1.0
C      1  0.4350720000000  0.4491400000000  0.5182810000000 1.0
C      1  0.5053230000000  0.4510220000000  0.5742550000000 1.0
C      1  0.4888730000000  0.5097260000000  0.4390290000000 1.0
C      1  0.4951950000000  0.4652900000000  0.4668680000000 1.0
C      1  0.5832520000000  0.4824880000000  0.4145310000000 1.0
C      1  0.4342550000000  0.4899450000000  0.5711380000000 1.0
C      1  0.5175770000000  0.5499100000000  0.5464920000000 1.0
C      1  0.4901910000000  0.5578120000000  0.5150080000000 1.0
C      1  0.4284570000000  0.4642830000000  0.4908640000000 1.0
C      1  0.5380940000000  0.4415170000000  0.4261260000000 1.0
C      1  0.5510060000000  0.5676290000000  0.4746760000000 1.0
C      1  0.5015380000000  0.5412010000000  0.4366130000000 1.0
C      1  0.4600810000000  0.4101640000000  0.5056630000000 1.0
C      1  0.5329880000000  0.4911830000000  0.4665310000000 1.0
C      1  0.5707240000000  0.5403510000000  0.4689060000000 1.0
C      1  0.4717110000000  0.5511520000000  0.5691650000000 1.0
C      1  0.4704680000000  0.5526550000000  0.4288900000000 1.0
C      1  0.4248920000000  0.4832040000000  0.4395400000000 1.0
C      1  0.5433180000000  0.5204210000000  0.4661290000000 1.0
C      1  0.4651590000000  0.5059760000000  0.5337350000000 1.0
C      1  0.5317380000000  0.4573880000000  0.4457700000000 1.0
C      1  0.4995920000000  0.4330050000000  0.4706730000000 1.0
C      1  0.4308870000000  0.4737510000000  0.5414310000000 1.0
C      1  0.4955140000000  0.4974820000000  0.4783470000000 1.0
C      1  0.4511840000000  0.4968890000000  0.4901900000000 1.0
C      1  0.5053490000000  0.5186210000000  0.5452850000000 1.0
C      1  0.5304240000000  0.5289700000000  0.5025360000000 1.0
C      1  0.5543240000000  0.4227700000000  0.5266870000000 1.0
C      1  0.4501280000000  0.5606130000000  0.5828840000000 1.0
C      1  0.4903120000000  0.5873070000000  0.4563100000000 1.0
C      1  0.5075090000000  0.5999690000000  0.4761400000000 1.0
C      1  0.4921620000000  0.4650340000000  0.5007910000000 1.0
C      1  0.5597690000000  0.4491140000000  0.5383720000000 1.0
C      1  0.4609730000000  0.4654070000000  0.4872440000000 1.0
C      1  0.4740690000000  0.5273360000000  0.5553780000000 1.0
C      1  0.4601320000000  0.5715810000000  0.4551810000000 1.0
C      1  0.5153650000000  0.4072160000000  0.4710890000000 1.0
C      1  0.5033780000000  0.5296150000000  0.5151570000000 1.0
C      1  0.5187170000000  0.5438930000000  0.4658460000000 1.0
C      1  0.4943180000000  0.4757560000000  0.5918220000000 1.0
C      1  0.4624570000000  0.4505680000000  0.5345300000000 1.0
END
