TITL C-2847946-5639-166 0.000543221575127226 125000 -523.308174727012 0 0 99 (C1) n - 1
REM
REM in /home/bkarasulu/work/CARBON/AIRSS/Generating-Clusters/AIREBO/with-SteepDescent/Only-C1/SD-CG-opt/Try1-1.4A-POS3A/HFTN-CG
REM
REM
REM
REM
REM
REM ./C.cell (11c1c37f851c82e70ff6c80c92926a4b)
REM
REM compiler GCC version 9.2.1 20190827 (Red Hat 9.2.1-1)
REM options -cpp -mtune=generic -march=x86-64 -g -O0 -fpre-include=/usr/include/finclude/math-vector-fortran.h
REM seed -1671241335 986048636 1112332201 -431641065 -152799034 -402389976 -1720403242 -213038965 1574549097 -2041620878 730384735 286836076 -414602234 1460533108 69429845 -2033207579 918903764 -769084297 -845096293 -1854658577 -771014426 -1220304772 -1447341714 -1471716180 -48036425 1838783229 -1191267758 -1777651193 -439956033 -1797725386 352008180 -853382653 -2080852855
REM
CELL 1.54180   50.00000   50.00000   50.00000   90.00000   90.00000   90.00000
LATT -1
SFAC C  
C      1  0.4100710000000  0.4971260000000  0.5119120000000 1.0
C      1  0.5409020000000  0.4455400000000  0.5555430000000 1.0
C      1  0.4742440000000  0.4569450000000  0.5217700000000 1.0
C      1  0.5525910000000  0.5576550000000  0.4869600000000 1.0
C      1  0.4646240000000  0.5218250000000  0.4308060000000 1.0
C      1  0.4926980000000  0.4842840000000  0.4494030000000 1.0
C      1  0.4278080000000  0.4439700000000  0.5033230000000 1.0
C      1  0.5255670000000  0.5159340000000  0.4574030000000 1.0
C      1  0.4690280000000  0.5848400000000  0.5161780000000 1.0
C      1  0.4378420000000  0.5212950000000  0.4479290000000 1.0
C      1  0.5099000000000  0.4367850000000  0.5570790000000 1.0
C      1  0.4863410000000  0.4750200000000  0.5795870000000 1.0
C      1  0.4304900000000  0.4657180000000  0.4483370000000 1.0
C      1  0.5589180000000  0.4177300000000  0.5111980000000 1.0
C      1  0.4464420000000  0.5192900000000  0.5213770000000 1.0
C      1  0.5452820000000  0.5431950000000  0.4600720000000 1.0
C      1  0.4943010000000  0.5451170000000  0.4439490000000 1.0
C      1  0.5564160000000  0.5158700000000  0.5588870000000 1.0
C      1  0.5147550000000  0.5869570000000  0.4695340000000 1.0
C      1  0.4889360000000  0.5291640000000  0.5839540000000 1.0
C      1  0.5785410000000  0.5594880000000  0.5308130000000 1.0
C      1  0.5530130000000  0.4926350000000  0.4411060000000 1.0
C      1  0.4612990000000  0.4495230000000  0.5489410000000 1.0
C      1  0.5276160000000  0.4706640000000  0.4870640000000 1.0
C      1  0.4367270000000  0.5447910000000  0.4665540000000 1.0
C      1  0.5261940000000  0.4993240000000  0.4212810000000 1.0
C      1  0.4092250000000  0.5185960000000  0.5358200000000 1.0
C      1  0.4532290000000  0.4801460000000  0.5179100000000 1.0
C      1  0.4518230000000  0.5231470000000  0.4880100000000 1.0
C      1  0.5378180000000  0.4666100000000  0.4302630000000 1.0
C      1  0.4704470000000  0.4235770000000  0.4422210000000 1.0
C      1  0.4416960000000  0.4684410000000  0.5543030000000 1.0
C      1  0.5397460000000  0.5188380000000  0.4943610000000 1.0
C      1  0.4963780000000  0.5786650000000  0.5038060000000 1.0
C      1  0.5245090000000  0.5324680000000  0.5413940000000 1.0
C      1  0.4964720000000  0.4787550000000  0.5277600000000 1.0
C      1  0.5073190000000  0.4589740000000  0.4281740000000 1.0
C      1  0.5301700000000  0.5770890000000  0.4974140000000 1.0
C      1  0.5646700000000  0.4836250000000  0.5518650000000 1.0
C      1  0.5243060000000  0.4254150000000  0.4571060000000 1.0
C      1  0.5118190000000  0.5080370000000  0.5703110000000 1.0
C      1  0.5351370000000  0.4890160000000  0.5649880000000 1.0
C      1  0.4817660000000  0.5450800000000  0.5388600000000 1.0
C      1  0.4235910000000  0.4713080000000  0.5118830000000 1.0
C      1  0.4870270000000  0.4689230000000  0.4095090000000 1.0
C      1  0.5206570000000  0.5386680000000  0.5741130000000 1.0
C      1  0.5707770000000  0.5411310000000  0.5061280000000 1.0
C      1  0.4810790000000  0.4468740000000  0.5685210000000 1.0
C      1  0.5556020000000  0.5650250000000  0.5468080000000 1.0
C      1  0.4991430000000  0.5167990000000  0.4272210000000 1.0
C      1  0.4525050000000  0.4989920000000  0.5454390000000 1.0
C      1  0.4466060000000  0.4370140000000  0.4573950000000 1.0
C      1  0.4579550000000  0.5573580000000  0.5229020000000 1.0
C      1  0.5706670000000  0.4724740000000  0.5013510000000 1.0
C      1  0.4577680000000  0.4664480000000  0.4686200000000 1.0
C      1  0.5462930000000  0.5246470000000  0.4318210000000 1.0
C      1  0.4888430000000  0.4601810000000  0.4730730000000 1.0
C      1  0.4896130000000  0.5138210000000  0.5452100000000 1.0
C      1  0.4498670000000  0.4893270000000  0.4878100000000 1.0
C      1  0.4985250000000  0.5074350000000  0.4740610000000 1.0
C      1  0.5452150000000  0.4441390000000  0.4520540000000 1.0
C      1  0.5113230000000  0.4282350000000  0.5065740000000 1.0
C      1  0.4443250000000  0.5709440000000  0.4712650000000 1.0
C      1  0.4053140000000  0.5366850000000  0.5086730000000 1.0
C      1  0.5462850000000  0.4925080000000  0.5148690000000 1.0
C      1  0.5510080000000  0.5460580000000  0.5676350000000 1.0
C      1  0.5081550000000  0.5323200000000  0.4951760000000 1.0
C      1  0.5158420000000  0.5527690000000  0.4691190000000 1.0
C      1  0.4898290000000  0.5763600000000  0.4511210000000 1.0
C      1  0.5082670000000  0.4161870000000  0.5346460000000 1.0
C      1  0.4763380000000  0.4935280000000  0.4210570000000 1.0
C      1  0.4491780000000  0.4334790000000  0.4892580000000 1.0
C      1  0.5904230000000  0.4674790000000  0.4752980000000 1.0
C      1  0.4183200000000  0.5173820000000  0.4891020000000 1.0
C      1  0.5840510000000  0.4860310000000  0.5259710000000 1.0
C      1  0.5097060000000  0.5532040000000  0.5219820000000 1.0
C      1  0.5460580000000  0.4631690000000  0.5320790000000 1.0
C      1  0.5189200000000  0.5034110000000  0.5313820000000 1.0
C      1  0.5426050000000  0.4922340000000  0.4733820000000 1.0
C      1  0.4810320000000  0.5526310000000  0.5674500000000 1.0
C      1  0.4726620000000  0.5015690000000  0.5720140000000 1.0
C      1  0.4745990000000  0.5248360000000  0.4628130000000 1.0
C      1  0.5029250000000  0.3909580000000  0.5387680000000 1.0
C      1  0.4294650000000  0.5458140000000  0.5305040000000 1.0
C      1  0.5240730000000  0.4126370000000  0.4811850000000 1.0
C      1  0.5410890000000  0.4445650000000  0.5039890000000 1.0
C      1  0.5006220000000  0.4819440000000  0.4963930000000 1.0
C      1  0.4743500000000  0.5726040000000  0.4785770000000 1.0
C      1  0.5903880000000  0.4970960000000  0.4768830000000 1.0
C      1  0.4764970000000  0.5445930000000  0.4974080000000 1.0
C      1  0.5676900000000  0.5153750000000  0.5281120000000 1.0
C      1  0.5728330000000  0.5132200000000  0.4887820000000 1.0
C      1  0.5608050000000  0.4508570000000  0.4769890000000 1.0
C      1  0.4815740000000  0.4386760000000  0.4982600000000 1.0
C      1  0.4292340000000  0.5935260000000  0.4685880000000 1.0
C      1  0.5101850000000  0.4708350000000  0.5560580000000 1.0
C      1  0.5342280000000  0.5749180000000  0.5311120000000 1.0
C      1  0.4978900000000  0.4376810000000  0.4492430000000 1.0
C      1  0.4331030000000  0.4959520000000  0.4588340000000 1.0
END
