TITL C-2848501-3133-170 -0.00263930757378081 125000 -627.789660002606 0 0 124 (C1) n - 1
REM
REM in /home/bkarasulu/work/CARBON/AIRSS/Generating-Clusters/AIREBO/with-SteepDescent/Only-C1/SD-CG-opt/Try1-1.4A-POS3A/HFTN-CG
REM
REM
REM
REM
REM
REM ./C.cell (11c1c37f851c82e70ff6c80c92926a4b)
REM
REM compiler GCC version 9.2.1 20190827 (Red Hat 9.2.1-1)
REM options -cpp -mtune=generic -march=x86-64 -g -O0 -fpre-include=/usr/include/finclude/math-vector-fortran.h
REM seed 341468779 696907281 -1380455460 -853870512 -1672429871 -360284140 -892366375 -1987294062 -1847413448 -620638950 -1410104860 1441193164 -639177639 -1868580007 1986662702 1928003540 -1033575603 -1080942156 -1910148599 1070731597 -78842482 558656057 770598440 836385072 -1979576522 -2037286663 248392251 1603624418 650668730 121705029 1411399031 620115490 946037314
REM
CELL 1.54180   50.00000   50.00000   50.00000   90.00000   90.00000   90.00000
LATT -1
SFAC C  
C      1  0.5292080000000  0.4335240000000  0.5286790000000 1.0
C      1  0.5190370000000  0.3936470000000  0.5396290000000 1.0
C      1  0.4113510000000  0.4794410000000  0.4970060000000 1.0
C      1  0.5507420000000  0.4943480000000  0.5684410000000 1.0
C      1  0.5063370000000  0.5946850000000  0.5033630000000 1.0
C      1  0.4076990000000  0.5183800000000  0.4475240000000 1.0
C      1  0.5882000000000  0.4700290000000  0.5062400000000 1.0
C      1  0.5212490000000  0.5777110000000  0.4534940000000 1.0
C      1  0.5833260000000  0.5280460000000  0.5344590000000 1.0
C      1  0.5447540000000  0.4144380000000  0.4657940000000 1.0
C      1  0.5061380000000  0.4550450000000  0.4172340000000 1.0
C      1  0.4713990000000  0.5594240000000  0.4665830000000 1.0
C      1  0.5245990000000  0.5107390000000  0.5789900000000 1.0
C      1  0.4745800000000  0.5309330000000  0.4944560000000 1.0
C      1  0.5389310000000  0.5062120000000  0.4234150000000 1.0
C      1  0.5551320000000  0.5463980000000  0.5294550000000 1.0
C      1  0.5337580000000  0.4723660000000  0.4766120000000 1.0
C      1  0.4994340000000  0.4759590000000  0.4963750000000 1.0
C      1  0.4915000000000  0.4133870000000  0.5362910000000 1.0
C      1  0.4508240000000  0.4198710000000  0.5060950000000 1.0
C      1  0.4107040000000  0.5184720000000  0.4766190000000 1.0
C      1  0.5363680000000  0.4439080000000  0.5665140000000 1.0
C      1  0.4438720000000  0.4643640000000  0.5647310000000 1.0
C      1  0.4428040000000  0.4538510000000  0.4366790000000 1.0
C      1  0.5045830000000  0.5011590000000  0.5144910000000 1.0
C      1  0.4305810000000  0.4521250000000  0.4619420000000 1.0
C      1  0.4726810000000  0.4396370000000  0.4371690000000 1.0
C      1  0.5042020000000  0.4319180000000  0.4874510000000 1.0
C      1  0.4166480000000  0.4587320000000  0.5235080000000 1.0
C      1  0.4770430000000  0.4866070000000  0.4764720000000 1.0
C      1  0.4874960000000  0.5206680000000  0.4144590000000 1.0
C      1  0.4975020000000  0.4501920000000  0.5805640000000 1.0
C      1  0.4859590000000  0.4205840000000  0.4610690000000 1.0
C      1  0.4687380000000  0.4989560000000  0.5849540000000 1.0
C      1  0.4261330000000  0.4995160000000  0.5579700000000 1.0
C      1  0.5355240000000  0.5810160000000  0.5256920000000 1.0
C      1  0.4481650000000  0.5387060000000  0.4335770000000 1.0
C      1  0.4236400000000  0.5612330000000  0.4800700000000 1.0
C      1  0.4437420000000  0.5207560000000  0.4837750000000 1.0
C      1  0.5189470000000  0.4957570000000  0.4568100000000 1.0
C      1  0.5055940000000  0.4503640000000  0.5418480000000 1.0
C      1  0.4840410000000  0.5334320000000  0.5721280000000 1.0
C      1  0.5504440000000  0.4653290000000  0.5185050000000 1.0
C      1  0.5756240000000  0.5504720000000  0.5026060000000 1.0
C      1  0.4375280000000  0.4992770000000  0.5829940000000 1.0
C      1  0.5201210000000  0.4042320000000  0.4757710000000 1.0
C      1  0.4970990000000  0.5140650000000  0.4753560000000 1.0
C      1  0.5656870000000  0.4610950000000  0.4555200000000 1.0
C      1  0.4994480000000  0.4924330000000  0.4291560000000 1.0
C      1  0.4745190000000  0.5453430000000  0.4237360000000 1.0
C      1  0.4801400000000  0.5743940000000  0.5110140000000 1.0
C      1  0.5799410000000  0.5008420000000  0.5181510000000 1.0
C      1  0.5172280000000  0.4454250000000  0.4413440000000 1.0
C      1  0.5097640000000  0.4240180000000  0.5629360000000 1.0
C      1  0.5040040000000  0.4590450000000  0.4669500000000 1.0
C      1  0.4700930000000  0.4566460000000  0.4661690000000 1.0
C      1  0.5551630000000  0.5757280000000  0.5466620000000 1.0
C      1  0.4456480000000  0.4640170000000  0.5101700000000 1.0
C      1  0.4472960000000  0.5823600000000  0.5147390000000 1.0
C      1  0.4310900000000  0.5161760000000  0.4295220000000 1.0
C      1  0.4364070000000  0.4450560000000  0.5454720000000 1.0
C      1  0.4717430000000  0.5447410000000  0.5253980000000 1.0
C      1  0.4924710000000  0.5954310000000  0.5347240000000 1.0
C      1  0.4970390000000  0.5645900000000  0.4335320000000 1.0
C      1  0.5600360000000  0.4878850000000  0.4846290000000 1.0
C      1  0.5528990000000  0.5026780000000  0.5372950000000 1.0
C      1  0.4690830000000  0.4628120000000  0.5313640000000 1.0
C      1  0.5295520000000  0.5545310000000  0.5724790000000 1.0
C      1  0.4642310000000  0.4888460000000  0.5527860000000 1.0
C      1  0.4684820000000  0.5563180000000  0.5554790000000 1.0
C      1  0.4643270000000  0.4292180000000  0.5337730000000 1.0
C      1  0.4107710000000  0.5174300000000  0.5081690000000 1.0
C      1  0.4483240000000  0.4932600000000  0.5032460000000 1.0
C      1  0.4783720000000  0.5126950000000  0.4465280000000 1.0
C      1  0.5742210000000  0.4505310000000  0.4847200000000 1.0
C      1  0.4981100000000  0.5111360000000  0.5916350000000 1.0
C      1  0.5724510000000  0.5706130000000  0.4767070000000 1.0
C      1  0.5016740000000  0.4780180000000  0.5612400000000 1.0
C      1  0.5373990000000  0.5283670000000  0.5522250000000 1.0
C      1  0.5444880000000  0.5560090000000  0.4640240000000 1.0
C      1  0.4285470000000  0.5384560000000  0.5229260000000 1.0
C      1  0.5084370000000  0.5605320000000  0.5238260000000 1.0
C      1  0.4290430000000  0.5638580000000  0.5065590000000 1.0
C      1  0.5122050000000  0.5668620000000  0.4844260000000 1.0
C      1  0.4755490000000  0.4694110000000  0.4210020000000 1.0
C      1  0.5514480000000  0.4751420000000  0.4279220000000 1.0
C      1  0.4727990000000  0.5072010000000  0.5183110000000 1.0
C      1  0.5238280000000  0.4804000000000  0.4087340000000 1.0
C      1  0.5798710000000  0.4836570000000  0.5598290000000 1.0
C      1  0.5934960000000  0.4934080000000  0.4821280000000 1.0
C      1  0.5376240000000  0.4950910000000  0.5091760000000 1.0
C      1  0.4504790000000  0.4980530000000  0.4593720000000 1.0
C      1  0.4887760000000  0.5822800000000  0.5591860000000 1.0
C      1  0.4453870000000  0.5469710000000  0.4621840000000 1.0
C      1  0.4465940000000  0.5135450000000  0.5374220000000 1.0
C      1  0.5028000000000  0.5601740000000  0.5750610000000 1.0
C      1  0.5279840000000  0.5201290000000  0.4882820000000 1.0
C      1  0.4766860000000  0.5842460000000  0.4786530000000 1.0
C      1  0.4496120000000  0.4441110000000  0.4862410000000 1.0
C      1  0.5343090000000  0.4445900000000  0.4969250000000 1.0
C      1  0.4466080000000  0.4859550000000  0.4278990000000 1.0
C      1  0.5599690000000  0.4229670000000  0.4914120000000 1.0
C      1  0.5635710000000  0.4949250000000  0.4527310000000 1.0
C      1  0.5577580000000  0.4416710000000  0.5433760000000 1.0
C      1  0.5305090000000  0.4710960000000  0.5722670000000 1.0
C      1  0.5241240000000  0.5267620000000  0.4438110000000 1.0
C      1  0.4922500000000  0.4509390000000  0.5129840000000 1.0
C      1  0.5357550000000  0.4055360000000  0.5125140000000 1.0
C      1  0.5434170000000  0.4365500000000  0.4477910000000 1.0
C      1  0.4929170000000  0.5071120000000  0.5525020000000 1.0
C      1  0.5025440000000  0.4032060000000  0.5055890000000 1.0
C      1  0.5097920000000  0.5286020000000  0.5330750000000 1.0
C      1  0.5556680000000  0.5376200000000  0.4371620000000 1.0
C      1  0.4963520000000  0.5978680000000  0.4648920000000 1.0
C      1  0.5328600000000  0.5479900000000  0.5037660000000 1.0
C      1  0.5005010000000  0.5446320000000  0.4608470000000 1.0
C      1  0.5790060000000  0.5222460000000  0.4917250000000 1.0
C      1  0.5552480000000  0.5240030000000  0.4683360000000 1.0
C      1  0.5784430000000  0.4659530000000  0.5375370000000 1.0
C      1  0.4264710000000  0.4783760000000  0.4734120000000 1.0
C      1  0.5482130000000  0.5777940000000  0.4973010000000 1.0
C      1  0.4374690000000  0.5494550000000  0.5523230000000 1.0
C      1  0.4106950000000  0.4918080000000  0.5286750000000 1.0
C      1  0.5783020000000  0.5612160000000  0.4445520000000 1.0
END
