TITL C-2847946-5639-103 -0.00125702309283364 125000 -663.313757974353 0 0 124 (C1) n - 1
REM
REM in /home/bkarasulu/work/CARBON/AIRSS/Generating-Clusters/AIREBO/with-SteepDescent/Only-C1/SD-CG-opt/Try1-1.4A-POS3A/HFTN-CG
REM
REM
REM
REM
REM
REM ./C.cell (11c1c37f851c82e70ff6c80c92926a4b)
REM
REM compiler GCC version 9.2.1 20190827 (Red Hat 9.2.1-1)
REM options -cpp -mtune=generic -march=x86-64 -g -O0 -fpre-include=/usr/include/finclude/math-vector-fortran.h
REM seed 1678802356 -943727864 -717224148 1297658571 -338514471 -779995251 -1205284747 -615687884 1509031236 1567574663 285444758 -206781520 94633782 -2028794619 -523597394 638596785 -2010253231 -1920828070 313788555 -1779428095 -1325654647 -1401840754 99332443 672429615 1363447015 -495088664 -119093345 1357157551 -2070311651 -565531890 349051964 1900622677 -194169198
REM
CELL 1.54180   50.00000   50.00000   50.00000   90.00000   90.00000   90.00000
LATT -1
SFAC C  
C      1  0.5326310000000  0.4738540000000  0.5599960000000 1.0
C      1  0.5101890000000  0.5583360000000  0.4436260000000 1.0
C      1  0.4599510000000  0.4525000000000  0.4680380000000 1.0
C      1  0.5127170000000  0.4976080000000  0.5472210000000 1.0
C      1  0.4933450000000  0.4382650000000  0.4339420000000 1.0
C      1  0.4950590000000  0.5319280000000  0.5891350000000 1.0
C      1  0.4111490000000  0.4586930000000  0.4747740000000 1.0
C      1  0.4715290000000  0.5022630000000  0.5526770000000 1.0
C      1  0.5495900000000  0.4618650000000  0.4108060000000 1.0
C      1  0.4323680000000  0.4565150000000  0.4528270000000 1.0
C      1  0.4213560000000  0.4670630000000  0.5053620000000 1.0
C      1  0.4317710000000  0.5562990000000  0.4977820000000 1.0
C      1  0.5423700000000  0.5545170000000  0.5725540000000 1.0
C      1  0.4331510000000  0.4159880000000  0.4799670000000 1.0
C      1  0.4777280000000  0.5394470000000  0.4123300000000 1.0
C      1  0.5688560000000  0.4786480000000  0.4517100000000 1.0
C      1  0.4768690000000  0.5044440000000  0.5017040000000 1.0
C      1  0.5412730000000  0.5697660000000  0.4359150000000 1.0
C      1  0.5109260000000  0.4899460000000  0.4332410000000 1.0
C      1  0.4640690000000  0.5208950000000  0.4342080000000 1.0
C      1  0.5130310000000  0.5836740000000  0.5018410000000 1.0
C      1  0.5758250000000  0.5688940000000  0.5082680000000 1.0
C      1  0.4687990000000  0.5546350000000  0.5518740000000 1.0
C      1  0.4858450000000  0.5567620000000  0.4673710000000 1.0
C      1  0.4085810000000  0.4625770000000  0.5332010000000 1.0
C      1  0.5701720000000  0.4462480000000  0.5208060000000 1.0
C      1  0.4739870000000  0.4824630000000  0.4758880000000 1.0
C      1  0.4074910000000  0.4894340000000  0.4850920000000 1.0
C      1  0.4673470000000  0.5393020000000  0.5800960000000 1.0
C      1  0.4524000000000  0.5165100000000  0.4813760000000 1.0
C      1  0.5257550000000  0.4806920000000  0.5214200000000 1.0
C      1  0.4866930000000  0.5738210000000  0.5302460000000 1.0
C      1  0.4776250000000  0.4349070000000  0.5700750000000 1.0
C      1  0.4858500000000  0.5039520000000  0.5821370000000 1.0
C      1  0.5275010000000  0.5597400000000  0.5478840000000 1.0
C      1  0.5360240000000  0.5917530000000  0.5255750000000 1.0
C      1  0.5043790000000  0.4028540000000  0.4871580000000 1.0
C      1  0.4809410000000  0.4051470000000  0.4988580000000 1.0
C      1  0.5035530000000  0.4204610000000  0.4513260000000 1.0
C      1  0.5388360000000  0.4950080000000  0.4968410000000 1.0
C      1  0.5374500000000  0.4387250000000  0.4410320000000 1.0
C      1  0.4121410000000  0.5191040000000  0.4453700000000 1.0
C      1  0.4871410000000  0.4874460000000  0.5293170000000 1.0
C      1  0.5899280000000  0.5186970000000  0.4888040000000 1.0
C      1  0.4109700000000  0.4271750000000  0.4749230000000 1.0
C      1  0.5660900000000  0.5471210000000  0.4433160000000 1.0
C      1  0.4106830000000  0.5404240000000  0.4895320000000 1.0
C      1  0.4279720000000  0.4680490000000  0.5525180000000 1.0
C      1  0.5115700000000  0.5829120000000  0.5417510000000 1.0
C      1  0.5548270000000  0.4320540000000  0.5466170000000 1.0
C      1  0.4511520000000  0.4734610000000  0.5135320000000 1.0
C      1  0.4449480000000  0.4604040000000  0.4252390000000 1.0
C      1  0.4643700000000  0.5899160000000  0.5013270000000 1.0
C      1  0.5440050000000  0.5223700000000  0.5488460000000 1.0
C      1  0.5082870000000  0.4984400000000  0.4901440000000 1.0
C      1  0.5203910000000  0.4316240000000  0.4786730000000 1.0
C      1  0.4585930000000  0.4572110000000  0.5424610000000 1.0
C      1  0.5624100000000  0.5235380000000  0.4202620000000 1.0
C      1  0.4671860000000  0.4439850000000  0.4379550000000 1.0
C      1  0.5235580000000  0.4451790000000  0.5441290000000 1.0
C      1  0.4235540000000  0.5189570000000  0.5676710000000 1.0
C      1  0.4733530000000  0.5277630000000  0.4624310000000 1.0
C      1  0.4565630000000  0.4858400000000  0.4212270000000 1.0
C      1  0.4154440000000  0.5067720000000  0.5105970000000 1.0
C      1  0.4627680000000  0.5775190000000  0.4769930000000 1.0
C      1  0.4409680000000  0.4964880000000  0.5514630000000 1.0
C      1  0.5376290000000  0.5613690000000  0.4996820000000 1.0
C      1  0.5093780000000  0.4608410000000  0.5034660000000 1.0
C      1  0.3946060000000  0.5327970000000  0.5144940000000 1.0
C      1  0.4470430000000  0.4300400000000  0.5263640000000 1.0
C      1  0.5022730000000  0.5206180000000  0.4715970000000 1.0
C      1  0.5616890000000  0.5076000000000  0.4471760000000 1.0
C      1  0.5643130000000  0.5761780000000  0.4823870000000 1.0
C      1  0.5062010000000  0.4319020000000  0.5701820000000 1.0
C      1  0.5598030000000  0.5764780000000  0.5308450000000 1.0
C      1  0.5040780000000  0.5402210000000  0.4189390000000 1.0
C      1  0.5175700000000  0.4585130000000  0.4217620000000 1.0
C      1  0.4869140000000  0.5289330000000  0.5442360000000 1.0
C      1  0.5509340000000  0.5236530000000  0.5002020000000 1.0
C      1  0.5657990000000  0.5484770000000  0.5492890000000 1.0
C      1  0.4465580000000  0.5414830000000  0.4128340000000 1.0
C      1  0.4641630000000  0.4181340000000  0.5526510000000 1.0
C      1  0.5696220000000  0.4638070000000  0.4294340000000 1.0
C      1  0.5507870000000  0.4260320000000  0.4652270000000 1.0
C      1  0.5426710000000  0.5552150000000  0.4666210000000 1.0
C      1  0.5266700000000  0.4345350000000  0.5119720000000 1.0
C      1  0.5420010000000  0.5006360000000  0.5749370000000 1.0
C      1  0.5901180000000  0.5048170000000  0.5332430000000 1.0
C      1  0.5429220000000  0.5175390000000  0.4031180000000 1.0
C      1  0.5796270000000  0.5394180000000  0.5093880000000 1.0
C      1  0.4631420000000  0.4611430000000  0.5759350000000 1.0
C      1  0.4918990000000  0.4564810000000  0.5389690000000 1.0
C      1  0.5290290000000  0.5374300000000  0.5222620000000 1.0
C      1  0.4806300000000  0.4929200000000  0.4441910000000 1.0
C      1  0.5790810000000  0.4713700000000  0.5014110000000 1.0
C      1  0.5928980000000  0.5337030000000  0.5380890000000 1.0
C      1  0.5533940000000  0.4699520000000  0.5343500000000 1.0
C      1  0.5061950000000  0.4579490000000  0.3931310000000 1.0
C      1  0.5254450000000  0.4651360000000  0.4742140000000 1.0
C      1  0.4880100000000  0.6045760000000  0.5047480000000 1.0
C      1  0.4537370000000  0.5724900000000  0.5269790000000 1.0
C      1  0.4672270000000  0.4036560000000  0.5242690000000 1.0
C      1  0.4456160000000  0.5407020000000  0.5226720000000 1.0
C      1  0.5578320000000  0.4739650000000  0.4797030000000 1.0
C      1  0.4596830000000  0.4313490000000  0.4946680000000 1.0
C      1  0.5172880000000  0.5155590000000  0.4141710000000 1.0
C      1  0.4797960000000  0.4603770000000  0.5010800000000 1.0
C      1  0.4484950000000  0.5177290000000  0.5843340000000 1.0
C      1  0.4203420000000  0.5164620000000  0.4722550000000 1.0
C      1  0.5814960000000  0.5247230000000  0.4638130000000 1.0
C      1  0.5320850000000  0.4936300000000  0.4564780000000 1.0
C      1  0.5342140000000  0.5244490000000  0.4705340000000 1.0
C      1  0.5178160000000  0.5804350000000  0.4683310000000 1.0
C      1  0.4965340000000  0.5293280000000  0.5140310000000 1.0
C      1  0.4481650000000  0.5067380000000  0.5198510000000 1.0
C      1  0.5133540000000  0.5258280000000  0.5631720000000 1.0
C      1  0.5639580000000  0.4152140000000  0.5640140000000 1.0
C      1  0.4186450000000  0.5267190000000  0.5379490000000 1.0
C      1  0.4913630000000  0.5574880000000  0.5007820000000 1.0
C      1  0.5934730000000  0.4953410000000  0.5061090000000 1.0
C      1  0.5657390000000  0.4968350000000  0.5431810000000 1.0
C      1  0.5564060000000  0.4313920000000  0.4956350000000 1.0
C      1  0.5487640000000  0.5045610000000  0.5996170000000 1.0
C      1  0.4610260000000  0.4862850000000  0.5877460000000 1.0
END
