TITL C-2847950-6905-481 -0.00503699471049681 125000 -901.062755255374 0 0 164 (C1) n - 1
REM
REM in /home/bkarasulu/work/CARBON/AIRSS/Generating-Clusters/AIREBO/with-SteepDescent/Only-C1/SD-CG-opt/Try1-1.4A-POS3A/HFTN-CG
REM
REM
REM
REM
REM
REM ./C.cell (11c1c37f851c82e70ff6c80c92926a4b)
REM
REM compiler GCC version 9.2.1 20190827 (Red Hat 9.2.1-1)
REM options -cpp -mtune=generic -march=x86-64 -g -O0 -fpre-include=/usr/include/finclude/math-vector-fortran.h
REM seed -747140841 851141726 773113014 271461500 733190111 -960759236 1573342014 -1039117864 1209369884 -505406809 690983475 -431548790 -2054507682 1181693547 -1348362783 673382171 -1375041417 785612388 1192471081 -1601520976 1466173052 1985153206 162335143 -1360298639 -1627866994 1224738767 -2111520733 2146737884 -1409087872 -1653301604 1985488600 -1363212604 1989906200
REM
CELL 1.54180   50.00000   50.00000   50.00000   90.00000   90.00000   90.00000
LATT -1
SFAC C  
C      1  0.4949400000000  0.5712850000000  0.4198770000000 1.0
C      1  0.4752380000000  0.5336410000000  0.4843220000000 1.0
C      1  0.4436330000000  0.4593610000000  0.5022880000000 1.0
C      1  0.4844360000000  0.4336960000000  0.5162820000000 1.0
C      1  0.5030290000000  0.5035420000000  0.5431720000000 1.0
C      1  0.5213770000000  0.4555890000000  0.5021130000000 1.0
C      1  0.4606780000000  0.5985320000000  0.5332270000000 1.0
C      1  0.4237650000000  0.5736510000000  0.4675970000000 1.0
C      1  0.5522250000000  0.5484330000000  0.5182640000000 1.0
C      1  0.4092410000000  0.5402860000000  0.5302280000000 1.0
C      1  0.5528210000000  0.4059310000000  0.4522960000000 1.0
C      1  0.4511200000000  0.5098960000000  0.5248750000000 1.0
C      1  0.4064590000000  0.4999830000000  0.5696340000000 1.0
C      1  0.4305370000000  0.5584460000000  0.5416470000000 1.0
C      1  0.6001380000000  0.5271920000000  0.5048460000000 1.0
C      1  0.5474850000000  0.4891940000000  0.5710700000000 1.0
C      1  0.5746550000000  0.4624000000000  0.5183780000000 1.0
C      1  0.5212100000000  0.3960730000000  0.4608740000000 1.0
C      1  0.4636590000000  0.4934690000000  0.5770280000000 1.0
C      1  0.5886330000000  0.4582760000000  0.4694300000000 1.0
C      1  0.4121090000000  0.4567000000000  0.4687080000000 1.0
C      1  0.5798760000000  0.5754690000000  0.4855510000000 1.0
C      1  0.5438190000000  0.5606060000000  0.4770830000000 1.0
C      1  0.5315510000000  0.5239210000000  0.6015630000000 1.0
C      1  0.5073790000000  0.5509710000000  0.4050890000000 1.0
C      1  0.4795920000000  0.5090720000000  0.5074530000000 1.0
C      1  0.4213020000000  0.5035600000000  0.4439060000000 1.0
C      1  0.5281480000000  0.4241330000000  0.5095470000000 1.0
C      1  0.4860140000000  0.5269710000000  0.6009810000000 1.0
C      1  0.4594650000000  0.5131030000000  0.4166370000000 1.0
C      1  0.5939180000000  0.5158600000000  0.5520280000000 1.0
C      1  0.5716370000000  0.5667760000000  0.4585080000000 1.0
C      1  0.4756390000000  0.4855240000000  0.4871950000000 1.0
C      1  0.4293110000000  0.4289320000000  0.5072980000000 1.0
C      1  0.5717680000000  0.4543580000000  0.4413110000000 1.0
C      1  0.5000020000000  0.4645500000000  0.4101730000000 1.0
C      1  0.4206310000000  0.5305630000000  0.4494710000000 1.0
C      1  0.4397840000000  0.4945730000000  0.4241110000000 1.0
C      1  0.4127170000000  0.5479620000000  0.4697470000000 1.0
C      1  0.5751730000000  0.5095820000000  0.4621840000000 1.0
C      1  0.3922230000000  0.5181860000000  0.5093350000000 1.0
C      1  0.4998470000000  0.4369610000000  0.4691390000000 1.0
C      1  0.5030670000000  0.4609250000000  0.5474490000000 1.0
C      1  0.4833790000000  0.4979250000000  0.5970650000000 1.0
C      1  0.3800690000000  0.4482000000000  0.4753990000000 1.0
C      1  0.5949350000000  0.5584580000000  0.5064020000000 1.0
C      1  0.5339400000000  0.4673280000000  0.5524580000000 1.0
C      1  0.4136090000000  0.4801410000000  0.5428590000000 1.0
C      1  0.5076490000000  0.4821350000000  0.5974740000000 1.0
C      1  0.5533950000000  0.4604590000000  0.4917510000000 1.0
C      1  0.5157440000000  0.5271970000000  0.4433300000000 1.0
C      1  0.4529830000000  0.4677860000000  0.4333320000000 1.0
C      1  0.5405250000000  0.4965280000000  0.4373650000000 1.0
C      1  0.4334140000000  0.4499650000000  0.5717060000000 1.0
C      1  0.5127170000000  0.4537900000000  0.5877800000000 1.0
C      1  0.4606060000000  0.4511080000000  0.4745870000000 1.0
C      1  0.4312480000000  0.4872900000000  0.5172460000000 1.0
C      1  0.3975220000000  0.4372420000000  0.5300430000000 1.0
C      1  0.5419200000000  0.4557470000000  0.4309170000000 1.0
C      1  0.4857690000000  0.4435010000000  0.5710110000000 1.0
C      1  0.4996720000000  0.5476290000000  0.4652470000000 1.0
C      1  0.5743500000000  0.5360630000000  0.5708000000000 1.0
C      1  0.5211930000000  0.5800440000000  0.5490900000000 1.0
C      1  0.4784210000000  0.5912680000000  0.4886910000000 1.0
C      1  0.6010730000000  0.4790650000000  0.5240080000000 1.0
C      1  0.4490540000000  0.5734930000000  0.4498940000000 1.0
C      1  0.4547020000000  0.4303790000000  0.5274320000000 1.0
C      1  0.4459700000000  0.4344630000000  0.4326830000000 1.0
C      1  0.4613090000000  0.4637890000000  0.5286940000000 1.0
C      1  0.5539100000000  0.5159840000000  0.5524920000000 1.0
C      1  0.6020670000000  0.5045400000000  0.4633650000000 1.0
C      1  0.5232220000000  0.4476750000000  0.4548270000000 1.0
C      1  0.4916250000000  0.5986360000000  0.4378510000000 1.0
C      1  0.4339160000000  0.4823370000000  0.5791700000000 1.0
C      1  0.4585290000000  0.3970870000000  0.5490180000000 1.0
C      1  0.5100550000000  0.5380360000000  0.5908510000000 1.0
C      1  0.5225570000000  0.4284580000000  0.5665550000000 1.0
C      1  0.5198970000000  0.5536020000000  0.5277370000000 1.0
C      1  0.5727170000000  0.5848050000000  0.5507400000000 1.0
C      1  0.4952810000000  0.5301720000000  0.5288150000000 1.0
C      1  0.4838970000000  0.4717900000000  0.4582090000000 1.0
C      1  0.5459650000000  0.5237110000000  0.4568320000000 1.0
C      1  0.5289440000000  0.4690430000000  0.4103820000000 1.0
C      1  0.4840270000000  0.6028160000000  0.5189290000000 1.0
C      1  0.4884110000000  0.4547110000000  0.4938360000000 1.0
C      1  0.5783120000000  0.5008840000000  0.4057340000000 1.0
C      1  0.6058810000000  0.4919010000000  0.5487030000000 1.0
C      1  0.6066450000000  0.4782150000000  0.4756800000000 1.0
C      1  0.4655140000000  0.5617750000000  0.5007820000000 1.0
C      1  0.5277180000000  0.4200820000000  0.4390620000000 1.0
C      1  0.4131650000000  0.4981730000000  0.4949560000000 1.0
C      1  0.4801260000000  0.5609830000000  0.4439280000000 1.0
C      1  0.5735100000000  0.5229400000000  0.5255890000000 1.0
C      1  0.4452860000000  0.5437700000000  0.4378910000000 1.0
C      1  0.5754940000000  0.4346770000000  0.4899680000000 1.0
C      1  0.5453990000000  0.5849580000000  0.5660010000000 1.0
C      1  0.5337220000000  0.4947880000000  0.5339460000000 1.0
C      1  0.5312060000000  0.4965950000000  0.5955620000000 1.0
C      1  0.5185140000000  0.5461110000000  0.4945860000000 1.0
C      1  0.5146320000000  0.5971370000000  0.4559660000000 1.0
C      1  0.4866290000000  0.5616250000000  0.5274060000000 1.0
C      1  0.4038560000000  0.4465120000000  0.4997060000000 1.0
C      1  0.5102660000000  0.5145290000000  0.4951970000000 1.0
C      1  0.5600450000000  0.5218900000000  0.3959600000000 1.0
C      1  0.5740800000000  0.5050020000000  0.5846740000000 1.0
C      1  0.4779370000000  0.5389220000000  0.5637580000000 1.0
C      1  0.5688910000000  0.4841670000000  0.4251840000000 1.0
C      1  0.4740760000000  0.4203560000000  0.4338290000000 1.0
C      1  0.5708840000000  0.5744170000000  0.5239300000000 1.0
C      1  0.5512910000000  0.4401230000000  0.5505270000000 1.0
C      1  0.4795820000000  0.4505800000000  0.4207820000000 1.0
C      1  0.4319010000000  0.5166500000000  0.5811570000000 1.0
C      1  0.4629620000000  0.5443610000000  0.5938000000000 1.0
C      1  0.5098460000000  0.4839570000000  0.4449830000000 1.0
C      1  0.5689050000000  0.5639480000000  0.5739570000000 1.0
C      1  0.5503310000000  0.5855600000000  0.4992430000000 1.0
C      1  0.5453680000000  0.4452430000000  0.5836220000000 1.0
C      1  0.4623150000000  0.4553340000000  0.5887960000000 1.0
C      1  0.5081520000000  0.4290990000000  0.5366000000000 1.0
C      1  0.6087050000000  0.4942220000000  0.5016470000000 1.0
C      1  0.5380740000000  0.4983990000000  0.4040850000000 1.0
C      1  0.5263470000000  0.6021590000000  0.5040150000000 1.0
C      1  0.4498190000000  0.5386860000000  0.4062170000000 1.0
C      1  0.5319250000000  0.4752300000000  0.4693810000000 1.0
C      1  0.5565120000000  0.5008430000000  0.4877960000000 1.0
C      1  0.4441440000000  0.5414700000000  0.5666890000000 1.0
C      1  0.5080230000000  0.5508560000000  0.5605330000000 1.0
C      1  0.4706660000000  0.5092940000000  0.5519750000000 1.0
C      1  0.4397570000000  0.5785020000000  0.5154080000000 1.0
C      1  0.5819980000000  0.5655020000000  0.4338330000000 1.0
C      1  0.4958950000000  0.5244360000000  0.3995040000000 1.0
C      1  0.4851540000000  0.4817290000000  0.5273440000000 1.0
C      1  0.5553800000000  0.5319480000000  0.4886280000000 1.0
C      1  0.5083790000000  0.6050650000000  0.4823880000000 1.0
C      1  0.5128050000000  0.3995490000000  0.4914690000000 1.0
C      1  0.5150080000000  0.3959600000000  0.5399300000000 1.0
C      1  0.4288410000000  0.4006400000000  0.4951390000000 1.0
C      1  0.5585680000000  0.4324530000000  0.5193950000000 1.0
C      1  0.4571580000000  0.4280470000000  0.5610380000000 1.0
C      1  0.4693740000000  0.5965330000000  0.4578750000000 1.0
C      1  0.4653300000000  0.3988630000000  0.5197820000000 1.0
C      1  0.4477560000000  0.3869350000000  0.4860260000000 1.0
C      1  0.4791910000000  0.3948310000000  0.4890500000000 1.0
C      1  0.4864290000000  0.5153550000000  0.4372380000000 1.0
C      1  0.4996530000000  0.4958590000000  0.4147770000000 1.0
C      1  0.4209760000000  0.4855300000000  0.4691730000000 1.0
C      1  0.6166090000000  0.5247810000000  0.4770980000000 1.0
C      1  0.4113890000000  0.4512010000000  0.5494520000000 1.0
C      1  0.5107430000000  0.5995200000000  0.5268900000000 1.0
C      1  0.4616200000000  0.5210310000000  0.4565240000000 1.0
C      1  0.4899680000000  0.4095120000000  0.4602690000000 1.0
C      1  0.5213780000000  0.3843550000000  0.5182970000000 1.0
C      1  0.4437350000000  0.5374380000000  0.5102870000000 1.0
C      1  0.5325660000000  0.5306400000000  0.4139840000000 1.0
C      1  0.4235820000000  0.5885040000000  0.4906340000000 1.0
C      1  0.5230240000000  0.5708280000000  0.4567210000000 1.0
C      1  0.4362480000000  0.4422990000000  0.4590080000000 1.0
C      1  0.5731670000000  0.4246410000000  0.4581460000000 1.0
C      1  0.5270790000000  0.4890600000000  0.5000850000000 1.0
C      1  0.4615580000000  0.5711220000000  0.5475010000000 1.0
C      1  0.5631100000000  0.4916920000000  0.5171230000000 1.0
C      1  0.4006340000000  0.5100160000000  0.5397600000000 1.0
C      1  0.4147560000000  0.5386990000000  0.4969230000000 1.0
C      1  0.4540840000000  0.4879710000000  0.4607060000000 1.0
END
