TITL C-2848500-1637-284 0.000824630774811014 125000 -938.653320888557 0 0 166 (C1) n - 1
REM
REM in /home/bkarasulu/work/CARBON/AIRSS/Generating-Clusters/AIREBO/with-SteepDescent/Only-C1/SD-CG-opt/Try1-1.4A-POS3A/HFTN-CG
REM
REM
REM
REM
REM
REM ./C.cell (11c1c37f851c82e70ff6c80c92926a4b)
REM
REM compiler GCC version 9.2.1 20190827 (Red Hat 9.2.1-1)
REM options -cpp -mtune=generic -march=x86-64 -g -O0 -fpre-include=/usr/include/finclude/math-vector-fortran.h
REM seed -1147736527 -1328199756 -1595188188 1295602558 -937364342 929813687 -1313583471 1823551774 391510513 1893873800 -1164611136 -1107288306 -1106411426 -1359739163 884002353 653560511 -1285206732 1855371469 -943068686 1369944351 983008813 -506913331 -1918043792 -144302897 1739665343 -219303235 -527657868 -1573164563 638700819 -651560384 -1754519829 322307113 1617899590
REM
CELL 1.54180   50.00000   50.00000   50.00000   90.00000   90.00000   90.00000
LATT -1
SFAC C  
C      1  0.4020230000000  0.5067390000000  0.4746110000000 1.0
C      1  0.4087830000000  0.4748780000000  0.5082950000000 1.0
C      1  0.5172870000000  0.5712670000000  0.5116370000000 1.0
C      1  0.4311980000000  0.5373010000000  0.4187660000000 1.0
C      1  0.5633280000000  0.4264590000000  0.5128440000000 1.0
C      1  0.5855370000000  0.5193950000000  0.5483670000000 1.0
C      1  0.4226170000000  0.5242520000000  0.5652610000000 1.0
C      1  0.4779350000000  0.5277620000000  0.3967520000000 1.0
C      1  0.5410720000000  0.4520910000000  0.5147790000000 1.0
C      1  0.5209210000000  0.5456150000000  0.5530840000000 1.0
C      1  0.5272810000000  0.5440410000000  0.4416540000000 1.0
C      1  0.4600220000000  0.4897600000000  0.4516760000000 1.0
C      1  0.4464900000000  0.5080300000000  0.5149480000000 1.0
C      1  0.4438010000000  0.4959370000000  0.5466190000000 1.0
C      1  0.5989910000000  0.5015620000000  0.4634910000000 1.0
C      1  0.5259610000000  0.4009560000000  0.5003360000000 1.0
C      1  0.5058660000000  0.5713990000000  0.5677750000000 1.0
C      1  0.5931970000000  0.5450840000000  0.5121010000000 1.0
C      1  0.5188040000000  0.6027350000000  0.5212570000000 1.0
C      1  0.6061660000000  0.5249240000000  0.5274050000000 1.0
C      1  0.5651570000000  0.5820470000000  0.4742900000000 1.0
C      1  0.4379400000000  0.5809580000000  0.5028780000000 1.0
C      1  0.4942810000000  0.4169480000000  0.5578700000000 1.0
C      1  0.4724830000000  0.4515680000000  0.5836660000000 1.0
C      1  0.5445910000000  0.4209080000000  0.5432410000000 1.0
C      1  0.4553650000000  0.4216760000000  0.4268650000000 1.0
C      1  0.5206800000000  0.4603790000000  0.4733430000000 1.0
C      1  0.4070550000000  0.4620550000000  0.4768920000000 1.0
C      1  0.5489020000000  0.4734180000000  0.4624240000000 1.0
C      1  0.4376280000000  0.4697630000000  0.5257760000000 1.0
C      1  0.5975760000000  0.4748810000000  0.5147280000000 1.0
C      1  0.4040690000000  0.5341830000000  0.5136700000000 1.0
C      1  0.3838350000000  0.5159860000000  0.5217950000000 1.0
C      1  0.4725540000000  0.5601510000000  0.4337380000000 1.0
C      1  0.5459250000000  0.4859770000000  0.5805950000000 1.0
C      1  0.5717410000000  0.5435390000000  0.5712160000000 1.0
C      1  0.4688670000000  0.6012070000000  0.4625670000000 1.0
C      1  0.4851770000000  0.4088600000000  0.4721500000000 1.0
C      1  0.5602310000000  0.4398540000000  0.4250050000000 1.0
C      1  0.5779350000000  0.5629530000000  0.5274750000000 1.0
C      1  0.4955430000000  0.4384170000000  0.4658030000000 1.0
C      1  0.4870160000000  0.4903510000000  0.5711050000000 1.0
C      1  0.5218760000000  0.4242460000000  0.5183730000000 1.0
C      1  0.4784520000000  0.5914780000000  0.4866140000000 1.0
C      1  0.5003180000000  0.5636070000000  0.4196460000000 1.0
C      1  0.4877620000000  0.5975800000000  0.5172760000000 1.0
C      1  0.5157900000000  0.4691300000000  0.4294840000000 1.0
C      1  0.4727570000000  0.4891420000000  0.5201260000000 1.0
C      1  0.4235650000000  0.5413090000000  0.5358140000000 1.0
C      1  0.5207380000000  0.5743720000000  0.4376220000000 1.0
C      1  0.4824040000000  0.5844310000000  0.5809600000000 1.0
C      1  0.4559830000000  0.4782790000000  0.5730090000000 1.0
C      1  0.4278370000000  0.4970240000000  0.4941020000000 1.0
C      1  0.4829260000000  0.4172650000000  0.4216630000000 1.0
C      1  0.5529420000000  0.5290570000000  0.5137290000000 1.0
C      1  0.4442160000000  0.4763080000000  0.4786100000000 1.0
C      1  0.4558150000000  0.5381750000000  0.5255000000000 1.0
C      1  0.4506680000000  0.5145970000000  0.5978730000000 1.0
C      1  0.4553500000000  0.5817980000000  0.4464100000000 1.0
C      1  0.5203040000000  0.4408220000000  0.5884100000000 1.0
C      1  0.5398740000000  0.5051470000000  0.4651750000000 1.0
C      1  0.4787970000000  0.5588660000000  0.4823490000000 1.0
C      1  0.5202430000000  0.4205780000000  0.5674570000000 1.0
C      1  0.5657260000000  0.4933500000000  0.4250590000000 1.0
C      1  0.5544190000000  0.4052100000000  0.4877950000000 1.0
C      1  0.5365690000000  0.6155500000000  0.4985130000000 1.0
C      1  0.5374450000000  0.4908020000000  0.5418220000000 1.0
C      1  0.4734830000000  0.4994030000000  0.6019360000000 1.0
C      1  0.5125220000000  0.4670710000000  0.5043620000000 1.0
C      1  0.5851970000000  0.5651960000000  0.5537200000000 1.0
C      1  0.5591850000000  0.5510050000000  0.4728310000000 1.0
C      1  0.5188280000000  0.5018420000000  0.5675320000000 1.0
C      1  0.5205230000000  0.5869360000000  0.4627610000000 1.0
C      1  0.5461090000000  0.5605940000000  0.5247180000000 1.0
C      1  0.5472360000000  0.5184690000000  0.4347470000000 1.0
C      1  0.5121240000000  0.4958040000000  0.5200090000000 1.0
C      1  0.4966840000000  0.4028250000000  0.4423050000000 1.0
C      1  0.4321750000000  0.5712520000000  0.4581790000000 1.0
C      1  0.4542930000000  0.5955190000000  0.5196710000000 1.0
C      1  0.3940630000000  0.4826160000000  0.4619780000000 1.0
C      1  0.5051650000000  0.5364540000000  0.5982240000000 1.0
C      1  0.4417310000000  0.4369690000000  0.4462270000000 1.0
C      1  0.5066780000000  0.5205160000000  0.4496860000000 1.0
C      1  0.4977260000000  0.5579470000000  0.5313840000000 1.0
C      1  0.4294330000000  0.4965780000000  0.5838290000000 1.0
C      1  0.3928030000000  0.4902830000000  0.5288440000000 1.0
C      1  0.5279540000000  0.5441390000000  0.4735750000000 1.0
C      1  0.5715860000000  0.5378440000000  0.4476240000000 1.0
C      1  0.5066280000000  0.4524680000000  0.5420690000000 1.0
C      1  0.4523320000000  0.4519000000000  0.5008520000000 1.0
C      1  0.4804220000000  0.5398570000000  0.4573340000000 1.0
C      1  0.5274290000000  0.4073530000000  0.4446470000000 1.0
C      1  0.5239730000000  0.4670810000000  0.3964370000000 1.0
C      1  0.5727570000000  0.4639460000000  0.4772400000000 1.0
C      1  0.5876870000000  0.4371800000000  0.4664910000000 1.0
C      1  0.5385080000000  0.4599100000000  0.5477700000000 1.0
C      1  0.4217360000000  0.5867640000000  0.4800740000000 1.0
C      1  0.5051210000000  0.5205480000000  0.5422570000000 1.0
C      1  0.4624820000000  0.4247200000000  0.5185800000000 1.0
C      1  0.4964350000000  0.4370500000000  0.4058550000000 1.0
C      1  0.5301550000000  0.4372090000000  0.4102980000000 1.0
C      1  0.5427970000000  0.5997170000000  0.4752650000000 1.0
C      1  0.5912510000000  0.4927100000000  0.4352330000000 1.0
C      1  0.4734030000000  0.5783860000000  0.5418210000000 1.0
C      1  0.5025460000000  0.5273770000000  0.4888300000000 1.0
C      1  0.4558050000000  0.5719380000000  0.5687230000000 1.0
C      1  0.4966550000000  0.4552790000000  0.5981130000000 1.0
C      1  0.5646580000000  0.5009480000000  0.5288720000000 1.0
C      1  0.5311070000000  0.5124000000000  0.4971830000000 1.0
C      1  0.4380040000000  0.4664090000000  0.4403950000000 1.0
C      1  0.4312840000000  0.4907800000000  0.4186880000000 1.0
C      1  0.5297180000000  0.5820060000000  0.5459220000000 1.0
C      1  0.5597270000000  0.4785890000000  0.5037290000000 1.0
C      1  0.4991690000000  0.4822620000000  0.6082610000000 1.0
C      1  0.5528590000000  0.4056560000000  0.4559530000000 1.0
C      1  0.5967990000000  0.5287920000000  0.4513530000000 1.0
C      1  0.5042290000000  0.3901910000000  0.4882390000000 1.0
C      1  0.4832300000000  0.4787570000000  0.4315160000000 1.0
C      1  0.5853970000000  0.5154190000000  0.5809120000000 1.0
C      1  0.5118370000000  0.5090870000000  0.5986300000000 1.0
C      1  0.4699080000000  0.4279310000000  0.5685270000000 1.0
C      1  0.4215380000000  0.4412360000000  0.4910750000000 1.0
C      1  0.5370170000000  0.4333330000000  0.4798750000000 1.0
C      1  0.4510070000000  0.5534510000000  0.4961560000000 1.0
C      1  0.4848140000000  0.4561080000000  0.4902420000000 1.0
C      1  0.5854390000000  0.4981170000000  0.4929780000000 1.0
C      1  0.4437440000000  0.5187100000000  0.4443200000000 1.0
C      1  0.4722120000000  0.4846550000000  0.4894080000000 1.0
C      1  0.4616950000000  0.5240360000000  0.5558620000000 1.0
C      1  0.4105490000000  0.4896150000000  0.5500620000000 1.0
C      1  0.4783220000000  0.5096680000000  0.4728410000000 1.0
C      1  0.4105220000000  0.5321910000000  0.4867800000000 1.0
C      1  0.4395500000000  0.4264420000000  0.4728070000000 1.0
C      1  0.5153130000000  0.4379320000000  0.4408830000000 1.0
C      1  0.4922990000000  0.4789700000000  0.5419220000000 1.0
C      1  0.4351780000000  0.5407290000000  0.4688470000000 1.0
C      1  0.4540300000000  0.5415830000000  0.5826770000000 1.0
C      1  0.4570940000000  0.5073480000000  0.4151230000000 1.0
C      1  0.4852280000000  0.4624370000000  0.4045910000000 1.0
C      1  0.4877430000000  0.5317870000000  0.5156960000000 1.0
C      1  0.5806580000000  0.4751980000000  0.5443200000000 1.0
C      1  0.4570290000000  0.5470490000000  0.4107800000000 1.0
C      1  0.5126060000000  0.4889830000000  0.4565900000000 1.0
C      1  0.5497040000000  0.4687590000000  0.4319520000000 1.0
C      1  0.5884380000000  0.4455400000000  0.5000920000000 1.0
C      1  0.4923950000000  0.4261490000000  0.5282790000000 1.0
C      1  0.5718750000000  0.4905140000000  0.5720590000000 1.0
C      1  0.4178830000000  0.4673190000000  0.5707400000000 1.0
C      1  0.4068270000000  0.4794030000000  0.4363180000000 1.0
C      1  0.4327680000000  0.4512050000000  0.5505910000000 1.0
C      1  0.5243930000000  0.5185320000000  0.4094270000000 1.0
C      1  0.5714560000000  0.4245730000000  0.4459940000000 1.0
C      1  0.5688820000000  0.4447290000000  0.5459350000000 1.0
C      1  0.5432600000000  0.5486710000000  0.5763340000000 1.0
C      1  0.4260800000000  0.5643530000000  0.5588490000000 1.0
C      1  0.4855380000000  0.5442650000000  0.5715620000000 1.0
C      1  0.4595960000000  0.4135980000000  0.4872310000000 1.0
C      1  0.6175780000000  0.5014500000000  0.5179110000000 1.0
C      1  0.4807020000000  0.4946120000000  0.3951270000000 1.0
C      1  0.5094460000000  0.5667410000000  0.4841550000000 1.0
C      1  0.5394470000000  0.4585030000000  0.5799570000000 1.0
C      1  0.5133760000000  0.4947250000000  0.3988890000000 1.0
C      1  0.5059130000000  0.5404490000000  0.4035230000000 1.0
C      1  0.5287230000000  0.5521550000000  0.5992990000000 1.0
C      1  0.5761570000000  0.5306680000000  0.4910120000000 1.0
C      1  0.4498280000000  0.4292450000000  0.5485780000000 1.0
END
