TITL C-2848495-5024-407 -0.000620004594848077 125000 -799.185912814715 0 0 145 (C1) n - 1
REM
REM in /home/bkarasulu/work/CARBON/AIRSS/Generating-Clusters/AIREBO/with-SteepDescent/Only-C1/SD-CG-opt/Try1-1.4A-POS3A/HFTN-CG
REM
REM
REM
REM
REM
REM ./C.cell (11c1c37f851c82e70ff6c80c92926a4b)
REM
REM compiler GCC version 9.2.1 20190827 (Red Hat 9.2.1-1)
REM options -cpp -mtune=generic -march=x86-64 -g -O0 -fpre-include=/usr/include/finclude/math-vector-fortran.h
REM seed 404472216 126037071 1760018953 -1973744034 1650082604 -741041949 584700392 1834958487 -217285852 1782164389 -845090396 1352926202 -225527878 -1700776492 -318118401 1498568446 1210808951 -453279443 743169371 1298374486 -1863275358 -601308515 -796026411 950044950 2006099845 1516111489 -1805387214 -451700000 881380046 706125643 1507836647 1510198320 -849280707
REM
CELL 1.54180   50.00000   50.00000   50.00000   90.00000   90.00000   90.00000
LATT -1
SFAC C  
C      1  0.4207490000000  0.4595640000000  0.4511450000000 1.0
C      1  0.4506300000000  0.5214050000000  0.4507720000000 1.0
C      1  0.4509210000000  0.4273900000000  0.4888490000000 1.0
C      1  0.6074840000000  0.5442810000000  0.5032210000000 1.0
C      1  0.4930980000000  0.5020740000000  0.4742210000000 1.0
C      1  0.4902510000000  0.5057820000000  0.5226800000000 1.0
C      1  0.4805830000000  0.4479610000000  0.4606430000000 1.0
C      1  0.4607560000000  0.5329980000000  0.4056600000000 1.0
C      1  0.4434770000000  0.5197360000000  0.4989070000000 1.0
C      1  0.4475170000000  0.4722010000000  0.5893880000000 1.0
C      1  0.5042110000000  0.4845410000000  0.4322170000000 1.0
C      1  0.4179110000000  0.5304390000000  0.4296400000000 1.0
C      1  0.4607870000000  0.4069410000000  0.5135780000000 1.0
C      1  0.5028800000000  0.5689850000000  0.4155130000000 1.0
C      1  0.5177760000000  0.5128130000000  0.4950280000000 1.0
C      1  0.4888860000000  0.4435990000000  0.5052030000000 1.0
C      1  0.4876770000000  0.4530840000000  0.5758700000000 1.0
C      1  0.5716670000000  0.4458640000000  0.5498040000000 1.0
C      1  0.5311480000000  0.5436410000000  0.4738680000000 1.0
C      1  0.4463240000000  0.5641400000000  0.5678390000000 1.0
C      1  0.4812510000000  0.5034330000000  0.6062200000000 1.0
C      1  0.5524050000000  0.4140150000000  0.5117450000000 1.0
C      1  0.4554030000000  0.5955020000000  0.5199590000000 1.0
C      1  0.5584040000000  0.5494600000000  0.5434800000000 1.0
C      1  0.5408220000000  0.5224290000000  0.6095070000000 1.0
C      1  0.5533890000000  0.4884820000000  0.5467880000000 1.0
C      1  0.5087160000000  0.4270020000000  0.4928990000000 1.0
C      1  0.5941970000000  0.4699630000000  0.4623780000000 1.0
C      1  0.5145380000000  0.4125430000000  0.5508990000000 1.0
C      1  0.5979360000000  0.5029850000000  0.5208120000000 1.0
C      1  0.5195860000000  0.4920850000000  0.4609550000000 1.0
C      1  0.5224270000000  0.4555990000000  0.5737380000000 1.0
C      1  0.4753020000000  0.5570440000000  0.4218360000000 1.0
C      1  0.4744860000000  0.5664280000000  0.5539870000000 1.0
C      1  0.4325330000000  0.5341420000000  0.4063520000000 1.0
C      1  0.5503780000000  0.5151050000000  0.4065800000000 1.0
C      1  0.4550120000000  0.4665550000000  0.4249770000000 1.0
C      1  0.4576650000000  0.5508550000000  0.4969960000000 1.0
C      1  0.5879230000000  0.4484870000000  0.5199870000000 1.0
C      1  0.4268340000000  0.5459100000000  0.4546550000000 1.0
C      1  0.5236670000000  0.4411750000000  0.5429060000000 1.0
C      1  0.5843660000000  0.4551470000000  0.4913600000000 1.0
C      1  0.5352330000000  0.5197310000000  0.4562900000000 1.0
C      1  0.4719410000000  0.5088880000000  0.4000630000000 1.0
C      1  0.4694680000000  0.5888680000000  0.4931490000000 1.0
C      1  0.4792600000000  0.5396990000000  0.4732090000000 1.0
C      1  0.5725590000000  0.5117510000000  0.5358050000000 1.0
C      1  0.5080210000000  0.4404070000000  0.4180010000000 1.0
C      1  0.5766770000000  0.4397970000000  0.4620100000000 1.0
C      1  0.4206700000000  0.5530620000000  0.5301310000000 1.0
C      1  0.4260470000000  0.4954360000000  0.5446910000000 1.0
C      1  0.4475890000000  0.5736050000000  0.4738020000000 1.0
C      1  0.4926560000000  0.5697530000000  0.5007610000000 1.0
C      1  0.5751360000000  0.4208090000000  0.5294010000000 1.0
C      1  0.6028510000000  0.5164660000000  0.4958760000000 1.0
C      1  0.5353430000000  0.5048750000000  0.5230700000000 1.0
C      1  0.4227050000000  0.4523170000000  0.5210840000000 1.0
C      1  0.4851890000000  0.4774080000000  0.5046390000000 1.0
C      1  0.5768050000000  0.5011030000000  0.3979080000000 1.0
C      1  0.5331250000000  0.4046330000000  0.4949680000000 1.0
C      1  0.5646000000000  0.4938070000000  0.4278770000000 1.0
C      1  0.5629800000000  0.5024520000000  0.4594160000000 1.0
C      1  0.5089660000000  0.4860940000000  0.5670290000000 1.0
C      1  0.4288830000000  0.5447030000000  0.5561040000000 1.0
C      1  0.4811200000000  0.5916290000000  0.5350570000000 1.0
C      1  0.4619290000000  0.5761160000000  0.4431310000000 1.0
C      1  0.4715140000000  0.4531060000000  0.5328470000000 1.0
C      1  0.4984600000000  0.4583710000000  0.3991660000000 1.0
C      1  0.5170560000000  0.5642530000000  0.5453180000000 1.0
C      1  0.4198170000000  0.5071470000000  0.4539440000000 1.0
C      1  0.5020530000000  0.4656830000000  0.5409360000000 1.0
C      1  0.4509750000000  0.4567560000000  0.5059900000000 1.0
C      1  0.4907870000000  0.4058280000000  0.5550140000000 1.0
C      1  0.5167340000000  0.5954830000000  0.4680280000000 1.0
C      1  0.5389040000000  0.3955440000000  0.4687680000000 1.0
C      1  0.4781740000000  0.5056490000000  0.5506910000000 1.0
C      1  0.5520730000000  0.4639680000000  0.5593020000000 1.0
C      1  0.4399790000000  0.4525620000000  0.5693590000000 1.0
C      1  0.5310170000000  0.4459370000000  0.5999340000000 1.0
C      1  0.5188760000000  0.5526300000000  0.3991110000000 1.0
C      1  0.5162240000000  0.4715690000000  0.5123900000000 1.0
C      1  0.5442130000000  0.4444960000000  0.5208460000000 1.0
C      1  0.5139540000000  0.5781100000000  0.4393690000000 1.0
C      1  0.5594350000000  0.5862060000000  0.5250890000000 1.0
C      1  0.4792000000000  0.4808810000000  0.4121210000000 1.0
C      1  0.4206320000000  0.5547940000000  0.4825010000000 1.0
C      1  0.4814040000000  0.5342790000000  0.5919120000000 1.0
C      1  0.4807770000000  0.5317820000000  0.4408440000000 1.0
C      1  0.4670460000000  0.4201280000000  0.5398120000000 1.0
C      1  0.4243100000000  0.4627950000000  0.5476320000000 1.0
C      1  0.5562200000000  0.5188900000000  0.5849750000000 1.0
C      1  0.4151500000000  0.5117850000000  0.4841450000000 1.0
C      1  0.4080150000000  0.5355200000000  0.5075100000000 1.0
C      1  0.4694550000000  0.4670320000000  0.4793580000000 1.0
C      1  0.5271060000000  0.5277870000000  0.4092240000000 1.0
C      1  0.4889570000000  0.4237980000000  0.4382340000000 1.0
C      1  0.4072600000000  0.5058570000000  0.5225700000000 1.0
C      1  0.4372880000000  0.4772190000000  0.6140770000000 1.0
C      1  0.5071590000000  0.5974120000000  0.5253090000000 1.0
C      1  0.5752470000000  0.5217460000000  0.5668770000000 1.0
C      1  0.4580010000000  0.4380860000000  0.4384190000000 1.0
C      1  0.4841450000000  0.5353860000000  0.5604210000000 1.0
C      1  0.5982570000000  0.5009220000000  0.3821670000000 1.0
C      1  0.5970870000000  0.5675590000000  0.4905150000000 1.0
C      1  0.4563890000000  0.5119130000000  0.5834010000000 1.0
C      1  0.4612770000000  0.4940310000000  0.4665370000000 1.0
C      1  0.5342760000000  0.5870850000000  0.5364660000000 1.0
C      1  0.4781820000000  0.5527100000000  0.5240480000000 1.0
C      1  0.3992470000000  0.4869180000000  0.4997760000000 1.0
C      1  0.4389240000000  0.4836390000000  0.4450730000000 1.0
C      1  0.5673920000000  0.4669660000000  0.4416780000000 1.0
C      1  0.5625220000000  0.4800290000000  0.4836130000000 1.0
C      1  0.6083250000000  0.5477820000000  0.5320330000000 1.0
C      1  0.4477880000000  0.4904050000000  0.5097140000000 1.0
C      1  0.5312760000000  0.4155740000000  0.4487790000000 1.0
C      1  0.5050780000000  0.5578010000000  0.4648100000000 1.0
C      1  0.5545190000000  0.5323670000000  0.5156180000000 1.0
C      1  0.5439810000000  0.4464320000000  0.4553520000000 1.0
C      1  0.4067790000000  0.4456740000000  0.4759850000000 1.0
C      1  0.5152040000000  0.4681440000000  0.4799140000000 1.0
C      1  0.4760470000000  0.5154970000000  0.4968860000000 1.0
C      1  0.5728810000000  0.5786890000000  0.4991670000000 1.0
C      1  0.5116970000000  0.4548770000000  0.4488020000000 1.0
C      1  0.4327130000000  0.5180310000000  0.5652540000000 1.0
C      1  0.4040190000000  0.4595120000000  0.5004700000000 1.0
C      1  0.4767360000000  0.4852270000000  0.5778520000000 1.0
C      1  0.5052990000000  0.5344840000000  0.5338090000000 1.0
C      1  0.4387940000000  0.5705050000000  0.5173410000000 1.0
C      1  0.4356900000000  0.4322350000000  0.4631580000000 1.0
C      1  0.5098050000000  0.5180780000000  0.4329590000000 1.0
C      1  0.5021610000000  0.4109880000000  0.4659120000000 1.0
C      1  0.4845160000000  0.5851010000000  0.4648240000000 1.0
C      1  0.5343090000000  0.5262320000000  0.5495120000000 1.0
C      1  0.5474980000000  0.4763310000000  0.5091580000000 1.0
C      1  0.4645040000000  0.4363470000000  0.5682740000000 1.0
C      1  0.5473830000000  0.5598900000000  0.4975170000000 1.0
C      1  0.5939790000000  0.5021730000000  0.4733860000000 1.0
C      1  0.5114100000000  0.5434300000000  0.5015590000000 1.0
C      1  0.5248910000000  0.5099060000000  0.5752360000000 1.0
C      1  0.5879270000000  0.5451630000000  0.5513620000000 1.0
C      1  0.4575640000000  0.4835130000000  0.5401960000000 1.0
C      1  0.4758900000000  0.4063390000000  0.4833200000000 1.0
C      1  0.5224580000000  0.5830360000000  0.4984910000000 1.0
C      1  0.5363860000000  0.4439710000000  0.4886450000000 1.0
C      1  0.5096000000000  0.5208230000000  0.6028590000000 1.0
END
