TITL C-2847955-7945-256 0.135073450936722 125000 -291.689848468297 0 0 53 (C1) n - 1
REM
REM in /home/bkarasulu/work/CARBON/AIRSS/Generating-Clusters/AIREBO/with-SteepDescent/Only-C1/SD-CG-opt/Try1-1.4A-POS3A/HFTN-CG
REM
REM
REM
REM
REM
REM ./C.cell (11c1c37f851c82e70ff6c80c92926a4b)
REM
REM compiler GCC version 9.2.1 20190827 (Red Hat 9.2.1-1)
REM options -cpp -mtune=generic -march=x86-64 -g -O0 -fpre-include=/usr/include/finclude/math-vector-fortran.h
REM seed -557214540 -1261235104 -238584983 -848133258 -1434742889 1117427829 -1300601045 38660485 -6229314 -765263825 -2033387890 -2006539459 -564883756 -823105079 -1931590969 -782324491 -1314486636 1995712151 232090967 -1510246036 218923082 1412178323 952099841 -1903557115 1359306025 -993416328 1914493848 -1963389050 731996185 -537082461 1265824142 -2045202248 -567099674
REM
CELL 1.54180   50.00000   50.00000   50.00000   90.00000   90.00000   90.00000
LATT -1
SFAC C  
C      1  0.5487960000000  0.4977650000000  0.5532850000000 1.0
C      1  0.5208310000000  0.4886220000000  0.5611840000000 1.0
C      1  0.4830460000000  0.4387270000000  0.4868230000000 1.0
C      1  0.5096090000000  0.4961550000000  0.4492590000000 1.0
C      1  0.4881480000000  0.4944230000000  0.4984590000000 1.0
C      1  0.4865920000000  0.5392780000000  0.5586580000000 1.0
C      1  0.5599640000000  0.5240690000000  0.5035730000000 1.0
C      1  0.5529170000000  0.5237980000000  0.5364320000000 1.0
C      1  0.5583690000000  0.5470470000000  0.5500300000000 1.0
C      1  0.4522640000000  0.5276280000000  0.5156300000000 1.0
C      1  0.5087730000000  0.5614790000000  0.4577910000000 1.0
C      1  0.4820060000000  0.4495980000000  0.4601890000000 1.0
C      1  0.5026710000000  0.5195440000000  0.4807290000000 1.0
C      1  0.5154050000000  0.4212620000000  0.5221680000000 1.0
C      1  0.5087180000000  0.4318710000000  0.4971210000000 1.0
C      1  0.5679620000000  0.5240040000000  0.4786310000000 1.0
C      1  0.4615920000000  0.4938820000000  0.4777660000000 1.0
C      1  0.5655110000000  0.4777770000000  0.5453430000000 1.0
C      1  0.4772890000000  0.4634730000000  0.5560690000000 1.0
C      1  0.4707830000000  0.4927280000000  0.5463370000000 1.0
C      1  0.4840520000000  0.5383160000000  0.5098940000000 1.0
C      1  0.4484170000000  0.5690960000000  0.4897440000000 1.0
C      1  0.4746180000000  0.5523170000000  0.5376420000000 1.0
C      1  0.5320610000000  0.4466900000000  0.4844760000000 1.0
C      1  0.5158790000000  0.5878220000000  0.4585510000000 1.0
C      1  0.4905910000000  0.5491780000000  0.4787220000000 1.0
C      1  0.5550250000000  0.4306010000000  0.4807630000000 1.0
C      1  0.4518320000000  0.5324380000000  0.4538950000000 1.0
C      1  0.4997350000000  0.4647600000000  0.5730870000000 1.0
C      1  0.4462930000000  0.5057170000000  0.5383050000000 1.0
C      1  0.4352170000000  0.4999930000000  0.5074640000000 1.0
C      1  0.5276880000000  0.4323820000000  0.5439740000000 1.0
C      1  0.5216940000000  0.4596040000000  0.4561050000000 1.0
C      1  0.4287600000000  0.5004010000000  0.4758180000000 1.0
C      1  0.5135320000000  0.4816690000000  0.4797690000000 1.0
C      1  0.4976760000000  0.5095070000000  0.5508050000000 1.0
C      1  0.5389030000000  0.4754620000000  0.5007430000000 1.0
C      1  0.5249900000000  0.4546340000000  0.5594700000000 1.0
C      1  0.5049860000000  0.5143580000000  0.5202600000000 1.0
C      1  0.4848850000000  0.4745750000000  0.4517750000000 1.0
C      1  0.4614520000000  0.5525330000000  0.4703620000000 1.0
C      1  0.5326740000000  0.5173350000000  0.4437970000000 1.0
C      1  0.5339890000000  0.5067200000000  0.5133170000000 1.0
C      1  0.4658250000000  0.4523140000000  0.5047230000000 1.0
C      1  0.4509900000000  0.5597200000000  0.5164070000000 1.0
C      1  0.4709820000000  0.5053070000000  0.4471350000000 1.0
C      1  0.4957320000000  0.5204050000000  0.4293610000000 1.0
C      1  0.5634640000000  0.4689300000000  0.5196270000000 1.0
C      1  0.5584100000000  0.5179690000000  0.4538000000000 1.0
C      1  0.4455330000000  0.4701840000000  0.4945110000000 1.0
C      1  0.4812240000000  0.4713880000000  0.5229400000000 1.0
C      1  0.4256180000000  0.5218410000000  0.4591290000000 1.0
C      1  0.5160280000000  0.5427010000000  0.4381510000000 1.0
END
