TITL C-2847947-6848-493 -0.000200960198107395 125000 -454.184810711531 0 0 83 (C1) n - 1
REM
REM in /home/bkarasulu/work/CARBON/AIRSS/Generating-Clusters/AIREBO/with-SteepDescent/Only-C1/SD-CG-opt/Try1-1.4A-POS3A/HFTN-CG
REM
REM
REM
REM
REM
REM ./C.cell (11c1c37f851c82e70ff6c80c92926a4b)
REM
REM compiler GCC version 9.2.1 20190827 (Red Hat 9.2.1-1)
REM options -cpp -mtune=generic -march=x86-64 -g -O0 -fpre-include=/usr/include/finclude/math-vector-fortran.h
REM seed -227851502 -1083261185 1035496661 -349542941 -1576026347 1632454628 -1390095566 903849646 1155523401 472140975 -333297627 -1889952558 -1276254560 1511632539 1949376191 71985597 226940916 838228624 575170924 694388079 463523431 1538555865 1835169157 1667307693 -359291864 -98176609 1579283328 -370168363 -621578637 -1885017413 -576030581 797781663 737479914
REM
CELL 1.54180   50.00000   50.00000   50.00000   90.00000   90.00000   90.00000
LATT -1
SFAC C  
C      1  0.4917180000000  0.4222040000000  0.4667560000000 1.0
C      1  0.4905710000000  0.4244370000000  0.5509120000000 1.0
C      1  0.5679980000000  0.5145890000000  0.4479610000000 1.0
C      1  0.5436500000000  0.4722510000000  0.4416700000000 1.0
C      1  0.5138520000000  0.5064930000000  0.4120760000000 1.0
C      1  0.4813220000000  0.5125850000000  0.5269750000000 1.0
C      1  0.5410230000000  0.4898990000000  0.5341880000000 1.0
C      1  0.4831890000000  0.5615730000000  0.5617880000000 1.0
C      1  0.4707250000000  0.4451360000000  0.5578340000000 1.0
C      1  0.5320170000000  0.5125630000000  0.4847520000000 1.0
C      1  0.4417130000000  0.5430820000000  0.5368070000000 1.0
C      1  0.5685460000000  0.5408490000000  0.5095760000000 1.0
C      1  0.4360710000000  0.5083610000000  0.4444530000000 1.0
C      1  0.5006000000000  0.4842910000000  0.5067200000000 1.0
C      1  0.4225970000000  0.4931450000000  0.5066170000000 1.0
C      1  0.4871790000000  0.4246220000000  0.5057150000000 1.0
C      1  0.5041850000000  0.5344250000000  0.4390240000000 1.0
C      1  0.4558520000000  0.5443390000000  0.5635300000000 1.0
C      1  0.5341620000000  0.4593810000000  0.5647730000000 1.0
C      1  0.4689160000000  0.4601140000000  0.5056570000000 1.0
C      1  0.4311800000000  0.5012890000000  0.4773760000000 1.0
C      1  0.5429960000000  0.5582440000000  0.5490860000000 1.0
C      1  0.4408450000000  0.4949180000000  0.5578390000000 1.0
C      1  0.5299120000000  0.5227510000000  0.4556300000000 1.0
C      1  0.5102340000000  0.5689060000000  0.5419490000000 1.0
C      1  0.5756630000000  0.5037350000000  0.4968970000000 1.0
C      1  0.4652240000000  0.4954500000000  0.5707790000000 1.0
C      1  0.5114600000000  0.4989070000000  0.5348700000000 1.0
C      1  0.5206600000000  0.5375390000000  0.5339690000000 1.0
C      1  0.5028750000000  0.4768510000000  0.4675270000000 1.0
C      1  0.4625980000000  0.5703310000000  0.4664500000000 1.0
C      1  0.4624260000000  0.5492500000000  0.4405060000000 1.0
C      1  0.5487460000000  0.5158180000000  0.5761150000000 1.0
C      1  0.5153180000000  0.5297530000000  0.5059380000000 1.0
C      1  0.4832690000000  0.5739180000000  0.5218360000000 1.0
C      1  0.5756140000000  0.4568600000000  0.5197510000000 1.0
C      1  0.4469430000000  0.5584730000000  0.4884010000000 1.0
C      1  0.5574490000000  0.5309730000000  0.5534660000000 1.0
C      1  0.4579460000000  0.4280440000000  0.5106670000000 1.0
C      1  0.4932950000000  0.5067180000000  0.4554540000000 1.0
C      1  0.4856580000000  0.4580480000000  0.4368130000000 1.0
C      1  0.4567600000000  0.4568340000000  0.4740600000000 1.0
C      1  0.5476640000000  0.4584350000000  0.5355690000000 1.0
C      1  0.4594130000000  0.4876830000000  0.4693340000000 1.0
C      1  0.5460510000000  0.5435180000000  0.4857370000000 1.0
C      1  0.5695200000000  0.5214830000000  0.4747800000000 1.0
C      1  0.4517940000000  0.5622600000000  0.5163460000000 1.0
C      1  0.4813720000000  0.5426950000000  0.5335660000000 1.0
C      1  0.4585040000000  0.4877160000000  0.5226220000000 1.0
C      1  0.5152810000000  0.4770370000000  0.5734790000000 1.0
C      1  0.4238740000000  0.4680720000000  0.5212310000000 1.0
C      1  0.4442250000000  0.5301550000000  0.4794850000000 1.0
C      1  0.5737510000000  0.4735400000000  0.4915140000000 1.0
C      1  0.4862540000000  0.5273770000000  0.4973620000000 1.0
C      1  0.5637200000000  0.4673740000000  0.4604290000000 1.0
C      1  0.5200540000000  0.4310280000000  0.4615590000000 1.0
C      1  0.5233620000000  0.5034260000000  0.5744450000000 1.0
C      1  0.5218250000000  0.5080170000000  0.3854570000000 1.0
C      1  0.5222070000000  0.5667130000000  0.4860880000000 1.0
C      1  0.4578260000000  0.5210300000000  0.4303680000000 1.0
C      1  0.4850770000000  0.5072860000000  0.4167300000000 1.0
C      1  0.4859500000000  0.4730590000000  0.5637400000000 1.0
C      1  0.5325340000000  0.4361490000000  0.5166920000000 1.0
C      1  0.4490660000000  0.4601080000000  0.5401600000000 1.0
C      1  0.5174760000000  0.4578040000000  0.4455830000000 1.0
C      1  0.5369660000000  0.4314470000000  0.4837290000000 1.0
C      1  0.4757770000000  0.5327360000000  0.4670700000000 1.0
C      1  0.5141930000000  0.5819040000000  0.5101350000000 1.0
C      1  0.5062010000000  0.4211100000000  0.5263650000000 1.0
C      1  0.5629570000000  0.5125690000000  0.5272210000000 1.0
C      1  0.4759600000000  0.5213280000000  0.5694580000000 1.0
C      1  0.4777050000000  0.4974310000000  0.4907300000000 1.0
C      1  0.4712970000000  0.4410920000000  0.4551110000000 1.0
C      1  0.5038800000000  0.5215720000000  0.5587600000000 1.0
C      1  0.5439840000000  0.4612580000000  0.4958600000000 1.0
C      1  0.4948780000000  0.5611530000000  0.4672020000000 1.0
C      1  0.5254890000000  0.5561910000000  0.4539820000000 1.0
C      1  0.4948450000000  0.4500040000000  0.4861000000000 1.0
C      1  0.4901550000000  0.4663400000000  0.5314910000000 1.0
C      1  0.5253550000000  0.4836100000000  0.4893710000000 1.0
C      1  0.4367570000000  0.5129410000000  0.5295000000000 1.0
C      1  0.4738330000000  0.4855200000000  0.4391470000000 1.0
C      1  0.5400110000000  0.5018760000000  0.4333300000000 1.0
END
