TITL C-2848495-5024-68 -0.00138690283560127 125000 -918.726775110637 0 0 168 (C1) n - 1
REM
REM in /home/bkarasulu/work/CARBON/AIRSS/Generating-Clusters/AIREBO/with-SteepDescent/Only-C1/SD-CG-opt/Try1-1.4A-POS3A/HFTN-CG
REM
REM
REM
REM
REM
REM ./C.cell (11c1c37f851c82e70ff6c80c92926a4b)
REM
REM compiler GCC version 9.2.1 20190827 (Red Hat 9.2.1-1)
REM options -cpp -mtune=generic -march=x86-64 -g -O0 -fpre-include=/usr/include/finclude/math-vector-fortran.h
REM seed 496368049 1009904673 1250152316 711206046 -1979858801 333698620 549732404 -274596452 -1462958253 -397116810 1837617646 -1823354918 -1105878714 1674269238 -1601041139 -405411184 -209927951 83365551 384722615 744708070 -1036824021 730583497 -1776035728 2070685428 -897087752 -1764244279 1322509682 884564114 2087407875 359537270 675559242 -878420000 246012549
REM
CELL 1.54180   50.00000   50.00000   50.00000   90.00000   90.00000   90.00000
LATT -1
SFAC C  
C      1  0.4976500000000  0.5558920000000  0.5081420000000 1.0
C      1  0.5351830000000  0.5706170000000  0.4129310000000 1.0
C      1  0.5903970000000  0.4816670000000  0.4581810000000 1.0
C      1  0.5038720000000  0.4612660000000  0.4481380000000 1.0
C      1  0.3954720000000  0.5327760000000  0.5134830000000 1.0
C      1  0.4916650000000  0.5367600000000  0.5920430000000 1.0
C      1  0.4627670000000  0.4021760000000  0.4855760000000 1.0
C      1  0.5287340000000  0.4954600000000  0.5449770000000 1.0
C      1  0.4394930000000  0.5662940000000  0.4750060000000 1.0
C      1  0.4658000000000  0.5759010000000  0.4360480000000 1.0
C      1  0.5265300000000  0.6014020000000  0.4782500000000 1.0
C      1  0.5320390000000  0.4485310000000  0.4113340000000 1.0
C      1  0.4613830000000  0.4284940000000  0.4343640000000 1.0
C      1  0.5405710000000  0.4736240000000  0.3988740000000 1.0
C      1  0.5416840000000  0.4945690000000  0.4202280000000 1.0
C      1  0.5443520000000  0.4315260000000  0.4564130000000 1.0
C      1  0.5341120000000  0.5562970000000  0.5471190000000 1.0
C      1  0.5094840000000  0.5664900000000  0.4239500000000 1.0
C      1  0.6174800000000  0.3877830000000  0.4956200000000 1.0
C      1  0.4387270000000  0.5351210000000  0.4885690000000 1.0
C      1  0.5701120000000  0.5662960000000  0.5783650000000 1.0
C      1  0.5015550000000  0.4691610000000  0.5096610000000 1.0
C      1  0.6028890000000  0.4752710000000  0.5422860000000 1.0
C      1  0.4253120000000  0.4683290000000  0.5214970000000 1.0
C      1  0.4977360000000  0.4585980000000  0.5921520000000 1.0
C      1  0.4499060000000  0.4933320000000  0.4191230000000 1.0
C      1  0.4556700000000  0.5143010000000  0.5396740000000 1.0
C      1  0.5660100000000  0.5457040000000  0.4928630000000 1.0
C      1  0.5015210000000  0.4463670000000  0.4088470000000 1.0
C      1  0.4039810000000  0.5241890000000  0.5452900000000 1.0
C      1  0.4790500000000  0.4577070000000  0.5522200000000 1.0
C      1  0.4355400000000  0.4457980000000  0.4763190000000 1.0
C      1  0.5311620000000  0.4406090000000  0.5456460000000 1.0
C      1  0.5099260000000  0.4302620000000  0.4355630000000 1.0
C      1  0.4750990000000  0.4707720000000  0.4533610000000 1.0
C      1  0.4284140000000  0.5691080000000  0.5493190000000 1.0
C      1  0.4413060000000  0.5117420000000  0.5836670000000 1.0
C      1  0.5136170000000  0.5541260000000  0.4530910000000 1.0
C      1  0.4436530000000  0.5824540000000  0.5045020000000 1.0
C      1  0.4037780000000  0.5059640000000  0.4651880000000 1.0
C      1  0.5281440000000  0.5173970000000  0.5675510000000 1.0
C      1  0.5175320000000  0.5108660000000  0.5194740000000 1.0
C      1  0.5619560000000  0.4797850000000  0.5297100000000 1.0
C      1  0.4644150000000  0.6052760000000  0.5158480000000 1.0
C      1  0.4494560000000  0.5443980000000  0.5474540000000 1.0
C      1  0.4983190000000  0.4412540000000  0.4929920000000 1.0
C      1  0.5336120000000  0.4413840000000  0.5117040000000 1.0
C      1  0.4153340000000  0.4582300000000  0.4559470000000 1.0
C      1  0.4818670000000  0.4648250000000  0.4065450000000 1.0
C      1  0.5594560000000  0.4810200000000  0.4440850000000 1.0
C      1  0.5145770000000  0.5963660000000  0.5370480000000 1.0
C      1  0.4013010000000  0.4636620000000  0.4978720000000 1.0
C      1  0.4693280000000  0.5416530000000  0.4049570000000 1.0
C      1  0.5087960000000  0.4029060000000  0.4901450000000 1.0
C      1  0.4324000000000  0.4830650000000  0.5799470000000 1.0
C      1  0.5105780000000  0.5618250000000  0.5789760000000 1.0
C      1  0.5208250000000  0.5214140000000  0.5955500000000 1.0
C      1  0.5366500000000  0.4049150000000  0.4509820000000 1.0
C      1  0.4745070000000  0.4036640000000  0.4537330000000 1.0
C      1  0.4751110000000  0.6197940000000  0.4909320000000 1.0
C      1  0.5575320000000  0.4486450000000  0.4338320000000 1.0
C      1  0.5331930000000  0.4901670000000  0.4764140000000 1.0
C      1  0.5611350000000  0.5662160000000  0.4661750000000 1.0
C      1  0.6029590000000  0.5162180000000  0.5105590000000 1.0
C      1  0.4850180000000  0.4824780000000  0.5904050000000 1.0
C      1  0.6039060000000  0.4104780000000  0.4999800000000 1.0
C      1  0.4203770000000  0.4247430000000  0.5290830000000 1.0
C      1  0.4031140000000  0.4497140000000  0.5351110000000 1.0
C      1  0.5484580000000  0.5171650000000  0.6019470000000 1.0
C      1  0.4757290000000  0.4895220000000  0.5009670000000 1.0
C      1  0.4825340000000  0.5505970000000  0.6169010000000 1.0
C      1  0.4827920000000  0.5225610000000  0.3892810000000 1.0
C      1  0.4709160000000  0.5385500000000  0.5118320000000 1.0
C      1  0.4270810000000  0.5284870000000  0.5635960000000 1.0
C      1  0.5045790000000  0.4050010000000  0.4566410000000 1.0
C      1  0.4823110000000  0.4143590000000  0.5063150000000 1.0
C      1  0.5156140000000  0.5353680000000  0.4882320000000 1.0
C      1  0.4738270000000  0.4523060000000  0.5135460000000 1.0
C      1  0.4813330000000  0.4923330000000  0.5605240000000 1.0
C      1  0.5917090000000  0.4322090000000  0.5197290000000 1.0
C      1  0.4676420000000  0.4033160000000  0.5804080000000 1.0
C      1  0.5322830000000  0.5619170000000  0.4793660000000 1.0
C      1  0.4699510000000  0.6004340000000  0.5490850000000 1.0
C      1  0.5314250000000  0.4109570000000  0.5042460000000 1.0
C      1  0.5004820000000  0.5106100000000  0.4303920000000 1.0
C      1  0.4225260000000  0.5033380000000  0.4366360000000 1.0
C      1  0.4872980000000  0.4139260000000  0.6039730000000 1.0
C      1  0.4696360000000  0.5109070000000  0.5937610000000 1.0
C      1  0.4337690000000  0.4952800000000  0.4760610000000 1.0
C      1  0.5199330000000  0.4870030000000  0.4452490000000 1.0
C      1  0.4821150000000  0.4976800000000  0.4072840000000 1.0
C      1  0.5276110000000  0.5272040000000  0.4384040000000 1.0
C      1  0.4686660000000  0.5560730000000  0.4608310000000 1.0
C      1  0.3997000000000  0.4746910000000  0.4723030000000 1.0
C      1  0.5915400000000  0.5408240000000  0.5345000000000 1.0
C      1  0.5446810000000  0.4593180000000  0.4849340000000 1.0
C      1  0.4169440000000  0.4355530000000  0.5005900000000 1.0
C      1  0.5059590000000  0.4415380000000  0.5638430000000 1.0
C      1  0.4559250000000  0.4730340000000  0.4786490000000 1.0
C      1  0.4930470000000  0.5678270000000  0.4766250000000 1.0
C      1  0.5899740000000  0.5537550000000  0.5065300000000 1.0
C      1  0.4775530000000  0.5271270000000  0.4493700000000 1.0
C      1  0.4963350000000  0.5997660000000  0.4737560000000 1.0
C      1  0.5560310000000  0.4898690000000  0.5616360000000 1.0
C      1  0.5440260000000  0.5233250000000  0.4088760000000 1.0
C      1  0.5313300000000  0.5258950000000  0.3809430000000 1.0
C      1  0.4078750000000  0.5557390000000  0.4682590000000 1.0
C      1  0.5945900000000  0.5151000000000  0.5826570000000 1.0
C      1  0.4937080000000  0.4400030000000  0.6135300000000 1.0
C      1  0.4387260000000  0.5238180000000  0.4582290000000 1.0
C      1  0.5726430000000  0.4267960000000  0.4154870000000 1.0
C      1  0.5184230000000  0.4453040000000  0.4713540000000 1.0
C      1  0.4203150000000  0.5751840000000  0.5240230000000 1.0
C      1  0.4639700000000  0.5669580000000  0.5265350000000 1.0
C      1  0.4879900000000  0.5162940000000  0.5291960000000 1.0
C      1  0.5040160000000  0.5507360000000  0.5411790000000 1.0
C      1  0.4449260000000  0.3994420000000  0.5651250000000 1.0
C      1  0.5711730000000  0.5506680000000  0.4408450000000 1.0
C      1  0.5465530000000  0.5280440000000  0.5145180000000 1.0
C      1  0.5570450000000  0.4422010000000  0.5562480000000 1.0
C      1  0.5535580000000  0.5284060000000  0.5478190000000 1.0
C      1  0.4180550000000  0.5518390000000  0.5066700000000 1.0
C      1  0.5727400000000  0.5857860000000  0.5366410000000 1.0
C      1  0.4898860000000  0.5256860000000  0.5599350000000 1.0
C      1  0.4819410000000  0.5005120000000  0.4636940000000 1.0
C      1  0.4003000000000  0.4977960000000  0.5314480000000 1.0
C      1  0.6138650000000  0.4935740000000  0.5297470000000 1.0
C      1  0.5810100000000  0.4527040000000  0.5375350000000 1.0
C      1  0.4656040000000  0.6092130000000  0.4623610000000 1.0
C      1  0.4541200000000  0.5256320000000  0.4279100000000 1.0
C      1  0.5836360000000  0.5650620000000  0.5526880000000 1.0
C      1  0.6284720000000  0.3643740000000  0.4913580000000 1.0
C      1  0.4218960000000  0.4966320000000  0.5068330000000 1.0
C      1  0.4257050000000  0.3816930000000  0.5714200000000 1.0
C      1  0.4947080000000  0.5790220000000  0.5576290000000 1.0
C      1  0.5894460000000  0.4364150000000  0.4891020000000 1.0
C      1  0.4509570000000  0.4633570000000  0.5338970000000 1.0
C      1  0.4910510000000  0.5863180000000  0.5186650000000 1.0
C      1  0.4206550000000  0.4639110000000  0.5946020000000 1.0
C      1  0.3875370000000  0.4738310000000  0.5400010000000 1.0
C      1  0.4972450000000  0.4132280000000  0.5735420000000 1.0
C      1  0.5543840000000  0.5505450000000  0.4187610000000 1.0
C      1  0.5675200000000  0.5147860000000  0.5757240000000 1.0
C      1  0.3968460000000  0.5321590000000  0.4794940000000 1.0
C      1  0.5774580000000  0.5099600000000  0.5321620000000 1.0
C      1  0.4526740000000  0.5110650000000  0.5074810000000 1.0
C      1  0.4241840000000  0.4575740000000  0.4306540000000 1.0
C      1  0.5496180000000  0.5115420000000  0.4556860000000 1.0
C      1  0.5953750000000  0.5090880000000  0.4781440000000 1.0
C      1  0.5044580000000  0.5032580000000  0.4890220000000 1.0
C      1  0.5800470000000  0.4873160000000  0.4954730000000 1.0
C      1  0.5425690000000  0.5825990000000  0.5312700000000 1.0
C      1  0.4820990000000  0.5651890000000  0.4152200000000 1.0
C      1  0.5909310000000  0.4570760000000  0.4390460000000 1.0
C      1  0.5756220000000  0.4599480000000  0.4797870000000 1.0
C      1  0.5483210000000  0.5962210000000  0.4619740000000 1.0
C      1  0.4513320000000  0.4862940000000  0.5546020000000 1.0
C      1  0.5735000000000  0.5283940000000  0.4658410000000 1.0
C      1  0.4703670000000  0.4286580000000  0.5352720000000 1.0
C      1  0.4485190000000  0.4226440000000  0.4643760000000 1.0
C      1  0.5052640000000  0.5255900000000  0.3732810000000 1.0
C      1  0.5292040000000  0.4728730000000  0.5228640000000 1.0
C      1  0.5315420000000  0.5845600000000  0.5029240000000 1.0
C      1  0.4434660000000  0.4158960000000  0.5427510000000 1.0
C      1  0.4570350000000  0.4612020000000  0.4276670000000 1.0
C      1  0.5412810000000  0.5640920000000  0.5777410000000 1.0
C      1  0.5520860000000  0.4988570000000  0.5033230000000 1.0
C      1  0.4416620000000  0.5966170000000  0.4601200000000 1.0
END
