TITL C-2848500-1637-21 -0.00771945981055882 125000 -603.409278907802 0 0 106 (C1) n - 1
REM
REM in /home/bkarasulu/work/CARBON/AIRSS/Generating-Clusters/AIREBO/with-SteepDescent/Only-C1/SD-CG-opt/Try1-1.4A-POS3A/HFTN-CG
REM
REM
REM
REM
REM
REM ./C.cell (11c1c37f851c82e70ff6c80c92926a4b)
REM
REM compiler GCC version 9.2.1 20190827 (Red Hat 9.2.1-1)
REM options -cpp -mtune=generic -march=x86-64 -g -O0 -fpre-include=/usr/include/finclude/math-vector-fortran.h
REM seed 487550331 -1868106938 1901769679 -1588083457 566341209 -1222514646 1430137249 -1083799954 1974825673 1052228282 2102499745 -1010102243 1963983658 789607842 2035035732 1029925087 -476373982 849913044 486685037 253857211 -1218351464 1941117341 -453971331 -1446135023 -66433242 1704288020 -19914694 1591334907 688896061 -1446152565 -1818682424 1015350732 2047657289
REM
CELL 1.54180   50.00000   50.00000   50.00000   90.00000   90.00000   90.00000
LATT -1
SFAC C  
C      1  0.4601150000000  0.4180770000000  0.5200550000000 1.0
C      1  0.4547280000000  0.5838880000000  0.5155260000000 1.0
C      1  0.5577340000000  0.4430500000000  0.5171600000000 1.0
C      1  0.5627430000000  0.5391060000000  0.4938870000000 1.0
C      1  0.4764690000000  0.5226750000000  0.4940960000000 1.0
C      1  0.4342910000000  0.5662060000000  0.5105970000000 1.0
C      1  0.4605600000000  0.5381530000000  0.5720870000000 1.0
C      1  0.5359700000000  0.4555790000000  0.5570820000000 1.0
C      1  0.5301880000000  0.5035970000000  0.4041260000000 1.0
C      1  0.5401210000000  0.5837300000000  0.5094360000000 1.0
C      1  0.5051020000000  0.5620250000000  0.4299540000000 1.0
C      1  0.5022100000000  0.4773400000000  0.4906210000000 1.0
C      1  0.5442450000000  0.4571900000000  0.4974960000000 1.0
C      1  0.4637950000000  0.4831980000000  0.3943240000000 1.0
C      1  0.5821300000000  0.4815660000000  0.5211520000000 1.0
C      1  0.5829290000000  0.4942550000000  0.4960470000000 1.0
C      1  0.4717630000000  0.5086120000000  0.5797440000000 1.0
C      1  0.4788790000000  0.4840020000000  0.5317460000000 1.0
C      1  0.5069760000000  0.5294320000000  0.4891940000000 1.0
C      1  0.5312800000000  0.4979250000000  0.5262220000000 1.0
C      1  0.4540120000000  0.5136250000000  0.4491080000000 1.0
C      1  0.5027570000000  0.5077430000000  0.5744410000000 1.0
C      1  0.5092500000000  0.4206300000000  0.4960110000000 1.0
C      1  0.5504060000000  0.5273690000000  0.4182100000000 1.0
C      1  0.5088170000000  0.5544480000000  0.5064890000000 1.0
C      1  0.4566960000000  0.5323540000000  0.4723740000000 1.0
C      1  0.4638560000000  0.4645770000000  0.5110880000000 1.0
C      1  0.4572730000000  0.4304860000000  0.5454600000000 1.0
C      1  0.5187490000000  0.4206200000000  0.5278260000000 1.0
C      1  0.4988140000000  0.5354860000000  0.4502580000000 1.0
C      1  0.4827970000000  0.4341490000000  0.5559120000000 1.0
C      1  0.4213580000000  0.4511970000000  0.4902730000000 1.0
C      1  0.4734660000000  0.4912340000000  0.4927860000000 1.0
C      1  0.5240400000000  0.4365960000000  0.4698700000000 1.0
C      1  0.4410930000000  0.5333050000000  0.5144680000000 1.0
C      1  0.5362340000000  0.5229070000000  0.5036660000000 1.0
C      1  0.4562910000000  0.5094280000000  0.5312670000000 1.0
C      1  0.5549300000000  0.5492120000000  0.5446220000000 1.0
C      1  0.5021050000000  0.5048200000000  0.4538420000000 1.0
C      1  0.4163780000000  0.4995310000000  0.5439250000000 1.0
C      1  0.5502360000000  0.5053570000000  0.4620290000000 1.0
C      1  0.5032160000000  0.4189550000000  0.4245420000000 1.0
C      1  0.4854050000000  0.4642830000000  0.4385640000000 1.0
C      1  0.5585840000000  0.5623420000000  0.5146400000000 1.0
C      1  0.4130110000000  0.4754560000000  0.4755240000000 1.0
C      1  0.5187380000000  0.4848220000000  0.5550050000000 1.0
C      1  0.5382830000000  0.4540450000000  0.4398620000000 1.0
C      1  0.4599320000000  0.5637020000000  0.4619250000000 1.0
C      1  0.5357950000000  0.5571050000000  0.5704710000000 1.0
C      1  0.4937150000000  0.4640980000000  0.5542930000000 1.0
C      1  0.4224420000000  0.5225420000000  0.4902720000000 1.0
C      1  0.5290410000000  0.5318510000000  0.4654110000000 1.0
C      1  0.5623140000000  0.4952880000000  0.5400340000000 1.0
C      1  0.5623490000000  0.5278150000000  0.4436710000000 1.0
C      1  0.4161590000000  0.4871720000000  0.5199530000000 1.0
C      1  0.5353010000000  0.5081140000000  0.5828930000000 1.0
C      1  0.5582240000000  0.5132860000000  0.5754650000000 1.0
C      1  0.4728210000000  0.5440800000000  0.5202780000000 1.0
C      1  0.5080760000000  0.4415470000000  0.4402590000000 1.0
C      1  0.4119180000000  0.4976000000000  0.4939330000000 1.0
C      1  0.4328480000000  0.4611470000000  0.5178000000000 1.0
C      1  0.4390780000000  0.4517250000000  0.5466040000000 1.0
C      1  0.4608070000000  0.4788330000000  0.5864080000000 1.0
C      1  0.5070130000000  0.4835400000000  0.4206430000000 1.0
C      1  0.4867100000000  0.5729690000000  0.4564250000000 1.0
C      1  0.4994470000000  0.5077740000000  0.5286530000000 1.0
C      1  0.4370940000000  0.4353050000000  0.4740160000000 1.0
C      1  0.4758070000000  0.4896980000000  0.4591210000000 1.0
C      1  0.5865320000000  0.5219190000000  0.5011870000000 1.0
C      1  0.4826590000000  0.5733430000000  0.5059430000000 1.0
C      1  0.5565750000000  0.4751670000000  0.5634810000000 1.0
C      1  0.4332430000000  0.5534470000000  0.4809610000000 1.0
C      1  0.5398620000000  0.4358940000000  0.5372740000000 1.0
C      1  0.5828610000000  0.4537680000000  0.5227230000000 1.0
C      1  0.5182960000000  0.5330040000000  0.4163980000000 1.0
C      1  0.5257090000000  0.5896510000000  0.5358250000000 1.0
C      1  0.4389660000000  0.4709500000000  0.5666370000000 1.0
C      1  0.5252080000000  0.4754510000000  0.5042140000000 1.0
C      1  0.5138080000000  0.5390100000000  0.5695730000000 1.0
C      1  0.4587460000000  0.5506170000000  0.5505350000000 1.0
C      1  0.4791800000000  0.4352430000000  0.5023180000000 1.0
C      1  0.4820880000000  0.4615570000000  0.5845020000000 1.0
C      1  0.4302830000000  0.4678000000000  0.4520450000000 1.0
C      1  0.4444090000000  0.5036550000000  0.5601310000000 1.0
C      1  0.5656970000000  0.4844500000000  0.4760270000000 1.0
C      1  0.5236220000000  0.5558580000000  0.5326740000000 1.0
C      1  0.5728360000000  0.5248660000000  0.5488830000000 1.0
C      1  0.5305800000000  0.5853470000000  0.5649880000000 1.0
C      1  0.5007460000000  0.4141470000000  0.5480880000000 1.0
C      1  0.4845750000000  0.4557110000000  0.4783710000000 1.0
C      1  0.5955180000000  0.5272980000000  0.5268200000000 1.0
C      1  0.5527060000000  0.4549470000000  0.4680580000000 1.0
C      1  0.5398980000000  0.5631090000000  0.4676220000000 1.0
C      1  0.4488450000000  0.3947310000000  0.5116160000000 1.0
C      1  0.5296230000000  0.4944390000000  0.4427860000000 1.0
C      1  0.4267300000000  0.5107200000000  0.4361160000000 1.0
C      1  0.4992520000000  0.5822180000000  0.4798220000000 1.0
C      1  0.4604380000000  0.4529840000000  0.4578960000000 1.0
C      1  0.4792840000000  0.4939090000000  0.4125110000000 1.0
C      1  0.4749870000000  0.5182500000000  0.4277730000000 1.0
C      1  0.5063660000000  0.3933070000000  0.4874090000000 1.0
C      1  0.4867800000000  0.5409080000000  0.4123270000000 1.0
C      1  0.5457730000000  0.4769930000000  0.4184750000000 1.0
C      1  0.5654230000000  0.5482020000000  0.4628970000000 1.0
C      1  0.4986840000000  0.5357550000000  0.5402410000000 1.0
C      1  0.5272950000000  0.5815980000000  0.4837120000000 1.0
END
