TITL C-2847953-8112-422 0.00116367747438619 125000 -954.805597003089 0 0 182 (C1) n - 1
REM
REM in /home/bkarasulu/work/CARBON/AIRSS/Generating-Clusters/AIREBO/with-SteepDescent/Only-C1/SD-CG-opt/Try1-1.4A-POS3A/HFTN-CG
REM
REM
REM
REM
REM
REM ./C.cell (11c1c37f851c82e70ff6c80c92926a4b)
REM
REM compiler GCC version 9.2.1 20190827 (Red Hat 9.2.1-1)
REM options -cpp -mtune=generic -march=x86-64 -g -O0 -fpre-include=/usr/include/finclude/math-vector-fortran.h
REM seed 725466787 -1584421186 -709191319 -2056796733 -383474217 -629375717 232136143 -1463308791 -1618615461 258704055 -1018717078 297189882 -1881265547 873519418 1406154793 58768615 1119854441 1401726891 783800714 506619424 -59487936 -534279876 -211766296 -357582266 188173801 -1075568525 -1393758848 149175131 -678131411 2009949827 -649354688 -1405611714 -387678289
REM
CELL 1.54180   50.00000   50.00000   50.00000   90.00000   90.00000   90.00000
LATT -1
SFAC C  
C      1  0.5740920000000  0.3999870000000  0.5073900000000 1.0
C      1  0.5362180000000  0.4075830000000  0.5687290000000 1.0
C      1  0.5579850000000  0.5585360000000  0.5609270000000 1.0
C      1  0.4534760000000  0.4727770000000  0.4413520000000 1.0
C      1  0.5248670000000  0.6038790000000  0.4679710000000 1.0
C      1  0.4674770000000  0.5841020000000  0.5595220000000 1.0
C      1  0.4959790000000  0.4980860000000  0.5131870000000 1.0
C      1  0.5793090000000  0.5499420000000  0.5228500000000 1.0
C      1  0.6062290000000  0.5335620000000  0.5149570000000 1.0
C      1  0.4181210000000  0.4314900000000  0.5364860000000 1.0
C      1  0.4761840000000  0.4483100000000  0.4193260000000 1.0
C      1  0.4298150000000  0.4759780000000  0.5699480000000 1.0
C      1  0.3968970000000  0.5228500000000  0.5331540000000 1.0
C      1  0.5435330000000  0.4748780000000  0.5968880000000 1.0
C      1  0.4922280000000  0.6036390000000  0.5245140000000 1.0
C      1  0.4913050000000  0.5864690000000  0.5450320000000 1.0
C      1  0.5824830000000  0.4525980000000  0.4526390000000 1.0
C      1  0.4957130000000  0.4997190000000  0.4815700000000 1.0
C      1  0.5858080000000  0.4262480000000  0.5103080000000 1.0
C      1  0.4690890000000  0.5948690000000  0.4479520000000 1.0
C      1  0.4709960000000  0.3921920000000  0.5035610000000 1.0
C      1  0.5699990000000  0.4704040000000  0.5514060000000 1.0
C      1  0.5239020000000  0.4346940000000  0.4208570000000 1.0
C      1  0.4353960000000  0.5599180000000  0.5373120000000 1.0
C      1  0.5243210000000  0.4595940000000  0.4637340000000 1.0
C      1  0.5275940000000  0.5880830000000  0.5142310000000 1.0
C      1  0.4564580000000  0.5003120000000  0.5929870000000 1.0
C      1  0.4951910000000  0.6171180000000  0.4770980000000 1.0
C      1  0.5953090000000  0.5151440000000  0.4961530000000 1.0
C      1  0.5361890000000  0.5388160000000  0.5156580000000 1.0
C      1  0.5464450000000  0.5265150000000  0.5817740000000 1.0
C      1  0.4944470000000  0.5121750000000  0.5952160000000 1.0
C      1  0.5525920000000  0.4781100000000  0.4923210000000 1.0
C      1  0.4997550000000  0.4800400000000  0.4140840000000 1.0
C      1  0.5504840000000  0.4801930000000  0.4245420000000 1.0
C      1  0.4884260000000  0.4057440000000  0.5546630000000 1.0
C      1  0.3649130000000  0.5042640000000  0.4923240000000 1.0
C      1  0.4275730000000  0.4215560000000  0.4704180000000 1.0
C      1  0.4330800000000  0.5345170000000  0.4969670000000 1.0
C      1  0.4658410000000  0.4151290000000  0.4629610000000 1.0
C      1  0.4075880000000  0.5292700000000  0.4556560000000 1.0
C      1  0.4763200000000  0.6197980000000  0.4566600000000 1.0
C      1  0.5310220000000  0.5820820000000  0.5785300000000 1.0
C      1  0.6175300000000  0.5197380000000  0.5370930000000 1.0
C      1  0.4394380000000  0.5227870000000  0.4656850000000 1.0
C      1  0.5197440000000  0.4082970000000  0.4501810000000 1.0
C      1  0.5468040000000  0.4193440000000  0.4392240000000 1.0
C      1  0.5528730000000  0.5147270000000  0.4703150000000 1.0
C      1  0.5287940000000  0.4922610000000  0.4012920000000 1.0
C      1  0.4896980000000  0.3932790000000  0.4524650000000 1.0
C      1  0.5917770000000  0.4233160000000  0.4463400000000 1.0
C      1  0.5224900000000  0.4033860000000  0.5066100000000 1.0
C      1  0.5544280000000  0.6045040000000  0.4737280000000 1.0
C      1  0.4931000000000  0.4044240000000  0.5238780000000 1.0
C      1  0.5722600000000  0.4706950000000  0.4024670000000 1.0
C      1  0.5052620000000  0.4534040000000  0.4362170000000 1.0
C      1  0.4374730000000  0.5539840000000  0.5694800000000 1.0
C      1  0.5459360000000  0.4218550000000  0.4898950000000 1.0
C      1  0.5993730000000  0.4683630000000  0.5367210000000 1.0
C      1  0.4900070000000  0.5818180000000  0.4297460000000 1.0
C      1  0.4561750000000  0.5008250000000  0.5530980000000 1.0
C      1  0.5488630000000  0.4876190000000  0.5308990000000 1.0
C      1  0.4459890000000  0.4334300000000  0.5148750000000 1.0
C      1  0.4717950000000  0.4712110000000  0.4961090000000 1.0
C      1  0.5438760000000  0.5440480000000  0.6029870000000 1.0
C      1  0.4963600000000  0.4667970000000  0.5158710000000 1.0
C      1  0.4364380000000  0.4145350000000  0.5596070000000 1.0
C      1  0.4973000000000  0.3943250000000  0.4856340000000 1.0
C      1  0.4849940000000  0.4167120000000  0.4282820000000 1.0
C      1  0.5745700000000  0.5098190000000  0.5806330000000 1.0
C      1  0.5505120000000  0.4527190000000  0.4445740000000 1.0
C      1  0.4563950000000  0.5326860000000  0.4077730000000 1.0
C      1  0.3919620000000  0.5009050000000  0.4634600000000 1.0
C      1  0.4521640000000  0.5066130000000  0.4386080000000 1.0
C      1  0.5588730000000  0.5920120000000  0.5616820000000 1.0
C      1  0.4340890000000  0.4613710000000  0.5082190000000 1.0
C      1  0.5520530000000  0.5646310000000  0.4722760000000 1.0
C      1  0.4543180000000  0.4303570000000  0.4348280000000 1.0
C      1  0.5496040000000  0.5150780000000  0.4050160000000 1.0
C      1  0.5604120000000  0.5418700000000  0.4961230000000 1.0
C      1  0.6119120000000  0.4657760000000  0.5051990000000 1.0
C      1  0.4723510000000  0.5471800000000  0.4925550000000 1.0
C      1  0.4601290000000  0.5465000000000  0.4527400000000 1.0
C      1  0.4926430000000  0.5006770000000  0.3880160000000 1.0
C      1  0.5410220000000  0.5332880000000  0.5488640000000 1.0
C      1  0.5102860000000  0.5197290000000  0.4099670000000 1.0
C      1  0.5664930000000  0.5807600000000  0.5293440000000 1.0
C      1  0.5334180000000  0.4980340000000  0.5805700000000 1.0
C      1  0.4204280000000  0.4800380000000  0.4379470000000 1.0
C      1  0.5708610000000  0.4054940000000  0.4508780000000 1.0
C      1  0.4167690000000  0.5615950000000  0.4492380000000 1.0
C      1  0.5657280000000  0.3989750000000  0.4773970000000 1.0
C      1  0.4769250000000  0.5596950000000  0.4100330000000 1.0
C      1  0.4982630000000  0.4351410000000  0.5171590000000 1.0
C      1  0.5508070000000  0.4171130000000  0.5464030000000 1.0
C      1  0.5127100000000  0.4484260000000  0.5545900000000 1.0
C      1  0.4193050000000  0.5123670000000  0.4285750000000 1.0
C      1  0.5689330000000  0.5017290000000  0.4433060000000 1.0
C      1  0.5930790000000  0.4838640000000  0.4566200000000 1.0
C      1  0.5015810000000  0.5686480000000  0.5789140000000 1.0
C      1  0.4023280000000  0.5412610000000  0.5091910000000 1.0
C      1  0.4357570000000  0.5420660000000  0.4304350000000 1.0
C      1  0.4695280000000  0.5573170000000  0.5803890000000 1.0
C      1  0.4825680000000  0.4438100000000  0.4596590000000 1.0
C      1  0.4414670000000  0.4526280000000  0.5493010000000 1.0
C      1  0.4685220000000  0.5201180000000  0.4815250000000 1.0
C      1  0.4056650000000  0.5703080000000  0.5244770000000 1.0
C      1  0.5987420000000  0.5124290000000  0.4672820000000 1.0
C      1  0.4048660000000  0.4623880000000  0.4908640000000 1.0
C      1  0.4421140000000  0.4711410000000  0.4795200000000 1.0
C      1  0.4711250000000  0.4432490000000  0.5355610000000 1.0
C      1  0.5460310000000  0.5249770000000  0.4341130000000 1.0
C      1  0.5782560000000  0.5372000000000  0.4675580000000 1.0
C      1  0.4881940000000  0.5449810000000  0.5200420000000 1.0
C      1  0.5791180000000  0.5345000000000  0.5607540000000 1.0
C      1  0.5834780000000  0.5885040000000  0.4702400000000 1.0
C      1  0.4325210000000  0.5668610000000  0.5038920000000 1.0
C      1  0.5081530000000  0.5301690000000  0.4777240000000 1.0
C      1  0.4624190000000  0.5734420000000  0.4733570000000 1.0
C      1  0.4654320000000  0.5248300000000  0.5712080000000 1.0
C      1  0.5234180000000  0.4929630000000  0.4406820000000 1.0
C      1  0.4257530000000  0.4977070000000  0.4841300000000 1.0
C      1  0.5102980000000  0.4182760000000  0.5669320000000 1.0
C      1  0.5244710000000  0.5481860000000  0.4220650000000 1.0
C      1  0.4940600000000  0.4605770000000  0.5960830000000 1.0
C      1  0.4382340000000  0.4470010000000  0.4574870000000 1.0
C      1  0.3944540000000  0.5004690000000  0.4971460000000 1.0
C      1  0.4726990000000  0.5088270000000  0.5261880000000 1.0
C      1  0.5157060000000  0.5231350000000  0.4493780000000 1.0
C      1  0.5241710000000  0.5087380000000  0.5208840000000 1.0
C      1  0.5947190000000  0.4624480000000  0.4828180000000 1.0
C      1  0.4148970000000  0.5324640000000  0.5576690000000 1.0
C      1  0.5746670000000  0.5180170000000  0.5336870000000 1.0
C      1  0.5911210000000  0.5650920000000  0.4583680000000 1.0
C      1  0.4514270000000  0.5918970000000  0.5144820000000 1.0
C      1  0.5274250000000  0.4885680000000  0.5552340000000 1.0
C      1  0.5646430000000  0.5829870000000  0.4980040000000 1.0
C      1  0.5278390000000  0.4919230000000  0.4735390000000 1.0
C      1  0.4660470000000  0.4778660000000  0.4101660000000 1.0
C      1  0.4794810000000  0.5930710000000  0.4952940000000 1.0
C      1  0.6011830000000  0.4365620000000  0.5299860000000 1.0
C      1  0.5698400000000  0.4818520000000  0.5799990000000 1.0
C      1  0.3889670000000  0.5427380000000  0.4807160000000 1.0
C      1  0.5449140000000  0.4489180000000  0.5436820000000 1.0
C      1  0.5043940000000  0.5671450000000  0.4568800000000 1.0
C      1  0.4537260000000  0.5006590000000  0.3966160000000 1.0
C      1  0.4008020000000  0.4079640000000  0.5291020000000 1.0
C      1  0.4984150000000  0.4785240000000  0.5477790000000 1.0
C      1  0.4815370000000  0.4459600000000  0.5679770000000 1.0
C      1  0.4289830000000  0.5765760000000  0.4721900000000 1.0
C      1  0.5102040000000  0.5620200000000  0.5490320000000 1.0
C      1  0.4631200000000  0.4175060000000  0.5650010000000 1.0
C      1  0.5216250000000  0.4580650000000  0.6044530000000 1.0
C      1  0.5500580000000  0.4007600000000  0.5235480000000 1.0
C      1  0.4904490000000  0.5427250000000  0.4377680000000 1.0
C      1  0.5116140000000  0.5493930000000  0.4993790000000 1.0
C      1  0.4810490000000  0.4849820000000  0.6031420000000 1.0
C      1  0.4305030000000  0.4844710000000  0.5272020000000 1.0
C      1  0.4029990000000  0.4724350000000  0.4634020000000 1.0
C      1  0.5209480000000  0.4421970000000  0.4928170000000 1.0
C      1  0.5674340000000  0.4476120000000  0.4920870000000 1.0
C      1  0.5104110000000  0.5802410000000  0.4876870000000 1.0
C      1  0.5030480000000  0.4244340000000  0.4734860000000 1.0
C      1  0.3984800000000  0.4898050000000  0.5270860000000 1.0
C      1  0.4571240000000  0.5392470000000  0.5285480000000 1.0
C      1  0.5998290000000  0.4985310000000  0.5456590000000 1.0
C      1  0.4491390000000  0.5972120000000  0.5416130000000 1.0
C      1  0.5080410000000  0.5295400000000  0.5424740000000 1.0
C      1  0.4500240000000  0.4123690000000  0.4929440000000 1.0
C      1  0.4238260000000  0.5032080000000  0.5547870000000 1.0
C      1  0.4847320000000  0.5376670000000  0.6036380000000 1.0
C      1  0.4626090000000  0.4728020000000  0.5646170000000 1.0
C      1  0.5202650000000  0.5960280000000  0.4359670000000 1.0
C      1  0.5368130000000  0.4604950000000  0.5143090000000 1.0
C      1  0.5357650000000  0.5714940000000  0.5386620000000 1.0
C      1  0.4415900000000  0.5120370000000  0.5177260000000 1.0
C      1  0.5353990000000  0.5678910000000  0.4476060000000 1.0
C      1  0.4941160000000  0.5094800000000  0.5613130000000 1.0
C      1  0.5694090000000  0.5006740000000  0.5070300000000 1.0
C      1  0.4801570000000  0.5138200000000  0.4231180000000 1.0
C      1  0.4786240000000  0.4758090000000  0.4640890000000 1.0
C      1  0.3979980000000  0.4558170000000  0.5235330000000 1.0
END
