TITL C-2848507-1641-31 -0.000972332354126654 125000 -1085.78206978523 0 0 196 (C1) n - 1
REM
REM in /home/bkarasulu/work/CARBON/AIRSS/Generating-Clusters/AIREBO/with-SteepDescent/Only-C1/SD-CG-opt/Try1-1.4A-POS3A/HFTN-CG
REM
REM
REM
REM
REM
REM ./C.cell (11c1c37f851c82e70ff6c80c92926a4b)
REM
REM compiler GCC version 9.2.1 20190827 (Red Hat 9.2.1-1)
REM options -cpp -mtune=generic -march=x86-64 -g -O0 -fpre-include=/usr/include/finclude/math-vector-fortran.h
REM seed 411391640 1476910541 1938401837 -1362045966 2014911278 -1145518108 -1503694136 1862520330 250317652 657754423 1519702924 -1916459200 -1606958303 -1623714334 182444327 2124919916 -1061334028 -1912218992 68810231 -292404261 -711944763 -554570554 -1622991230 452730336 1938472215 -1608897981 815480475 -431942805 -1053722020 1392222877 -1996603729 968652885 -266396688
REM
CELL 1.54180   50.00000   50.00000   50.00000   90.00000   90.00000   90.00000
LATT -1
SFAC C  
C      1  0.4609990000000  0.4157570000000  0.4331480000000 1.0
C      1  0.4092400000000  0.4300810000000  0.5207190000000 1.0
C      1  0.5548520000000  0.5682650000000  0.5157180000000 1.0
C      1  0.5337490000000  0.4980030000000  0.4278750000000 1.0
C      1  0.4558760000000  0.5072340000000  0.3927440000000 1.0
C      1  0.4219380000000  0.5357800000000  0.5730950000000 1.0
C      1  0.4797390000000  0.5234420000000  0.3998360000000 1.0
C      1  0.5012960000000  0.3987780000000  0.5108810000000 1.0
C      1  0.3968570000000  0.5058020000000  0.5246090000000 1.0
C      1  0.5328990000000  0.5623300000000  0.5798500000000 1.0
C      1  0.4388700000000  0.3962820000000  0.4980640000000 1.0
C      1  0.5985380000000  0.4393000000000  0.5347970000000 1.0
C      1  0.4699510000000  0.5196480000000  0.6012060000000 1.0
C      1  0.5107840000000  0.5859850000000  0.5920740000000 1.0
C      1  0.4032870000000  0.4788940000000  0.5291470000000 1.0
C      1  0.4917710000000  0.5427510000000  0.6035060000000 1.0
C      1  0.5272290000000  0.6140640000000  0.4915090000000 1.0
C      1  0.5115790000000  0.5137870000000  0.4073240000000 1.0
C      1  0.4690070000000  0.5271370000000  0.5226700000000 1.0
C      1  0.3916440000000  0.5174220000000  0.5002520000000 1.0
C      1  0.5203950000000  0.6170820000000  0.4043950000000 1.0
C      1  0.5301080000000  0.5142870000000  0.3789590000000 1.0
C      1  0.4869340000000  0.5044110000000  0.5352830000000 1.0
C      1  0.5438930000000  0.4151600000000  0.5170180000000 1.0
C      1  0.5390740000000  0.5157170000000  0.6016430000000 1.0
C      1  0.4414560000000  0.5332580000000  0.4871940000000 1.0
C      1  0.5230750000000  0.4850200000000  0.3824300000000 1.0
C      1  0.5661960000000  0.5344140000000  0.4706180000000 1.0
C      1  0.4920740000000  0.4814550000000  0.3895400000000 1.0
C      1  0.5280400000000  0.5291640000000  0.5228540000000 1.0
C      1  0.4146550000000  0.4633720000000  0.4518280000000 1.0
C      1  0.4732210000000  0.4332060000000  0.5479110000000 1.0
C      1  0.4218000000000  0.4670760000000  0.4832880000000 1.0
C      1  0.5082240000000  0.4038960000000  0.5764350000000 1.0
C      1  0.5632100000000  0.4711920000000  0.5760420000000 1.0
C      1  0.4895040000000  0.5704810000000  0.5620280000000 1.0
C      1  0.5912200000000  0.4251170000000  0.5124250000000 1.0
C      1  0.5579390000000  0.5567410000000  0.4282660000000 1.0
C      1  0.5216130000000  0.5936690000000  0.4189550000000 1.0
C      1  0.5190890000000  0.4569240000000  0.5950100000000 1.0
C      1  0.4164910000000  0.4126400000000  0.4968890000000 1.0
C      1  0.4511980000000  0.5641080000000  0.5541390000000 1.0
C      1  0.4597570000000  0.4200680000000  0.5222690000000 1.0
C      1  0.4341020000000  0.4381210000000  0.5667810000000 1.0
C      1  0.4807160000000  0.5904510000000  0.5102660000000 1.0
C      1  0.5133420000000  0.6000580000000  0.5099150000000 1.0
C      1  0.5948310000000  0.5022770000000  0.4994260000000 1.0
C      1  0.4102770000000  0.5719940000000  0.5231630000000 1.0
C      1  0.5202120000000  0.5688920000000  0.4698820000000 1.0
C      1  0.6090620000000  0.5285030000000  0.4830870000000 1.0
C      1  0.4541830000000  0.5740900000000  0.5823000000000 1.0
C      1  0.4330210000000  0.5123600000000  0.4132080000000 1.0
C      1  0.5631110000000  0.4547340000000  0.4112110000000 1.0
C      1  0.4252200000000  0.4347480000000  0.4603040000000 1.0
C      1  0.4576980000000  0.6241150000000  0.4827060000000 1.0
C      1  0.4492650000000  0.4810590000000  0.4926370000000 1.0
C      1  0.5148950000000  0.5951510000000  0.4485040000000 1.0
C      1  0.5182070000000  0.5091630000000  0.5477830000000 1.0
C      1  0.4492750000000  0.3880390000000  0.5268250000000 1.0
C      1  0.4572500000000  0.5089060000000  0.4325080000000 1.0
C      1  0.5146150000000  0.4762390000000  0.5400650000000 1.0
C      1  0.4096670000000  0.5242780000000  0.5433670000000 1.0
C      1  0.4523290000000  0.4317660000000  0.4553800000000 1.0
C      1  0.4488090000000  0.4873500000000  0.5245440000000 1.0
C      1  0.5692470000000  0.4330280000000  0.4914240000000 1.0
C      1  0.5365010000000  0.4762070000000  0.5836240000000 1.0
C      1  0.5745870000000  0.5690770000000  0.4482910000000 1.0
C      1  0.5381580000000  0.4211060000000  0.4842960000000 1.0
C      1  0.4921680000000  0.4803070000000  0.4634010000000 1.0
C      1  0.4402770000000  0.4515750000000  0.5072570000000 1.0
C      1  0.4766970000000  0.5410110000000  0.5522290000000 1.0
C      1  0.5069810000000  0.3957490000000  0.5421900000000 1.0
C      1  0.5653750000000  0.5260410000000  0.5880910000000 1.0
C      1  0.4248240000000  0.4668730000000  0.4207840000000 1.0
C      1  0.4872800000000  0.6071780000000  0.4494450000000 1.0
C      1  0.3954340000000  0.5943040000000  0.5290840000000 1.0
C      1  0.5307960000000  0.4165210000000  0.5460400000000 1.0
C      1  0.5201520000000  0.5124710000000  0.4750890000000 1.0
C      1  0.4812410000000  0.4537170000000  0.4287060000000 1.0
C      1  0.4633980000000  0.4679770000000  0.5981090000000 1.0
C      1  0.4084650000000  0.5368050000000  0.4473820000000 1.0
C      1  0.5578620000000  0.5283510000000  0.5235800000000 1.0
C      1  0.4845450000000  0.6101350000000  0.5574030000000 1.0
C      1  0.4171530000000  0.5651070000000  0.4967840000000 1.0
C      1  0.5614880000000  0.5498690000000  0.5728930000000 1.0
C      1  0.4389990000000  0.5775030000000  0.4845170000000 1.0
C      1  0.4527840000000  0.4599290000000  0.4109650000000 1.0
C      1  0.4951010000000  0.4721460000000  0.6103150000000 1.0
C      1  0.5394700000000  0.4606330000000  0.4639150000000 1.0
C      1  0.5377390000000  0.6046750000000  0.4671090000000 1.0
C      1  0.4817080000000  0.4068500000000  0.4661130000000 1.0
C      1  0.5394960000000  0.4724780000000  0.4075550000000 1.0
C      1  0.4766440000000  0.6291090000000  0.4631230000000 1.0
C      1  0.5152330000000  0.4441230000000  0.4782120000000 1.0
C      1  0.4883550000000  0.5169060000000  0.5732070000000 1.0
C      1  0.4837330000000  0.5702190000000  0.5944660000000 1.0
C      1  0.5079700000000  0.4603550000000  0.4094080000000 1.0
C      1  0.5860390000000  0.5853940000000  0.5391210000000 1.0
C      1  0.5640420000000  0.3873810000000  0.4790980000000 1.0
C      1  0.4723420000000  0.4012100000000  0.4945150000000 1.0
C      1  0.5677680000000  0.4433120000000  0.5657140000000 1.0
C      1  0.4811670000000  0.4051820000000  0.5599980000000 1.0
C      1  0.4803830000000  0.5713960000000  0.4656310000000 1.0
C      1  0.5165370000000  0.5412570000000  0.5589220000000 1.0
C      1  0.4495260000000  0.5147240000000  0.4634380000000 1.0
C      1  0.4991940000000  0.5161920000000  0.4991240000000 1.0
C      1  0.4721890000000  0.4539830000000  0.4717560000000 1.0
C      1  0.4694890000000  0.4935230000000  0.5584020000000 1.0
C      1  0.5564970000000  0.4306800000000  0.4242900000000 1.0
C      1  0.5890590000000  0.4663390000000  0.4177560000000 1.0
C      1  0.5001220000000  0.5433000000000  0.4313650000000 1.0
C      1  0.5555490000000  0.4176790000000  0.5666530000000 1.0
C      1  0.4485530000000  0.5146780000000  0.5748630000000 1.0
C      1  0.4669130000000  0.5869720000000  0.4413780000000 1.0
C      1  0.4814720000000  0.5097250000000  0.4643090000000 1.0
C      1  0.4684080000000  0.5513140000000  0.4075120000000 1.0
C      1  0.5326710000000  0.4471170000000  0.5140350000000 1.0
C      1  0.5157780000000  0.4913810000000  0.5112950000000 1.0
C      1  0.5720730000000  0.5533280000000  0.5409660000000 1.0
C      1  0.4921120000000  0.4350620000000  0.4549880000000 1.0
C      1  0.5340710000000  0.3938390000000  0.4643970000000 1.0
C      1  0.5622390000000  0.3901290000000  0.5067550000000 1.0
C      1  0.5427310000000  0.5707170000000  0.4099080000000 1.0
C      1  0.5427280000000  0.5013950000000  0.4981390000000 1.0
C      1  0.4333050000000  0.5142170000000  0.5106170000000 1.0
C      1  0.4805200000000  0.4868550000000  0.4211080000000 1.0
C      1  0.5161240000000  0.4458240000000  0.5551910000000 1.0
C      1  0.5199300000000  0.4288350000000  0.5844030000000 1.0
C      1  0.4339920000000  0.4358930000000  0.5367710000000 1.0
C      1  0.4304760000000  0.4737270000000  0.5491860000000 1.0
C      1  0.4273520000000  0.5570520000000  0.4402770000000 1.0
C      1  0.5582760000000  0.5859270000000  0.4666470000000 1.0
C      1  0.5829740000000  0.4738660000000  0.5060310000000 1.0
C      1  0.5013680000000  0.4716160000000  0.4926310000000 1.0
C      1  0.4712380000000  0.5870070000000  0.5387150000000 1.0
C      1  0.5185350000000  0.5027660000000  0.5799850000000 1.0
C      1  0.6010220000000  0.5368810000000  0.5340700000000 1.0
C      1  0.5880360000000  0.5733180000000  0.5102900000000 1.0
C      1  0.4626530000000  0.4646390000000  0.5554280000000 1.0
C      1  0.4699600000000  0.4940100000000  0.6170910000000 1.0
C      1  0.5856720000000  0.5101230000000  0.5798960000000 1.0
C      1  0.4012220000000  0.4400070000000  0.4832980000000 1.0
C      1  0.4219480000000  0.5559010000000  0.5456800000000 1.0
C      1  0.4688250000000  0.5382500000000  0.4383980000000 1.0
C      1  0.4966770000000  0.5099270000000  0.4369060000000 1.0
C      1  0.5027080000000  0.5452980000000  0.5099190000000 1.0
C      1  0.4734520000000  0.4455570000000  0.5038500000000 1.0
C      1  0.5310460000000  0.5881870000000  0.5578440000000 1.0
C      1  0.5586060000000  0.4354930000000  0.4530840000000 1.0
C      1  0.5799110000000  0.4906000000000  0.5536630000000 1.0
C      1  0.4695010000000  0.5061280000000  0.4959360000000 1.0
C      1  0.5035360000000  0.4308290000000  0.5072410000000 1.0
C      1  0.5223550000000  0.4909950000000  0.6179320000000 1.0
C      1  0.5727970000000  0.4128950000000  0.4664690000000 1.0
C      1  0.4132880000000  0.4598570000000  0.5750500000000 1.0
C      1  0.5508870000000  0.5014750000000  0.5405740000000 1.0
C      1  0.5899940000000  0.4648280000000  0.5351100000000 1.0
C      1  0.5472820000000  0.4536430000000  0.5440410000000 1.0
C      1  0.5116420000000  0.5626690000000  0.4116050000000 1.0
C      1  0.4561590000000  0.5982140000000  0.4936530000000 1.0
C      1  0.4518290000000  0.5546440000000  0.4628620000000 1.0
C      1  0.4567910000000  0.4384340000000  0.5846560000000 1.0
C      1  0.4380460000000  0.4829380000000  0.5810450000000 1.0
C      1  0.5432930000000  0.5351880000000  0.4381660000000 1.0
C      1  0.5081530000000  0.5608040000000  0.5366170000000 1.0
C      1  0.4020840000000  0.4875100000000  0.4340060000000 1.0
C      1  0.5198660000000  0.3836450000000  0.4935740000000 1.0
C      1  0.5962680000000  0.4812550000000  0.4389750000000 1.0
C      1  0.5243860000000  0.4862920000000  0.4558800000000 1.0
C      1  0.5678160000000  0.5189280000000  0.4962980000000 1.0
C      1  0.3971040000000  0.4564190000000  0.5128200000000 1.0
C      1  0.4801060000000  0.4752940000000  0.5189520000000 1.0
C      1  0.5455630000000  0.4031580000000  0.4337000000000 1.0
C      1  0.4429990000000  0.5223090000000  0.5421890000000 1.0
C      1  0.4578330000000  0.4285010000000  0.4083860000000 1.0
C      1  0.4967090000000  0.5687090000000  0.4917790000000 1.0
C      1  0.5041260000000  0.3863370000000  0.4531500000000 1.0
C      1  0.4081470000000  0.5368830000000  0.4814020000000 1.0
C      1  0.5583330000000  0.5099610000000  0.4482140000000 1.0
C      1  0.4870860000000  0.4482630000000  0.5727350000000 1.0
C      1  0.4764210000000  0.3903310000000  0.4372740000000 1.0
C      1  0.5096620000000  0.6062860000000  0.5696250000000 1.0
C      1  0.4092890000000  0.5143780000000  0.4292390000000 1.0
C      1  0.5499540000000  0.5604950000000  0.4841100000000 1.0
C      1  0.6059000000000  0.4975010000000  0.4676060000000 1.0
C      1  0.5939790000000  0.5501860000000  0.4622880000000 1.0
C      1  0.6038100000000  0.5500600000000  0.5079530000000 1.0
C      1  0.4505260000000  0.5708060000000  0.4246440000000 1.0
C      1  0.5516430000000  0.4756380000000  0.5184740000000 1.0
C      1  0.5994430000000  0.5088310000000  0.5324960000000 1.0
C      1  0.4606770000000  0.4788600000000  0.3876100000000 1.0
C      1  0.5192020000000  0.5397970000000  0.6013180000000 1.0
C      1  0.5743010000000  0.4869640000000  0.4607840000000 1.0
C      1  0.5299760000000  0.5814630000000  0.5276400000000 1.0
C      1  0.5193560000000  0.5395270000000  0.4565260000000 1.0
C      1  0.5671820000000  0.4630680000000  0.4807800000000 1.0
END
