TITL C-2848499-1157-469 -0.00032946360585293 125000 -670.457048299368 0 0 123 (C1) n - 1
REM
REM in /home/bkarasulu/work/CARBON/AIRSS/Generating-Clusters/AIREBO/with-SteepDescent/Only-C1/SD-CG-opt/Try1-1.4A-POS3A/HFTN-CG
REM
REM
REM
REM
REM
REM ./C.cell (11c1c37f851c82e70ff6c80c92926a4b)
REM
REM compiler GCC version 9.2.1 20190827 (Red Hat 9.2.1-1)
REM options -cpp -mtune=generic -march=x86-64 -g -O0 -fpre-include=/usr/include/finclude/math-vector-fortran.h
REM seed 1630335882 1753739863 -1354234534 -1507377026 -2139259311 147192255 654208507 1224575654 -933546661 328900739 -910717897 1461241673 1047392647 965593615 602661801 852780135 1934246554 1030478240 -147042025 -143128553 2083620597 -1043706369 215111686 -870155134 -1973613007 253393943 1118501758 843119628 1144701150 -768417160 1574802029 -108907747 1279205391
REM
CELL 1.54180   50.00000   50.00000   50.00000   90.00000   90.00000   90.00000
LATT -1
SFAC C  
C      1  0.4649540000000  0.5160280000000  0.4701340000000 1.0
C      1  0.5530000000000  0.5018250000000  0.5920310000000 1.0
C      1  0.4650390000000  0.5486620000000  0.5415740000000 1.0
C      1  0.4557890000000  0.4306960000000  0.4964620000000 1.0
C      1  0.5338680000000  0.4903920000000  0.4948390000000 1.0
C      1  0.5704920000000  0.4705960000000  0.5513340000000 1.0
C      1  0.5371700000000  0.4417200000000  0.4516590000000 1.0
C      1  0.4918900000000  0.4839740000000  0.4733340000000 1.0
C      1  0.4894110000000  0.4508640000000  0.4513260000000 1.0
C      1  0.5110030000000  0.5734370000000  0.5412370000000 1.0
C      1  0.4287590000000  0.5226590000000  0.5048240000000 1.0
C      1  0.5051360000000  0.5323300000000  0.5232310000000 1.0
C      1  0.5196510000000  0.4292710000000  0.4259910000000 1.0
C      1  0.4848840000000  0.4782890000000  0.3978630000000 1.0
C      1  0.4632250000000  0.4516960000000  0.5801880000000 1.0
C      1  0.4738440000000  0.5220770000000  0.5251000000000 1.0
C      1  0.5502580000000  0.4251110000000  0.5205420000000 1.0
C      1  0.5655900000000  0.4590700000000  0.4447500000000 1.0
C      1  0.5125370000000  0.5410830000000  0.4202640000000 1.0
C      1  0.4879170000000  0.5593120000000  0.5565690000000 1.0
C      1  0.5366970000000  0.5662290000000  0.5606600000000 1.0
C      1  0.4622170000000  0.4814690000000  0.4897760000000 1.0
C      1  0.5445470000000  0.4141430000000  0.4701540000000 1.0
C      1  0.4502650000000  0.5249660000000  0.4235580000000 1.0
C      1  0.5051280000000  0.5180630000000  0.4102650000000 1.0
C      1  0.4555960000000  0.4894020000000  0.5908930000000 1.0
C      1  0.5158190000000  0.5673310000000  0.5080030000000 1.0
C      1  0.4853390000000  0.4139730000000  0.4985870000000 1.0
C      1  0.5237720000000  0.4552810000000  0.5623200000000 1.0
C      1  0.5322590000000  0.4605070000000  0.4947120000000 1.0
C      1  0.4760480000000  0.5056810000000  0.4151090000000 1.0
C      1  0.5330430000000  0.4943110000000  0.4405620000000 1.0
C      1  0.5625180000000  0.5056680000000  0.4429340000000 1.0
C      1  0.4622240000000  0.5542440000000  0.4902920000000 1.0
C      1  0.5537220000000  0.4974980000000  0.5410840000000 1.0
C      1  0.4892730000000  0.4234540000000  0.4691310000000 1.0
C      1  0.5505240000000  0.4479720000000  0.5459770000000 1.0
C      1  0.4675420000000  0.4873130000000  0.4506750000000 1.0
C      1  0.5035290000000  0.5259570000000  0.4734410000000 1.0
C      1  0.4164710000000  0.5151630000000  0.5352890000000 1.0
C      1  0.4246540000000  0.4675980000000  0.5425380000000 1.0
C      1  0.4913330000000  0.5467690000000  0.4964410000000 1.0
C      1  0.5665320000000  0.5345330000000  0.4525740000000 1.0
C      1  0.4053080000000  0.4992720000000  0.5084520000000 1.0
C      1  0.4809800000000  0.4622070000000  0.5093710000000 1.0
C      1  0.5256050000000  0.4465810000000  0.5234550000000 1.0
C      1  0.4714800000000  0.4999850000000  0.5471900000000 1.0
C      1  0.4998310000000  0.5414480000000  0.5770290000000 1.0
C      1  0.5031180000000  0.5018150000000  0.4977530000000 1.0
C      1  0.5331930000000  0.5120150000000  0.4692570000000 1.0
C      1  0.4606360000000  0.4234010000000  0.4553890000000 1.0
C      1  0.5886940000000  0.4968860000000  0.4987210000000 1.0
C      1  0.5865460000000  0.4594810000000  0.4853180000000 1.0
C      1  0.4815830000000  0.5912120000000  0.4691390000000 1.0
C      1  0.4142650000000  0.5179180000000  0.4612760000000 1.0
C      1  0.5744100000000  0.5324130000000  0.5625000000000 1.0
C      1  0.5173070000000  0.4689280000000  0.4564490000000 1.0
C      1  0.5018650000000  0.4454510000000  0.4917970000000 1.0
C      1  0.4624150000000  0.4528070000000  0.4714830000000 1.0
C      1  0.4500930000000  0.5487850000000  0.4398900000000 1.0
C      1  0.4440260000000  0.4069900000000  0.5201810000000 1.0
C      1  0.5523010000000  0.5461780000000  0.5742030000000 1.0
C      1  0.4483670000000  0.5602960000000  0.5159460000000 1.0
C      1  0.4208100000000  0.4930460000000  0.4522310000000 1.0
C      1  0.3973950000000  0.5664920000000  0.4935710000000 1.0
C      1  0.4997750000000  0.4916460000000  0.5302750000000 1.0
C      1  0.4937030000000  0.4394800000000  0.4236190000000 1.0
C      1  0.5970350000000  0.4674110000000  0.5118270000000 1.0
C      1  0.4426710000000  0.4888570000000  0.6148080000000 1.0
C      1  0.5242750000000  0.4976230000000  0.4121800000000 1.0
C      1  0.4942950000000  0.4445250000000  0.5351870000000 1.0
C      1  0.4841660000000  0.6245270000000  0.5172370000000 1.0
C      1  0.4981470000000  0.4123340000000  0.5429510000000 1.0
C      1  0.5120830000000  0.5259590000000  0.5974970000000 1.0
C      1  0.4246290000000  0.4933910000000  0.5533620000000 1.0
C      1  0.5951120000000  0.4834810000000  0.4688010000000 1.0
C      1  0.5902940000000  0.5386140000000  0.5403780000000 1.0
C      1  0.4243790000000  0.4432240000000  0.4927510000000 1.0
C      1  0.4649300000000  0.4725200000000  0.5340130000000 1.0
C      1  0.5018640000000  0.5223600000000  0.5527300000000 1.0
C      1  0.4150680000000  0.4623440000000  0.4657350000000 1.0
C      1  0.5649700000000  0.5777060000000  0.5096750000000 1.0
C      1  0.5519510000000  0.5598970000000  0.4443960000000 1.0
C      1  0.5285070000000  0.4896230000000  0.5817290000000 1.0
C      1  0.4396740000000  0.5387650000000  0.4700080000000 1.0
C      1  0.4933310000000  0.3981360000000  0.5222310000000 1.0
C      1  0.5433360000000  0.5621660000000  0.4941210000000 1.0
C      1  0.4976540000000  0.4701410000000  0.5565840000000 1.0
C      1  0.5727880000000  0.5004360000000  0.5680920000000 1.0
C      1  0.5578070000000  0.5091640000000  0.5100290000000 1.0
C      1  0.5051310000000  0.4967360000000  0.5974220000000 1.0
C      1  0.5969620000000  0.4638670000000  0.5379960000000 1.0
C      1  0.5869300000000  0.5247660000000  0.5181010000000 1.0
C      1  0.4779210000000  0.4517790000000  0.4040370000000 1.0
C      1  0.4172920000000  0.5503680000000  0.4928230000000 1.0
C      1  0.5333770000000  0.5315210000000  0.5177370000000 1.0
C      1  0.5360920000000  0.5616800000000  0.4213880000000 1.0
C      1  0.5086850000000  0.5514800000000  0.4513750000000 1.0
C      1  0.4480450000000  0.4990930000000  0.5665600000000 1.0
C      1  0.5565900000000  0.4513870000000  0.4778510000000 1.0
C      1  0.4315170000000  0.5430710000000  0.5390150000000 1.0
C      1  0.5105650000000  0.5788770000000  0.4282240000000 1.0
C      1  0.5249930000000  0.4987660000000  0.5519530000000 1.0
C      1  0.4627200000000  0.4331120000000  0.5296820000000 1.0
C      1  0.4580780000000  0.5132370000000  0.5012110000000 1.0
C      1  0.5559350000000  0.5319620000000  0.4847870000000 1.0
C      1  0.4624110000000  0.5706330000000  0.4625500000000 1.0
C      1  0.4185040000000  0.4630300000000  0.5163220000000 1.0
C      1  0.4430440000000  0.4964170000000  0.4356530000000 1.0
C      1  0.4282110000000  0.4822260000000  0.4899860000000 1.0
C      1  0.5084350000000  0.5835860000000  0.4599900000000 1.0
C      1  0.5794600000000  0.4838750000000  0.4456930000000 1.0
C      1  0.5133790000000  0.4798000000000  0.3928980000000 1.0
C      1  0.5413810000000  0.5290990000000  0.5955800000000 1.0
C      1  0.4494260000000  0.4514510000000  0.5523550000000 1.0
C      1  0.5389200000000  0.5731280000000  0.4659560000000 1.0
C      1  0.4882920000000  0.5127590000000  0.4460560000000 1.0
C      1  0.4840900000000  0.4777330000000  0.5867490000000 1.0
C      1  0.4822840000000  0.6062530000000  0.4916990000000 1.0
C      1  0.4034610000000  0.4460060000000  0.4462590000000 1.0
C      1  0.5005360000000  0.5947600000000  0.5178680000000 1.0
C      1  0.5884890000000  0.5395880000000  0.4785820000000 1.0
C      1  0.5527010000000  0.4133990000000  0.4965990000000 1.0
END
