TITL C-2848494-1720-368 0.000251327217516201 125000 -762.454014844692 0 0 141 (C1) n - 1
REM
REM in /home/bkarasulu/work/CARBON/AIRSS/Generating-Clusters/AIREBO/with-SteepDescent/Only-C1/SD-CG-opt/Try1-1.4A-POS3A/HFTN-CG
REM
REM
REM
REM
REM
REM ./C.cell (11c1c37f851c82e70ff6c80c92926a4b)
REM
REM compiler GCC version 9.2.1 20190827 (Red Hat 9.2.1-1)
REM options -cpp -mtune=generic -march=x86-64 -g -O0 -fpre-include=/usr/include/finclude/math-vector-fortran.h
REM seed -743190275 -111722615 -296156794 1954347038 -1373612072 1403379229 -1421848771 -1870859346 2075743433 -1870442721 806194339 1015668272 702002621 -294570171 10286390 206075990 -1550808065 1972552485 -829390716 1539326518 -248506380 1862536110 -1319512562 -1088067169 -471916849 194968859 1728680930 -927816803 -1788595852 -990874556 2099921090 2133827144 -1285338985
REM
CELL 1.54180   50.00000   50.00000   50.00000   90.00000   90.00000   90.00000
LATT -1
SFAC C  
C      1  0.5048110000000  0.5498920000000  0.4411940000000 1.0
C      1  0.4305230000000  0.4677890000000  0.4250530000000 1.0
C      1  0.5139370000000  0.4732420000000  0.4460990000000 1.0
C      1  0.5425380000000  0.5657800000000  0.4715330000000 1.0
C      1  0.5326620000000  0.4332460000000  0.5108450000000 1.0
C      1  0.5532830000000  0.5260440000000  0.5133040000000 1.0
C      1  0.5401800000000  0.5926960000000  0.5109080000000 1.0
C      1  0.4919950000000  0.5294980000000  0.5913180000000 1.0
C      1  0.5228640000000  0.4247120000000  0.5574390000000 1.0
C      1  0.5330010000000  0.4562110000000  0.4630440000000 1.0
C      1  0.4409950000000  0.5482850000000  0.4379900000000 1.0
C      1  0.4996750000000  0.5049580000000  0.5705570000000 1.0
C      1  0.5172570000000  0.5233950000000  0.6036380000000 1.0
C      1  0.4731120000000  0.3982330000000  0.4511990000000 1.0
C      1  0.4831300000000  0.5547440000000  0.5792690000000 1.0
C      1  0.5046110000000  0.4085530000000  0.5238890000000 1.0
C      1  0.5580290000000  0.5378730000000  0.5634070000000 1.0
C      1  0.5911340000000  0.4956870000000  0.4901860000000 1.0
C      1  0.5775150000000  0.5148390000000  0.5578590000000 1.0
C      1  0.5531070000000  0.5576060000000  0.4410500000000 1.0
C      1  0.4767850000000  0.4259470000000  0.4797020000000 1.0
C      1  0.5905850000000  0.5485790000000  0.5144750000000 1.0
C      1  0.5758200000000  0.4658660000000  0.4839900000000 1.0
C      1  0.4421660000000  0.5107440000000  0.5789010000000 1.0
C      1  0.5121130000000  0.4130660000000  0.4927750000000 1.0
C      1  0.4296740000000  0.5501820000000  0.5141230000000 1.0
C      1  0.4933920000000  0.4420630000000  0.4317780000000 1.0
C      1  0.5388140000000  0.4978150000000  0.5163150000000 1.0
C      1  0.5545440000000  0.4368660000000  0.5520050000000 1.0
C      1  0.4230030000000  0.5046220000000  0.4997260000000 1.0
C      1  0.5766300000000  0.5043130000000  0.5271690000000 1.0
C      1  0.5011500000000  0.4397930000000  0.5368910000000 1.0
C      1  0.4535080000000  0.4941260000000  0.4592900000000 1.0
C      1  0.4839650000000  0.5250940000000  0.5503920000000 1.0
C      1  0.4662650000000  0.4975770000000  0.5499620000000 1.0
C      1  0.4474420000000  0.4722900000000  0.4819930000000 1.0
C      1  0.5306330000000  0.5551490000000  0.4215590000000 1.0
C      1  0.5191670000000  0.4337210000000  0.4442930000000 1.0
C      1  0.5223410000000  0.5339810000000  0.4849500000000 1.0
C      1  0.4354510000000  0.4968710000000  0.4384550000000 1.0
C      1  0.5312390000000  0.6140400000000  0.4696640000000 1.0
C      1  0.4228180000000  0.4720010000000  0.5559560000000 1.0
C      1  0.5284410000000  0.5285610000000  0.4531640000000 1.0
C      1  0.4611310000000  0.4549270000000  0.4279360000000 1.0
C      1  0.5352590000000  0.5541480000000  0.5198200000000 1.0
C      1  0.4186540000000  0.5389380000000  0.4602110000000 1.0
C      1  0.4954390000000  0.5914410000000  0.4892070000000 1.0
C      1  0.5243620000000  0.4617220000000  0.5251990000000 1.0
C      1  0.5609380000000  0.4467230000000  0.5201500000000 1.0
C      1  0.5218190000000  0.4929820000000  0.6011970000000 1.0
C      1  0.4922340000000  0.4097010000000  0.5614800000000 1.0
C      1  0.4856810000000  0.4838460000000  0.5291110000000 1.0
C      1  0.5195750000000  0.5237030000000  0.4148160000000 1.0
C      1  0.5208930000000  0.5001000000000  0.4874840000000 1.0
C      1  0.4491710000000  0.4855650000000  0.4028570000000 1.0
C      1  0.4549990000000  0.5749930000000  0.4417780000000 1.0
C      1  0.4432120000000  0.4176820000000  0.5324530000000 1.0
C      1  0.5324940000000  0.4058720000000  0.4593030000000 1.0
C      1  0.4381710000000  0.4471940000000  0.5399370000000 1.0
C      1  0.4918440000000  0.5041140000000  0.5050680000000 1.0
C      1  0.4668090000000  0.5231920000000  0.5089830000000 1.0
C      1  0.4258650000000  0.4216180000000  0.5041790000000 1.0
C      1  0.5337180000000  0.4502850000000  0.5756500000000 1.0
C      1  0.4346860000000  0.5407730000000  0.4875460000000 1.0
C      1  0.4784560000000  0.5770110000000  0.5224150000000 1.0
C      1  0.4939160000000  0.4775530000000  0.5971610000000 1.0
C      1  0.5135260000000  0.5285300000000  0.5145600000000 1.0
C      1  0.4836900000000  0.5772920000000  0.5547990000000 1.0
C      1  0.5497460000000  0.5091210000000  0.4702560000000 1.0
C      1  0.4205060000000  0.4602570000000  0.4749180000000 1.0
C      1  0.4569510000000  0.5530680000000  0.5591220000000 1.0
C      1  0.4133440000000  0.5123260000000  0.4433390000000 1.0
C      1  0.5898200000000  0.5626510000000  0.4877910000000 1.0
C      1  0.5725230000000  0.4930730000000  0.4553090000000 1.0
C      1  0.4090850000000  0.4700590000000  0.4516430000000 1.0
C      1  0.4570310000000  0.5822790000000  0.4684540000000 1.0
C      1  0.5985640000000  0.5214230000000  0.5111250000000 1.0
C      1  0.5725820000000  0.5309230000000  0.4434400000000 1.0
C      1  0.5795690000000  0.5243800000000  0.4760750000000 1.0
C      1  0.5753780000000  0.4932310000000  0.5751700000000 1.0
C      1  0.4527190000000  0.4575090000000  0.5122470000000 1.0
C      1  0.4794540000000  0.4411700000000  0.5630480000000 1.0
C      1  0.5476840000000  0.5121330000000  0.4304490000000 1.0
C      1  0.5621930000000  0.4776200000000  0.5118220000000 1.0
C      1  0.5393210000000  0.5642190000000  0.5677690000000 1.0
C      1  0.4810590000000  0.4555010000000  0.5172590000000 1.0
C      1  0.5218490000000  0.4718480000000  0.4158100000000 1.0
C      1  0.4806610000000  0.5628540000000  0.4809320000000 1.0
C      1  0.4013120000000  0.5181050000000  0.4807990000000 1.0
C      1  0.4935330000000  0.4514880000000  0.4884860000000 1.0
C      1  0.5173030000000  0.5294040000000  0.5452850000000 1.0
C      1  0.4736870000000  0.5161950000000  0.4608160000000 1.0
C      1  0.5597970000000  0.5468710000000  0.4891540000000 1.0
C      1  0.3923800000000  0.4953870000000  0.4567040000000 1.0
C      1  0.4882670000000  0.4715480000000  0.4158360000000 1.0
C      1  0.4788490000000  0.4796660000000  0.4855730000000 1.0
C      1  0.5390260000000  0.4135170000000  0.4272200000000 1.0
C      1  0.4119790000000  0.4456300000000  0.4988950000000 1.0
C      1  0.4528940000000  0.4593570000000  0.5666190000000 1.0
C      1  0.4741860000000  0.4061760000000  0.5325430000000 1.0
C      1  0.4648930000000  0.4855050000000  0.5809040000000 1.0
C      1  0.5115080000000  0.5780570000000  0.5144300000000 1.0
C      1  0.5511500000000  0.4745590000000  0.5645190000000 1.0
C      1  0.5089270000000  0.4800110000000  0.5493710000000 1.0
C      1  0.4353630000000  0.5331920000000  0.5632720000000 1.0
C      1  0.5016290000000  0.4996070000000  0.4594530000000 1.0
C      1  0.5652340000000  0.5564130000000  0.5357690000000 1.0
C      1  0.5358320000000  0.3990630000000  0.5125600000000 1.0
C      1  0.5042270000000  0.6131300000000  0.4756450000000 1.0
C      1  0.5355820000000  0.5011080000000  0.5500180000000 1.0
C      1  0.5026090000000  0.5500090000000  0.4020080000000 1.0
C      1  0.5574420000000  0.5873820000000  0.5311500000000 1.0
C      1  0.5033940000000  0.4590290000000  0.5731560000000 1.0
C      1  0.5618060000000  0.4633170000000  0.4530720000000 1.0
C      1  0.5664700000000  0.4335830000000  0.4896790000000 1.0
C      1  0.4680680000000  0.4284830000000  0.4470620000000 1.0
C      1  0.5944350000000  0.4771190000000  0.5371610000000 1.0
C      1  0.5392130000000  0.5152620000000  0.5807230000000 1.0
C      1  0.4666520000000  0.5047030000000  0.4115260000000 1.0
C      1  0.4976560000000  0.5028260000000  0.4253670000000 1.0
C      1  0.4594370000000  0.4153310000000  0.5026620000000 1.0
C      1  0.4478520000000  0.4985070000000  0.5218280000000 1.0
C      1  0.4993110000000  0.4040600000000  0.4665290000000 1.0
C      1  0.5102240000000  0.5596090000000  0.4702730000000 1.0
C      1  0.4197260000000  0.5283090000000  0.5370210000000 1.0
C      1  0.4571170000000  0.5906970000000  0.4971120000000 1.0
C      1  0.5819990000000  0.5602670000000  0.4587780000000 1.0
C      1  0.4777560000000  0.5563650000000  0.4245930000000 1.0
C      1  0.5115010000000  0.5585200000000  0.5609130000000 1.0
C      1  0.4107670000000  0.4957490000000  0.5365500000000 1.0
C      1  0.3958900000000  0.5185130000000  0.5148260000000 1.0
C      1  0.4645490000000  0.5271270000000  0.4329710000000 1.0
C      1  0.5482360000000  0.4809160000000  0.4272410000000 1.0
C      1  0.5791930000000  0.4602740000000  0.5528830000000 1.0
C      1  0.4654370000000  0.5365540000000  0.4818730000000 1.0
C      1  0.5508880000000  0.4101920000000  0.4839260000000 1.0
C      1  0.4236350000000  0.4737750000000  0.5140150000000 1.0
C      1  0.4447930000000  0.5726470000000  0.5201620000000 1.0
C      1  0.4715030000000  0.5445770000000  0.5298840000000 1.0
C      1  0.5455950000000  0.5938460000000  0.4831000000000 1.0
C      1  0.5224050000000  0.4663660000000  0.4915010000000 1.0
END
