TITL C-2847957-7266-135 0.000637228149366793 125000 -689.081058389319 0 0 134 (C1) n - 1
REM
REM in /home/bkarasulu/work/CARBON/AIRSS/Generating-Clusters/AIREBO/with-SteepDescent/Only-C1/SD-CG-opt/Try1-1.4A-POS3A/HFTN-CG
REM
REM
REM
REM
REM
REM ./C.cell (11c1c37f851c82e70ff6c80c92926a4b)
REM
REM compiler GCC version 9.2.1 20190827 (Red Hat 9.2.1-1)
REM options -cpp -mtune=generic -march=x86-64 -g -O0 -fpre-include=/usr/include/finclude/math-vector-fortran.h
REM seed 1024915573 2052331716 -599387583 2103526407 -928859784 -1785862220 1601009178 1563120720 -1894882010 -1756553338 276200244 -1580821486 -1034037887 -1712039432 975797293 -1410104870 -704624558 421049671 -1613065848 1554727062 1834305285 -593080320 1255514872 694249418 52902514 491420667 -1490038654 -459940280 -1530321739 -1183481085 -938753164 -1061404438 -1551098795
REM
CELL 1.54180   50.00000   50.00000   50.00000   90.00000   90.00000   90.00000
LATT -1
SFAC C  
C      1  0.5329890000000  0.4383430000000  0.5170580000000 1.0
C      1  0.5215050000000  0.4687360000000  0.6184110000000 1.0
C      1  0.5457780000000  0.4841200000000  0.5525680000000 1.0
C      1  0.4398140000000  0.5512150000000  0.4693650000000 1.0
C      1  0.4782620000000  0.4232350000000  0.4713680000000 1.0
C      1  0.5444650000000  0.5078650000000  0.4532370000000 1.0
C      1  0.5003540000000  0.4158750000000  0.5523670000000 1.0
C      1  0.5467910000000  0.5904740000000  0.4663730000000 1.0
C      1  0.4524180000000  0.4436540000000  0.6064260000000 1.0
C      1  0.5243230000000  0.5225810000000  0.4767890000000 1.0
C      1  0.5713890000000  0.4109780000000  0.4948900000000 1.0
C      1  0.5260490000000  0.5117410000000  0.5463400000000 1.0
C      1  0.5741330000000  0.4695860000000  0.4370530000000 1.0
C      1  0.5865210000000  0.4443480000000  0.4599170000000 1.0
C      1  0.4669280000000  0.5603060000000  0.5077360000000 1.0
C      1  0.5922980000000  0.5195190000000  0.4836770000000 1.0
C      1  0.4823690000000  0.5105330000000  0.4427220000000 1.0
C      1  0.5101300000000  0.4887090000000  0.4614530000000 1.0
C      1  0.4309210000000  0.5454430000000  0.4394840000000 1.0
C      1  0.5654360000000  0.5272050000000  0.4352050000000 1.0
C      1  0.4387780000000  0.4528050000000  0.5852130000000 1.0
C      1  0.4606700000000  0.5209950000000  0.5041950000000 1.0
C      1  0.5006740000000  0.4913990000000  0.4230330000000 1.0
C      1  0.5017280000000  0.4092120000000  0.4863280000000 1.0
C      1  0.5881220000000  0.4732100000000  0.5174100000000 1.0
C      1  0.4380480000000  0.4861980000000  0.5050230000000 1.0
C      1  0.4614510000000  0.4759830000000  0.5617970000000 1.0
C      1  0.5410100000000  0.4813210000000  0.3926490000000 1.0
C      1  0.5521550000000  0.5118710000000  0.4931250000000 1.0
C      1  0.5403640000000  0.4879120000000  0.4260140000000 1.0
C      1  0.5061970000000  0.5179480000000  0.6085840000000 1.0
C      1  0.4983280000000  0.4741950000000  0.5241380000000 1.0
C      1  0.5424100000000  0.5582800000000  0.4719780000000 1.0
C      1  0.4387320000000  0.4493750000000  0.4905650000000 1.0
C      1  0.4824140000000  0.5409700000000  0.5310600000000 1.0
C      1  0.4672890000000  0.5386230000000  0.4545390000000 1.0
C      1  0.4346280000000  0.5686400000000  0.5095860000000 1.0
C      1  0.5048460000000  0.3947250000000  0.5336620000000 1.0
C      1  0.4786550000000  0.5950940000000  0.5230340000000 1.0
C      1  0.4564620000000  0.5198350000000  0.5370810000000 1.0
C      1  0.4697680000000  0.4898240000000  0.5143120000000 1.0
C      1  0.4124990000000  0.5458780000000  0.5133380000000 1.0
C      1  0.5600810000000  0.4643170000000  0.4675690000000 1.0
C      1  0.5883450000000  0.5243570000000  0.5415250000000 1.0
C      1  0.4333930000000  0.4814320000000  0.5802480000000 1.0
C      1  0.4923300000000  0.5298030000000  0.5815690000000 1.0
C      1  0.5737340000000  0.4819040000000  0.5989470000000 1.0
C      1  0.5261500000000  0.4876640000000  0.5112990000000 1.0
C      1  0.5581220000000  0.4847380000000  0.5218780000000 1.0
C      1  0.5647960000000  0.4262580000000  0.5178570000000 1.0
C      1  0.4730460000000  0.4927890000000  0.4068900000000 1.0
C      1  0.5020550000000  0.5017600000000  0.4918790000000 1.0
C      1  0.5849420000000  0.4455460000000  0.5259230000000 1.0
C      1  0.4364560000000  0.4776370000000  0.4721560000000 1.0
C      1  0.4272240000000  0.4372200000000  0.5646080000000 1.0
C      1  0.3995790000000  0.4957440000000  0.5085200000000 1.0
C      1  0.4724160000000  0.4463110000000  0.4956460000000 1.0
C      1  0.4073450000000  0.5205590000000  0.5271960000000 1.0
C      1  0.5108330000000  0.5824770000000  0.4378290000000 1.0
C      1  0.5513780000000  0.4591210000000  0.5003350000000 1.0
C      1  0.4702670000000  0.6212380000000  0.5183620000000 1.0
C      1  0.6006160000000  0.4887490000000  0.4963270000000 1.0
C      1  0.5081130000000  0.4491630000000  0.4663290000000 1.0
C      1  0.5229810000000  0.5407520000000  0.5915580000000 1.0
C      1  0.4326410000000  0.4683600000000  0.4277570000000 1.0
C      1  0.4873320000000  0.5322220000000  0.4884860000000 1.0
C      1  0.5464230000000  0.5467940000000  0.4213870000000 1.0
C      1  0.4833740000000  0.5755470000000  0.4319600000000 1.0
C      1  0.5030980000000  0.5177040000000  0.5219250000000 1.0
C      1  0.5063960000000  0.5319540000000  0.4494520000000 1.0
C      1  0.5167090000000  0.4188200000000  0.4615790000000 1.0
C      1  0.4055550000000  0.5166460000000  0.4874820000000 1.0
C      1  0.4284110000000  0.4460480000000  0.5380900000000 1.0
C      1  0.5732550000000  0.4963090000000  0.4233590000000 1.0
C      1  0.5466070000000  0.4440220000000  0.5807680000000 1.0
C      1  0.5281100000000  0.6020460000000  0.4490630000000 1.0
C      1  0.4341650000000  0.5329480000000  0.4916360000000 1.0
C      1  0.4793750000000  0.4775750000000  0.4841190000000 1.0
C      1  0.5318740000000  0.5529750000000  0.5204190000000 1.0
C      1  0.5716170000000  0.4962100000000  0.4700610000000 1.0
C      1  0.4617480000000  0.4970870000000  0.4626430000000 1.0
C      1  0.5057820000000  0.4509510000000  0.5004470000000 1.0
C      1  0.4495760000000  0.5570700000000  0.5650160000000 1.0
C      1  0.5325270000000  0.5103500000000  0.5796960000000 1.0
C      1  0.5344740000000  0.4576570000000  0.5618430000000 1.0
C      1  0.4530400000000  0.5357020000000  0.4242830000000 1.0
C      1  0.5018380000000  0.5815370000000  0.5018260000000 1.0
C      1  0.5493320000000  0.5322680000000  0.5378550000000 1.0
C      1  0.4267200000000  0.5081280000000  0.5756800000000 1.0
C      1  0.4251280000000  0.4323320000000  0.5146230000000 1.0
C      1  0.5833940000000  0.5195590000000  0.5656110000000 1.0
C      1  0.5150960000000  0.5519500000000  0.4912530000000 1.0
C      1  0.5167090000000  0.4670430000000  0.4387010000000 1.0
C      1  0.5438130000000  0.4140010000000  0.4559330000000 1.0
C      1  0.5141930000000  0.4434210000000  0.5441560000000 1.0
C      1  0.4712290000000  0.4178450000000  0.5566510000000 1.0
C      1  0.5205690000000  0.5357700000000  0.4094520000000 1.0
C      1  0.4799670000000  0.4628090000000  0.4534790000000 1.0
C      1  0.5511930000000  0.5809330000000  0.5229840000000 1.0
C      1  0.5684450000000  0.5369000000000  0.4670360000000 1.0
C      1  0.5631080000000  0.4995010000000  0.5767060000000 1.0
C      1  0.4775420000000  0.5608770000000  0.4781360000000 1.0
C      1  0.5011890000000  0.4913750000000  0.5533420000000 1.0
C      1  0.5205020000000  0.4925500000000  0.6062170000000 1.0
C      1  0.5216230000000  0.5069200000000  0.4049340000000 1.0
C      1  0.5673490000000  0.5157050000000  0.5194810000000 1.0
C      1  0.5983900000000  0.4750950000000  0.4682770000000 1.0
C      1  0.4819670000000  0.4543080000000  0.5453270000000 1.0
C      1  0.3902730000000  0.4811960000000  0.4485390000000 1.0
C      1  0.4918210000000  0.5448330000000  0.4215530000000 1.0
C      1  0.4788390000000  0.5491940000000  0.5624020000000 1.0
C      1  0.4745610000000  0.4283730000000  0.5244780000000 1.0
C      1  0.4849890000000  0.4453160000000  0.4247520000000 1.0
C      1  0.4471530000000  0.4699950000000  0.5335080000000 1.0
C      1  0.4498430000000  0.5268580000000  0.5778980000000 1.0
C      1  0.5080970000000  0.5605510000000  0.5376720000000 1.0
C      1  0.4587010000000  0.4746920000000  0.4297290000000 1.0
C      1  0.5684090000000  0.4200770000000  0.4682300000000 1.0
C      1  0.4739300000000  0.5075820000000  0.5635590000000 1.0
C      1  0.4710060000000  0.5234070000000  0.4052750000000 1.0
C      1  0.4265440000000  0.5168810000000  0.5471170000000 1.0
C      1  0.5264980000000  0.5967290000000  0.5196370000000 1.0
C      1  0.4550370000000  0.5744980000000  0.5362540000000 1.0
C      1  0.4746300000000  0.4244430000000  0.4438490000000 1.0
C      1  0.5318330000000  0.4781830000000  0.4800680000000 1.0
C      1  0.4889830000000  0.4012110000000  0.5098620000000 1.0
C      1  0.5260950000000  0.5568060000000  0.4429860000000 1.0
C      1  0.4168080000000  0.4753530000000  0.4497270000000 1.0
C      1  0.4655130000000  0.5784270000000  0.4535150000000 1.0
C      1  0.5043590000000  0.5891020000000  0.5404270000000 1.0
C      1  0.5628750000000  0.5624610000000  0.5432290000000 1.0
C      1  0.4845560000000  0.4610790000000  0.4025830000000 1.0
C      1  0.4434510000000  0.5815180000000  0.4792040000000 1.0
C      1  0.4115080000000  0.4671090000000  0.5012620000000 1.0
END
