TITL C-2848502-4955-317 0.000270535523922728 125000 -112.173520071554 0 0 20 (C1) n - 1
REM
REM in /home/bkarasulu/work/CARBON/AIRSS/Generating-Clusters/AIREBO/with-SteepDescent/Only-C1/SD-CG-opt/Try1-1.4A-POS3A/HFTN-CG
REM
REM
REM
REM
REM
REM ./C.cell (11c1c37f851c82e70ff6c80c92926a4b)
REM
REM compiler GCC version 9.2.1 20190827 (Red Hat 9.2.1-1)
REM options -cpp -mtune=generic -march=x86-64 -g -O0 -fpre-include=/usr/include/finclude/math-vector-fortran.h
REM seed -836920867 1955705309 -1760717919 -174275450 -1040409768 -674934171 -261679904 -1233970649 -2092540558 -2079949312 44733691 -1616086003 -1687390090 343132754 1838407256 665442260 1880088752 1280202995 1838216045 175613962 1764755990 1392832379 -1136239261 -1283120813 1501392006 -1789721075 1863093703 -1998547895 555242571 -2030606369 -203816402 2067996224 1768994785
REM
CELL 1.54180   50.00000   50.00000   50.00000   90.00000   90.00000   90.00000
LATT -1
SFAC C  
C      1  0.4962280000000  0.5538390000000  0.5140320000000 1.0
C      1  0.4549820000000  0.4418520000000  0.5791680000000 1.0
C      1  0.5133550000000  0.5168200000000  0.4641920000000 1.0
C      1  0.5444460000000  0.5100210000000  0.4758140000000 1.0
C      1  0.4956330000000  0.4940030000000  0.4727680000000 1.0
C      1  0.4667510000000  0.4492630000000  0.5569510000000 1.0
C      1  0.4402350000000  0.5058610000000  0.5187400000000 1.0
C      1  0.4882150000000  0.4672700000000  0.5106910000000 1.0
C      1  0.5070100000000  0.4679930000000  0.4659840000000 1.0
C      1  0.5292670000000  0.5345520000000  0.4877930000000 1.0
C      1  0.4808920000000  0.4916610000000  0.4970840000000 1.0
C      1  0.4646030000000  0.5116210000000  0.5087470000000 1.0
C      1  0.5083930000000  0.4534870000000  0.4951470000000 1.0
C      1  0.5078600000000  0.5288210000000  0.4398440000000 1.0
C      1  0.4753140000000  0.5373200000000  0.5094640000000 1.0
C      1  0.5356770000000  0.4627290000000  0.4791730000000 1.0
C      1  0.5222030000000  0.5555110000000  0.5035590000000 1.0
C      1  0.5539010000000  0.4840000000000  0.4776490000000 1.0
C      1  0.5386770000000  0.5759020000000  0.5096990000000 1.0
C      1  0.4763580000000  0.4574750000000  0.5335010000000 1.0
END
