TITL C-2847959-7740-504 -0.000937330140215123 125000 -825.656409719077 0 0 158 (C1) n - 1
REM
REM in /home/bkarasulu/work/CARBON/AIRSS/Generating-Clusters/AIREBO/with-SteepDescent/Only-C1/SD-CG-opt/Try1-1.4A-POS3A/HFTN-CG
REM
REM
REM
REM
REM
REM ./C.cell (11c1c37f851c82e70ff6c80c92926a4b)
REM
REM compiler GCC version 9.2.1 20190827 (Red Hat 9.2.1-1)
REM options -cpp -mtune=generic -march=x86-64 -g -O0 -fpre-include=/usr/include/finclude/math-vector-fortran.h
REM seed 139973946 233104025 1131777290 1379338293 420253681 947311063 305481665 1650179449 -1299262301 222080953 -1160732061 1583055837 -2010059057 -1789301753 712380769 179568757 -1304442545 1971589426 1052856829 -1456579014 -1802579734 -1882215032 995616563 878200911 -1322357936 -1038702637 -824777440 -1664450264 1533063714 -479941372 2035465050 -2010975113 1914361871
REM
CELL 1.54180   50.00000   50.00000   50.00000   90.00000   90.00000   90.00000
LATT -1
SFAC C  
C      1  0.5230960000000  0.4036610000000  0.4742720000000 1.0
C      1  0.4522880000000  0.5799350000000  0.4725640000000 1.0
C      1  0.4740920000000  0.4812340000000  0.4729680000000 1.0
C      1  0.5802540000000  0.5089130000000  0.5132290000000 1.0
C      1  0.4592360000000  0.4306580000000  0.4936290000000 1.0
C      1  0.5589370000000  0.5758350000000  0.5317640000000 1.0
C      1  0.4896080000000  0.4808500000000  0.5410010000000 1.0
C      1  0.5677300000000  0.5331930000000  0.5600520000000 1.0
C      1  0.5015710000000  0.4760510000000  0.4140930000000 1.0
C      1  0.4679150000000  0.5189890000000  0.5567130000000 1.0
C      1  0.5319470000000  0.6003510000000  0.5155320000000 1.0
C      1  0.4927410000000  0.4711800000000  0.5795450000000 1.0
C      1  0.4472010000000  0.4128680000000  0.4690360000000 1.0
C      1  0.4025940000000  0.4789580000000  0.5066250000000 1.0
C      1  0.5262460000000  0.4427650000000  0.4330620000000 1.0
C      1  0.4391510000000  0.5057080000000  0.5128140000000 1.0
C      1  0.5177510000000  0.3997280000000  0.5349330000000 1.0
C      1  0.4843230000000  0.5336300000000  0.5067740000000 1.0
C      1  0.5662530000000  0.4925230000000  0.4550880000000 1.0
C      1  0.4468180000000  0.5813620000000  0.5628420000000 1.0
C      1  0.5117970000000  0.5715690000000  0.5610160000000 1.0
C      1  0.5596630000000  0.5335320000000  0.4263300000000 1.0
C      1  0.4092850000000  0.4834140000000  0.4466060000000 1.0
C      1  0.5496010000000  0.4696370000000  0.5035860000000 1.0
C      1  0.4900840000000  0.5774030000000  0.5354930000000 1.0
C      1  0.4515360000000  0.5336510000000  0.5025860000000 1.0
C      1  0.5557660000000  0.5484090000000  0.4867290000000 1.0
C      1  0.4171560000000  0.5376220000000  0.4564470000000 1.0
C      1  0.5540210000000  0.5383110000000  0.5193730000000 1.0
C      1  0.4904100000000  0.4392900000000  0.5041130000000 1.0
C      1  0.5748110000000  0.4984790000000  0.4819190000000 1.0
C      1  0.4442200000000  0.4734470000000  0.5924670000000 1.0
C      1  0.4314330000000  0.5756680000000  0.4904710000000 1.0
C      1  0.4432930000000  0.4199130000000  0.5213160000000 1.0
C      1  0.5787480000000  0.4377500000000  0.4773930000000 1.0
C      1  0.4705230000000  0.6043100000000  0.5403570000000 1.0
C      1  0.4396850000000  0.5360210000000  0.5788280000000 1.0
C      1  0.5516780000000  0.5683480000000  0.4491480000000 1.0
C      1  0.5488460000000  0.4290420000000  0.4526370000000 1.0
C      1  0.5356070000000  0.4984060000000  0.6029550000000 1.0
C      1  0.4667530000000  0.4927290000000  0.5266340000000 1.0
C      1  0.4313820000000  0.5146930000000  0.4357490000000 1.0
C      1  0.4809020000000  0.5616880000000  0.4190510000000 1.0
C      1  0.5382120000000  0.4182250000000  0.5383620000000 1.0
C      1  0.5917280000000  0.5335560000000  0.5422430000000 1.0
C      1  0.5783620000000  0.5083870000000  0.4346270000000 1.0
C      1  0.4841140000000  0.5753540000000  0.4488410000000 1.0
C      1  0.5330280000000  0.4958090000000  0.4515410000000 1.0
C      1  0.4815780000000  0.4843860000000  0.4399340000000 1.0
C      1  0.6032440000000  0.4779150000000  0.5295800000000 1.0
C      1  0.5444970000000  0.5061280000000  0.4130760000000 1.0
C      1  0.5019440000000  0.5527460000000  0.5822600000000 1.0
C      1  0.4496210000000  0.5609660000000  0.5367430000000 1.0
C      1  0.4751460000000  0.3975530000000  0.4678000000000 1.0
C      1  0.4675920000000  0.4511540000000  0.5263890000000 1.0
C      1  0.4634680000000  0.4583340000000  0.5801440000000 1.0
C      1  0.4479590000000  0.4996190000000  0.4613270000000 1.0
C      1  0.5655190000000  0.4479820000000  0.5700620000000 1.0
C      1  0.5431970000000  0.5506520000000  0.5750260000000 1.0
C      1  0.4505370000000  0.4634300000000  0.4908340000000 1.0
C      1  0.4020420000000  0.5297340000000  0.4270040000000 1.0
C      1  0.5482920000000  0.6016460000000  0.4907480000000 1.0
C      1  0.5242830000000  0.5400070000000  0.4435770000000 1.0
C      1  0.4919230000000  0.5738550000000  0.5016690000000 1.0
C      1  0.4125290000000  0.4827020000000  0.5323180000000 1.0
C      1  0.4615520000000  0.4909440000000  0.4061020000000 1.0
C      1  0.4973860000000  0.4549810000000  0.3886230000000 1.0
C      1  0.5799660000000  0.4635550000000  0.4314390000000 1.0
C      1  0.4926080000000  0.5166480000000  0.6004780000000 1.0
C      1  0.4458860000000  0.4684090000000  0.4477770000000 1.0
C      1  0.4563360000000  0.5717670000000  0.5843130000000 1.0
C      1  0.6044660000000  0.5061430000000  0.5371310000000 1.0
C      1  0.5501560000000  0.4302000000000  0.5098110000000 1.0
C      1  0.4280880000000  0.4886380000000  0.4866530000000 1.0
C      1  0.4186760000000  0.5328650000000  0.5104540000000 1.0
C      1  0.4770020000000  0.5023280000000  0.4998010000000 1.0
C      1  0.5004230000000  0.5903830000000  0.4746160000000 1.0
C      1  0.5130490000000  0.5401000000000  0.5021480000000 1.0
C      1  0.4984030000000  0.4334080000000  0.4380220000000 1.0
C      1  0.4888450000000  0.5116560000000  0.4693250000000 1.0
C      1  0.5233950000000  0.5281020000000  0.5916900000000 1.0
C      1  0.4388430000000  0.5535540000000  0.4356200000000 1.0
C      1  0.4598790000000  0.4415130000000  0.4558150000000 1.0
C      1  0.5783050000000  0.4594240000000  0.4945480000000 1.0
C      1  0.5358200000000  0.5173690000000  0.5015380000000 1.0
C      1  0.5003070000000  0.5411230000000  0.4116190000000 1.0
C      1  0.4368390000000  0.5826640000000  0.5170860000000 1.0
C      1  0.5385810000000  0.5244640000000  0.4697480000000 1.0
C      1  0.5864320000000  0.5422990000000  0.5113840000000 1.0
C      1  0.4180140000000  0.5517190000000  0.4854600000000 1.0
C      1  0.4449350000000  0.4942150000000  0.5526840000000 1.0
C      1  0.4898290000000  0.4406860000000  0.4701150000000 1.0
C      1  0.4797310000000  0.5451300000000  0.5384420000000 1.0
C      1  0.5186160000000  0.4738250000000  0.5575510000000 1.0
C      1  0.4233660000000  0.4356730000000  0.4773380000000 1.0
C      1  0.4381720000000  0.4651240000000  0.5357950000000 1.0
C      1  0.4490600000000  0.5787010000000  0.4437760000000 1.0
C      1  0.4129890000000  0.5052850000000  0.5490550000000 1.0
C      1  0.5219910000000  0.5696300000000  0.5127490000000 1.0
C      1  0.4625590000000  0.5287020000000  0.4735920000000 1.0
C      1  0.5228950000000  0.4490200000000  0.5079580000000 1.0
C      1  0.4933600000000  0.4079160000000  0.5169000000000 1.0
C      1  0.4614680000000  0.5364330000000  0.4207920000000 1.0
C      1  0.3934570000000  0.4514340000000  0.5038340000000 1.0
C      1  0.5619300000000  0.5768810000000  0.5039050000000 1.0
C      1  0.4118940000000  0.5309400000000  0.5401900000000 1.0
C      1  0.5102720000000  0.5302810000000  0.5407510000000 1.0
C      1  0.4472740000000  0.6072230000000  0.5260460000000 1.0
C      1  0.5359120000000  0.5207350000000  0.5609400000000 1.0
C      1  0.5001880000000  0.4062140000000  0.4528620000000 1.0
C      1  0.4382970000000  0.4878530000000  0.4242520000000 1.0
C      1  0.5288060000000  0.4723390000000  0.4272680000000 1.0
C      1  0.5159550000000  0.5047070000000  0.4078000000000 1.0
C      1  0.5336150000000  0.5881760000000  0.4685590000000 1.0
C      1  0.5485790000000  0.4733740000000  0.5839240000000 1.0
C      1  0.5552400000000  0.4603480000000  0.4542330000000 1.0
C      1  0.4727380000000  0.5439960000000  0.5792840000000 1.0
C      1  0.4856930000000  0.5014710000000  0.5760430000000 1.0
C      1  0.6005780000000  0.4755080000000  0.5018980000000 1.0
C      1  0.4848420000000  0.5117430000000  0.4196240000000 1.0
C      1  0.4592220000000  0.4386190000000  0.5569770000000 1.0
C      1  0.4817000000000  0.4413760000000  0.4144160000000 1.0
C      1  0.4660990000000  0.5088070000000  0.6100240000000 1.0
C      1  0.5830730000000  0.4631290000000  0.5450700000000 1.0
C      1  0.5588980000000  0.4788960000000  0.4160720000000 1.0
C      1  0.5342500000000  0.4725830000000  0.4763410000000 1.0
C      1  0.4283400000000  0.5468190000000  0.5551040000000 1.0
C      1  0.4752680000000  0.5592480000000  0.4774730000000 1.0
C      1  0.5902250000000  0.4414970000000  0.4510580000000 1.0
C      1  0.4879610000000  0.4225250000000  0.5654170000000 1.0
C      1  0.5180530000000  0.4979340000000  0.5335730000000 1.0
C      1  0.5461430000000  0.4195390000000  0.4216680000000 1.0
C      1  0.5348590000000  0.4439970000000  0.5591290000000 1.0
C      1  0.5098870000000  0.4418140000000  0.5797170000000 1.0
C      1  0.4433710000000  0.5049120000000  0.5849470000000 1.0
C      1  0.4268040000000  0.4473170000000  0.5091150000000 1.0
C      1  0.4969530000000  0.3938340000000  0.4902080000000 1.0
C      1  0.5677280000000  0.4337500000000  0.5389630000000 1.0
C      1  0.4185610000000  0.4552560000000  0.4578640000000 1.0
C      1  0.4702860000000  0.4129260000000  0.5376460000000 1.0
C      1  0.5198520000000  0.4682510000000  0.5998700000000 1.0
C      1  0.5035520000000  0.4673300000000  0.4782290000000 1.0
C      1  0.5056230000000  0.5152530000000  0.4463330000000 1.0
C      1  0.6078230000000  0.5012340000000  0.4854220000000 1.0
C      1  0.5164890000000  0.5983580000000  0.5399770000000 1.0
C      1  0.5336180000000  0.5550160000000  0.5408510000000 1.0
C      1  0.5529180000000  0.4159620000000  0.4812950000000 1.0
C      1  0.5309360000000  0.5433990000000  0.4110450000000 1.0
C      1  0.4074310000000  0.5066010000000  0.4664760000000 1.0
C      1  0.5102270000000  0.4800990000000  0.5070200000000 1.0
C      1  0.5703960000000  0.5047930000000  0.5731650000000 1.0
C      1  0.4679290000000  0.4659400000000  0.3953550000000 1.0
C      1  0.4950150000000  0.4473560000000  0.5432830000000 1.0
C      1  0.5711720000000  0.5432450000000  0.4568610000000 1.0
C      1  0.5603920000000  0.4839720000000  0.5538540000000 1.0
C      1  0.5505250000000  0.4960980000000  0.5236350000000 1.0
C      1  0.5177170000000  0.5717320000000  0.4440900000000 1.0
C      1  0.5914400000000  0.5309030000000  0.4812480000000 1.0
END
