TITL C-2848505-4874-543 -117.82264983302 125000 -1023.80335866465 0 0 191 (C1) n - 1
REM
REM in /home/bkarasulu/work/CARBON/AIRSS/Generating-Clusters/AIREBO/with-SteepDescent/Only-C1/SD-CG-opt/Try1-1.4A-POS3A/HFTN-CG
REM
REM
REM
REM
REM
REM ./C.cell (11c1c37f851c82e70ff6c80c92926a4b)
REM
REM compiler GCC version 9.2.1 20190827 (Red Hat 9.2.1-1)
REM options -cpp -mtune=generic -march=x86-64 -g -O0 -fpre-include=/usr/include/finclude/math-vector-fortran.h
REM seed -823454574 1539938580 -312354047 1711437822 -1128161810 793437033 1439003764 -1306759058 1132711220 -567172534 677301811 870745970 364966731 -1522931188 -1882015113 2047098361 -1292332134 -256547694 1366094722 -2075222501 1961391259 137159210 1162302462 423535480 2004954219 -1924434183 -766269006 2102235348 893361637 -992026607 -2076129570 -1722155914 890539176
REM
CELL 1.54180   50.00000   50.00000   50.00000   90.00000   90.00000   90.00000
LATT -1
SFAC C  
C      1  0.4683200000000  0.5890840000000  0.5716610000000 1.0
C      1  0.5305560000000  0.4038140000000  0.5108900000000 1.0
C      1  0.4249640000000  0.5510000000000  0.5820210000000 1.0
C      1  0.6029400000000  0.5058730000000  0.4965350000000 1.0
C      1  0.5088040000000  0.5390370000000  0.5318160000000 1.0
C      1  0.5796290000000  0.5343110000000  0.4615370000000 1.0
C      1  0.4308480000000  0.4403010000000  0.5832360000000 1.0
C      1  0.4310180000000  0.5166950000000  0.5398620000000 1.0
C      1  0.4940820000000  0.5421580000000  0.4336190000000 1.0
C      1  0.5519100000000  0.4454960000000  0.5271780000000 1.0
C      1  0.4781290000000  0.4640540000000  0.4374490000000 1.0
C      1  0.6119780000000  0.5236450000000  0.5421370000000 1.0
C      1  0.4442880000000  0.5319690000000  0.4872670000000 1.0
C      1  0.5023290000000  0.5255030000000  0.5913520000000 1.0
C      1  0.5400370000000  0.4337770000000  0.5024940000000 1.0
C      1  0.5076650000000  0.4358940000000  0.4794190000000 1.0
C      1  0.3931660000000  0.5809870000000  0.5024170000000 1.0
C      1  0.5536530000000  0.4387890000000  0.4735340000000 1.0
C      1  0.5516200000000  0.4475620000000  0.5884650000000 1.0
C      1  0.4591250000000  0.4590350000000  0.5856130000000 1.0
C      1  0.3972700000000  0.4818720000000  0.4687410000000 1.0
C      1  0.5851320000000  0.5123060000000  0.4405710000000 1.0
C      1  0.5224150000000  0.6020810000000  0.4858570000000 1.0
C      1  0.4910240000000  0.4101050000000  0.5639000000000 1.0
C      1  0.4298290000000  0.4218350000000  0.4807890000000 1.0
C      1  0.4427340000000  0.4401330000000  0.5548470000000 1.0
C      1  0.3831600000000  0.4727750000000  0.4947700000000 1.0
C      1  0.4299400000000  0.4574710000000  0.5298670000000 1.0
C      1  0.4999920000000  0.5897760000000  0.4362930000000 1.0
C      1  0.5477200000000  0.4669280000000  0.4597230000000 1.0
C      1  0.6154860000000  0.4983860000000  0.5231140000000 1.0
C      1  0.5718190000000  0.5142050000000  0.5011750000000 1.0
C      1  0.4730510000000  0.4121580000000  0.4499000000000 1.0
C      1  0.5668700000000  0.5191530000000  0.5760030000000 1.0
C      1  0.4451200000000  0.5568930000000  0.5549470000000 1.0
C      1  0.4487260000000  0.4913810000000  0.5146950000000 1.0
C      1  0.4474440000000  0.4810910000000  0.5470880000000 1.0
C      1  0.4017360000000  0.4668100000000  0.5153120000000 1.0
C      1  0.4615400000000  0.4942160000000  0.3922860000000 1.0
C      1  0.4878930000000  0.5087940000000  0.3832360000000 1.0
C      1  0.4958250000000  0.4789170000000  0.6139110000000 1.0
C      1  0.5216100000000  0.5538350000000  0.5938180000000 1.0
C      1  0.5924800000000  0.4315760000000  0.4765280000000 1.0
C      1  0.5007450000000  0.5921410000000  0.5671960000000 1.0
C      1  0.4758740000000  0.5424240000000  0.5539960000000 1.0
C      1  0.5778820000000  0.4809590000000  0.4515970000000 1.0
C      1  0.4477360000000  0.4892520000000  0.5803400000000 1.0
C      1  0.5185610000000  0.4071250000000  0.5679210000000 1.0
C      1  0.4787240000000  0.5149610000000  0.4214560000000 1.0
C      1  0.5232410000000  0.4633660000000  0.5032060000000 1.0
C      1  0.5964370000000  0.5554330000000  0.5009540000000 1.0
C      1  0.4964980000000  0.4394740000000  0.3920510000000 1.0
C      1  0.5696910000000  0.5683530000000  0.5517680000000 1.0
C      1  0.5669230000000  0.5291850000000  0.5448450000000 1.0
C      1  0.5194430000000  0.5171380000000  0.4866010000000 1.0
C      1  0.4391110000000  0.4697870000000  0.4928220000000 1.0
C      1  0.5234110000000  0.5197710000000  0.4473740000000 1.0
C      1  0.5198600000000  0.5292350000000  0.5624560000000 1.0
C      1  0.5470770000000  0.5903300000000  0.4860730000000 1.0
C      1  0.4995710000000  0.5714390000000  0.5263610000000 1.0
C      1  0.4427880000000  0.5477260000000  0.4294060000000 1.0
C      1  0.4957730000000  0.5607550000000  0.5746350000000 1.0
C      1  0.4903110000000  0.4628570000000  0.5116860000000 1.0
C      1  0.4256390000000  0.4312450000000  0.5078990000000 1.0
C      1  0.5571680000000  0.4744070000000  0.5682680000000 1.0
C      1  0.5143640000000  0.5092420000000  0.5251650000000 1.0
C      1  0.5409670000000  0.5071490000000  0.5100340000000 1.0
C      1  0.5115670000000  0.4682740000000  0.3981450000000 1.0
C      1  0.5366940000000  0.4031530000000  0.5443490000000 1.0
C      1  0.6016500000000  0.5338380000000  0.4836400000000 1.0
C      1  0.4396900000000  0.5793400000000  0.4419720000000 1.0
C      1  0.6015800000000  0.4830660000000  0.4795760000000 1.0
C      1  0.5156570000000  0.5242640000000  0.3966410000000 1.0
C      1  0.3910040000000  0.5094720000000  0.5084860000000 1.0
C      1  0.4710370000000  0.5155110000000  0.4522210000000 1.0
C      1  0.5400940000000  0.4505920000000  0.4037040000000 1.0
C      1  0.4725000000000  0.5871170000000  0.5391020000000 1.0
C      1  0.4576810000000  0.5607360000000  0.5235810000000 1.0
C      1  0.5051590000000  0.4507570000000  0.4427990000000 1.0
C      1  0.4678510000000  0.5642590000000  0.5898260000000 1.0
C      1  0.5014010000000  0.3985070000000  0.4628340000000 1.0
C      1  0.5096680000000  0.4177820000000  0.4357780000000 1.0
C      1  0.4959170000000  0.4928190000000  0.4828540000000 1.0
C      1  0.5513230000000  0.5812740000000  0.5262280000000 1.0
C      1  0.5840800000000  0.5753340000000  0.4850110000000 1.0
C      1  0.4324710000000  0.5801060000000  0.4722270000000 1.0
C      1  0.5193920000000  0.4917660000000  0.4465920000000 1.0
C      1  0.5131050000000  0.4514800000000  0.5796990000000 1.0
C      1  0.4321670000000  0.4699470000000  0.4243880000000 1.0
C      1  0.4757260000000  0.4403030000000  0.5624680000000 1.0
C      1  0.3972250000000  0.5290790000000  0.4904830000000 1.0
C      1  0.5153550000000  0.4678050000000  0.4704090000000 1.0
C      1  0.5044280000000  0.3947410000000  0.4966140000000 1.0
C      1  0.4064630000000  0.5934170000000  0.4849500000000 1.0
C      1  0.5357270000000  0.4476940000000  0.4343790000000 1.0
C      1  0.5636980000000  0.5120420000000  0.4188220000000 1.0
C      1  0.4161540000000  0.4944780000000  0.5239450000000 1.0
C      1  0.4601730000000  0.5124460000000  0.5505740000000 1.0
C      1  0.4995290000000  0.5511720000000  0.4027100000000 1.0
C      1  0.4219890000000  0.4359570000000  0.4579180000000 1.0
C      1  0.4805680000000  0.6183720000000  0.5363380000000 1.0
C      1  0.4730200000000  0.5090050000000  0.5027150000000 1.0
C      1  0.5001990000000  0.4316530000000  0.5111570000000 1.0
C      1  0.5735400000000  0.5668230000000  0.4527970000000 1.0
C      1  0.4841580000000  0.4933900000000  0.5645880000000 1.0
C      1  0.4352820000000  0.4433630000000  0.4318950000000 1.0
C      1  0.4123080000000  0.5501650000000  0.5504720000000 1.0
C      1  0.4524890000000  0.5414340000000  0.5910540000000 1.0
C      1  0.4719810000000  0.3862820000000  0.4898140000000 1.0
C      1  0.4871660000000  0.4541290000000  0.5985310000000 1.0
C      1  0.4532390000000  0.4252130000000  0.5268230000000 1.0
C      1  0.5311110000000  0.5607360000000  0.5562180000000 1.0
C      1  0.4760810000000  0.4411400000000  0.4789770000000 1.0
C      1  0.4641350000000  0.4359150000000  0.4306120000000 1.0
C      1  0.5161870000000  0.4951670000000  0.3790410000000 1.0
C      1  0.5766460000000  0.5002550000000  0.5318070000000 1.0
C      1  0.4580480000000  0.4131450000000  0.4773940000000 1.0
C      1  0.5905470000000  0.4571640000000  0.4978550000000 1.0
C      1  0.3647620000000  0.4941450000000  0.5053070000000 1.0
C      1  0.4701610000000  0.5549340000000  0.4471670000000 1.0
C      1  0.5328690000000  0.4985430000000  0.5723040000000 1.0
C      1  0.5946430000000  0.4715640000000  0.5285990000000 1.0
C      1  0.5281170000000  0.4843870000000  0.4211030000000 1.0
C      1  0.5758880000000  0.4412710000000  0.4478690000000 1.0
C      1  0.5324020000000  0.5601180000000  0.5074220000000 1.0
C      1  0.4107940000000  0.5189760000000  0.5639640000000 1.0
C      1  0.5811840000000  0.4934550000000  0.5800000000000 1.0
C      1  0.5022680000000  0.5384310000000  0.4664080000000 1.0
C      1  0.4921500000000  0.4727170000000  0.5442670000000 1.0
C      1  0.5226380000000  0.5904500000000  0.5420210000000 1.0
C      1  0.5772590000000  0.4526960000000  0.5514430000000 1.0
C      1  0.5107550000000  0.6210860000000  0.5332730000000 1.0
C      1  0.4851150000000  0.4830530000000  0.4135980000000 1.0
C      1  0.5543520000000  0.3987620000000  0.4891080000000 1.0
C      1  0.4545510000000  0.5019300000000  0.4750330000000 1.0
C      1  0.4587090000000  0.5752240000000  0.4932940000000 1.0
C      1  0.5094580000000  0.5921570000000  0.4621100000000 1.0
C      1  0.5507610000000  0.5282840000000  0.4784630000000 1.0
C      1  0.4739520000000  0.5995540000000  0.4970430000000 1.0
C      1  0.5469870000000  0.4887820000000  0.4830310000000 1.0
C      1  0.4335110000000  0.5379430000000  0.5189660000000 1.0
C      1  0.5032230000000  0.6007360000000  0.5086430000000 1.0
C      1  0.5499020000000  0.5594280000000  0.4722460000000 1.0
C      1  0.5611660000000  0.4232050000000  0.5568190000000 1.0
C      1  0.4613730000000  0.4509670000000  0.5061560000000 1.0
C      1  0.4186220000000  0.5546130000000  0.4864350000000 1.0
C      1  0.4072700000000  0.5006210000000  0.4207760000000 1.0
C      1  0.4776700000000  0.5332300000000  0.5213040000000 1.0
C      1  0.5169800000000  0.5723140000000  0.4208140000000 1.0
C      1  0.4183270000000  0.5013890000000  0.5840490000000 1.0
C      1  0.6112460000000  0.5141650000000  0.4296720000000 1.0
C      1  0.5404770000000  0.4046100000000  0.4376500000000 1.0
C      1  0.5310900000000  0.4249240000000  0.5895440000000 1.0
C      1  0.5704990000000  0.5950580000000  0.5031930000000 1.0
C      1  0.3898780000000  0.4891000000000  0.4383690000000 1.0
C      1  0.4260100000000  0.5238390000000  0.4353930000000 1.0
C      1  0.5436170000000  0.5207780000000  0.5934760000000 1.0
C      1  0.5327550000000  0.4416430000000  0.5537280000000 1.0
C      1  0.4719420000000  0.5851480000000  0.4383950000000 1.0
C      1  0.4133250000000  0.5226370000000  0.4640360000000 1.0
C      1  0.4365820000000  0.4964300000000  0.4053800000000 1.0
C      1  0.4718590000000  0.4733130000000  0.4687840000000 1.0
C      1  0.5427110000000  0.5427730000000  0.5328020000000 1.0
C      1  0.5979510000000  0.5014240000000  0.5582900000000 1.0
C      1  0.5201440000000  0.4803450000000  0.5309680000000 1.0
C      1  0.5312130000000  0.4136310000000  0.4691020000000 1.0
C      1  0.5248470000000  0.5293500000000  0.6165370000000 1.0
C      1  0.4665890000000  0.5425510000000  0.4056820000000 1.0
C      1  0.5381470000000  0.5302150000000  0.4217080000000 1.0
C      1  0.4781910000000  0.4099750000000  0.5117430000000 1.0
C      1  0.4222070000000  0.4983600000000  0.4849480000000 1.0
C      1  0.4710160000000  0.5482480000000  0.4772600000000 1.0
C      1  0.5032390000000  0.4415220000000  0.5425160000000 1.0
C      1  0.4061480000000  0.5566510000000  0.5180200000000 1.0
C      1  0.5559270000000  0.4857160000000  0.4140520000000 1.0
C      1  0.5503720000000  0.5662970000000  0.5802930000000 1.0
C      1  0.5086010000000  0.4834850000000  0.5825170000000 1.0
C      1  0.6024570000000  0.4585620000000  0.4587570000000 1.0
C      1  0.4883610000000  0.4245690000000  0.4139420000000 1.0
C      1  0.5810120000000  0.4041900000000  0.4850740000000 1.0
C      1  0.5638590000000  0.4751620000000  0.5034900000000 1.0
C      1  0.4767990000000  0.4983250000000  0.6187720000000 1.0
C      1  0.4665850000000  0.4036130000000  0.5494510000000 1.0
C      1  0.5915330000000  0.5490860000000  0.5340510000000 1.0
C      1  0.5467080000000  0.5613420000000  0.4324390000000 1.0
C      1  0.4707020000000  0.5127810000000  0.5890830000000 1.0
C      1  0.4248790000000  0.4655830000000  0.4633940000000 1.0
C      1  0.5512400000000  0.4778680000000  0.5349550000000 1.0
C      1  0.4358760000000  0.4937500000000  0.4477940000000 1.0
C      1  0.5700710000000  0.4571420000000  0.4183500000000 1.0
C      1  0.5189870000000  0.5635640000000  0.4763600000000 1.0
END
