TITL C-2848504-8560-1 -0.00143841256860759 125000 -179.652302255685 0 0 33 (C1) n - 1
REM
REM in /home/bkarasulu/work/CARBON/AIRSS/Generating-Clusters/AIREBO/with-SteepDescent/Only-C1/SD-CG-opt/Try1-1.4A-POS3A/HFTN-CG
REM
REM
REM
REM
REM
REM ./C.cell (11c1c37f851c82e70ff6c80c92926a4b)
REM
REM compiler GCC version 9.2.1 20190827 (Red Hat 9.2.1-1)
REM options -cpp -mtune=generic -march=x86-64 -g -O0 -fpre-include=/usr/include/finclude/math-vector-fortran.h
REM seed -181473938 -1281125146 271104363 -1366968851 -1275534143 1986503149 1161075840 2085829113 338362018 1246390104 685785068 2057561366 2056539888 1332164727 -1921661367 1170552547 -80791511 1634219172 -1053862724 -1533785520 1077251451 1478252118 -1787451050 612615996 -470600472 -1922005027 748756162 -2111080672 1682284725 -26436768 -1287559811 1587472404 1757869951
REM
CELL 1.54180   50.00000   50.00000   50.00000   90.00000   90.00000   90.00000
LATT -1
SFAC C  
C      1  0.5523410000000  0.5206180000000  0.4719800000000 1.0
C      1  0.5150900000000  0.4351680000000  0.4688670000000 1.0
C      1  0.4803970000000  0.5361060000000  0.4495970000000 1.0
C      1  0.4566990000000  0.5428770000000  0.4697350000000 1.0
C      1  0.4988130000000  0.5387460000000  0.4981530000000 1.0
C      1  0.4788090000000  0.4328700000000  0.5543720000000 1.0
C      1  0.4563880000000  0.4822830000000  0.4692160000000 1.0
C      1  0.5329400000000  0.4807650000000  0.4957500000000 1.0
C      1  0.4749060000000  0.4798400000000  0.5391500000000 1.0
C      1  0.5452330000000  0.4803820000000  0.5474920000000 1.0
C      1  0.4938340000000  0.4960970000000  0.5520720000000 1.0
C      1  0.5102600000000  0.5437560000000  0.5238650000000 1.0
C      1  0.5045750000000  0.5520510000000  0.4607380000000 1.0
C      1  0.4865410000000  0.4468490000000  0.5076280000000 1.0
C      1  0.5043100000000  0.4860480000000  0.4781820000000 1.0
C      1  0.4755170000000  0.4143700000000  0.5726430000000 1.0
C      1  0.4675210000000  0.4932180000000  0.5136630000000 1.0
C      1  0.4415630000000  0.5244610000000  0.4847760000000 1.0
C      1  0.5237630000000  0.4933680000000  0.5372890000000 1.0
C      1  0.5418610000000  0.5655000000000  0.4958270000000 1.0
C      1  0.5532070000000  0.5001310000000  0.4862670000000 1.0
C      1  0.4796440000000  0.4519860000000  0.5345410000000 1.0
C      1  0.5020650000000  0.4528510000000  0.4851930000000 1.0
C      1  0.5326040000000  0.5457440000000  0.4733370000000 1.0
C      1  0.4823300000000  0.5098970000000  0.4394330000000 1.0
C      1  0.5014860000000  0.4913390000000  0.5116570000000 1.0
C      1  0.5416240000000  0.4538480000000  0.5028050000000 1.0
C      1  0.5308540000000  0.5631030000000  0.5211820000000 1.0
C      1  0.5134420000000  0.5186940000000  0.4809280000000 1.0
C      1  0.4506730000000  0.4985230000000  0.4918980000000 1.0
C      1  0.4807780000000  0.5574500000000  0.4831020000000 1.0
C      1  0.5086350000000  0.5227990000000  0.5412910000000 1.0
C      1  0.4812980000000  0.4882610000000  0.4573690000000 1.0
END
