TITL C-2847957-7266-496 -0.00202164169533046 125000 -964.007293857109 0 0 179 (C1) n - 1
REM
REM in /home/bkarasulu/work/CARBON/AIRSS/Generating-Clusters/AIREBO/with-SteepDescent/Only-C1/SD-CG-opt/Try1-1.4A-POS3A/HFTN-CG
REM
REM
REM
REM
REM
REM ./C.cell (11c1c37f851c82e70ff6c80c92926a4b)
REM
REM compiler GCC version 9.2.1 20190827 (Red Hat 9.2.1-1)
REM options -cpp -mtune=generic -march=x86-64 -g -O0 -fpre-include=/usr/include/finclude/math-vector-fortran.h
REM seed -2006011554 -141203802 -935385157 -1983173570 -1044455058 1287492947 1852053648 1721549040 460258947 -1742456494 88119065 979052688 573150628 -812295432 -2005988715 550558485 505500325 -1768382615 32738836 -18781205 -1651858971 -610109473 -1140081626 877168074 1021661270 2130952200 -485748687 -67244805 512137707 122721858 -1780278764 -1444019059 1236037412
REM
CELL 1.54180   50.00000   50.00000   50.00000   90.00000   90.00000   90.00000
LATT -1
SFAC C  
C      1  0.5819340000000  0.5432060000000  0.4819200000000 1.0
C      1  0.3885610000000  0.4557110000000  0.4902860000000 1.0
C      1  0.5130980000000  0.5129160000000  0.4070150000000 1.0
C      1  0.4904120000000  0.6192930000000  0.4546940000000 1.0
C      1  0.4155020000000  0.5131690000000  0.5666730000000 1.0
C      1  0.5030080000000  0.5136570000000  0.5272330000000 1.0
C      1  0.5102550000000  0.4171590000000  0.5655860000000 1.0
C      1  0.4550000000000  0.4186610000000  0.4549750000000 1.0
C      1  0.4485150000000  0.5638240000000  0.5416970000000 1.0
C      1  0.4731450000000  0.5522780000000  0.4481970000000 1.0
C      1  0.4469460000000  0.5240200000000  0.4146200000000 1.0
C      1  0.4365860000000  0.5664460000000  0.4701960000000 1.0
C      1  0.4376630000000  0.5325870000000  0.5496790000000 1.0
C      1  0.5500080000000  0.4564050000000  0.5961910000000 1.0
C      1  0.5377270000000  0.4840860000000  0.6046960000000 1.0
C      1  0.4266940000000  0.4217460000000  0.4688720000000 1.0
C      1  0.4610550000000  0.4340740000000  0.4846730000000 1.0
C      1  0.5272830000000  0.4739840000000  0.5334930000000 1.0
C      1  0.4764670000000  0.4635230000000  0.5602190000000 1.0
C      1  0.4672580000000  0.4921010000000  0.4517990000000 1.0
C      1  0.4497840000000  0.4988470000000  0.4273670000000 1.0
C      1  0.4725620000000  0.4752060000000  0.4046020000000 1.0
C      1  0.5692430000000  0.5049590000000  0.5215960000000 1.0
C      1  0.5413760000000  0.5119270000000  0.5021190000000 1.0
C      1  0.4316790000000  0.5473030000000  0.4978720000000 1.0
C      1  0.4858390000000  0.5002110000000  0.3929730000000 1.0
C      1  0.4133090000000  0.4353800000000  0.4962160000000 1.0
C      1  0.5927880000000  0.5235520000000  0.4563630000000 1.0
C      1  0.4957560000000  0.5438160000000  0.5584730000000 1.0
C      1  0.4695960000000  0.4404600000000  0.5936830000000 1.0
C      1  0.5608820000000  0.5638890000000  0.5550150000000 1.0
C      1  0.4586850000000  0.5819670000000  0.4560240000000 1.0
C      1  0.5067360000000  0.4551980000000  0.4547430000000 1.0
C      1  0.5607010000000  0.5941180000000  0.5188090000000 1.0
C      1  0.5606410000000  0.4085410000000  0.5344950000000 1.0
C      1  0.5114790000000  0.4709920000000  0.3838290000000 1.0
C      1  0.5290160000000  0.5933960000000  0.5263870000000 1.0
C      1  0.5949470000000  0.4942830000000  0.4827880000000 1.0
C      1  0.4747490000000  0.5096420000000  0.4943930000000 1.0
C      1  0.4389170000000  0.4747040000000  0.4121170000000 1.0
C      1  0.4656540000000  0.5907070000000  0.5654290000000 1.0
C      1  0.4568200000000  0.4670630000000  0.4724970000000 1.0
C      1  0.5823730000000  0.4646070000000  0.4835600000000 1.0
C      1  0.5727860000000  0.5069220000000  0.5553580000000 1.0
C      1  0.5163460000000  0.5063690000000  0.4827160000000 1.0
C      1  0.5531570000000  0.4829120000000  0.4542120000000 1.0
C      1  0.5326310000000  0.5133600000000  0.5349440000000 1.0
C      1  0.4744880000000  0.4128160000000  0.5360690000000 1.0
C      1  0.4384430000000  0.5452850000000  0.4297180000000 1.0
C      1  0.5505490000000  0.5371820000000  0.4729390000000 1.0
C      1  0.5676090000000  0.4216600000000  0.4191340000000 1.0
C      1  0.5355570000000  0.4563930000000  0.4662320000000 1.0
C      1  0.5132550000000  0.5747280000000  0.5767780000000 1.0
C      1  0.5563120000000  0.4774990000000  0.5508610000000 1.0
C      1  0.4892380000000  0.4586970000000  0.4256800000000 1.0
C      1  0.5337750000000  0.4314970000000  0.5855590000000 1.0
C      1  0.4284600000000  0.4989610000000  0.5859840000000 1.0
C      1  0.5083010000000  0.6069360000000  0.5028940000000 1.0
C      1  0.4354170000000  0.4748690000000  0.4940860000000 1.0
C      1  0.5873330000000  0.4857720000000  0.5776800000000 1.0
C      1  0.4383570000000  0.5365500000000  0.4599540000000 1.0
C      1  0.5304720000000  0.4470780000000  0.5492070000000 1.0
C      1  0.5087250000000  0.5596350000000  0.6025330000000 1.0
C      1  0.4886260000000  0.4483960000000  0.5253990000000 1.0
C      1  0.5406020000000  0.5567890000000  0.4489140000000 1.0
C      1  0.4644500000000  0.5212500000000  0.5221330000000 1.0
C      1  0.5761130000000  0.5122150000000  0.5902490000000 1.0
C      1  0.4877040000000  0.3930860000000  0.5573280000000 1.0
C      1  0.4690620000000  0.5232160000000  0.4654000000000 1.0
C      1  0.4634870000000  0.5230620000000  0.6004630000000 1.0
C      1  0.5414390000000  0.5161170000000  0.3989800000000 1.0
C      1  0.5317720000000  0.4830530000000  0.5726580000000 1.0
C      1  0.4156530000000  0.5466250000000  0.5278800000000 1.0
C      1  0.5194980000000  0.4233410000000  0.5038200000000 1.0
C      1  0.5433120000000  0.4359050000000  0.4933660000000 1.0
C      1  0.4325930000000  0.4527250000000  0.5182190000000 1.0
C      1  0.4636320000000  0.4840850000000  0.5362770000000 1.0
C      1  0.5093630000000  0.5535070000000  0.5343990000000 1.0
C      1  0.5083120000000  0.4918700000000  0.6066630000000 1.0
C      1  0.4948130000000  0.4332180000000  0.4859280000000 1.0
C      1  0.5588430000000  0.4038380000000  0.4404000000000 1.0
C      1  0.5293820000000  0.4025110000000  0.4391770000000 1.0
C      1  0.5635000000000  0.4999690000000  0.4184550000000 1.0
C      1  0.5635060000000  0.5059580000000  0.4769990000000 1.0
C      1  0.5397570000000  0.5611890000000  0.5284060000000 1.0
C      1  0.4956330000000  0.4863810000000  0.4933980000000 1.0
C      1  0.4490670000000  0.5726320000000  0.4247750000000 1.0
C      1  0.5836250000000  0.4944840000000  0.4444900000000 1.0
C      1  0.5436680000000  0.3979980000000  0.4808110000000 1.0
C      1  0.4067860000000  0.4704550000000  0.5450040000000 1.0
C      1  0.4713000000000  0.4600370000000  0.6092740000000 1.0
C      1  0.5900510000000  0.4786920000000  0.5231120000000 1.0
C      1  0.4930350000000  0.5764990000000  0.5229060000000 1.0
C      1  0.5332930000000  0.5277310000000  0.4381430000000 1.0
C      1  0.5901570000000  0.4204010000000  0.4930010000000 1.0
C      1  0.4981380000000  0.5895590000000  0.4450430000000 1.0
C      1  0.5793570000000  0.5379350000000  0.5430010000000 1.0
C      1  0.3975690000000  0.4967560000000  0.5512280000000 1.0
C      1  0.4110430000000  0.5676260000000  0.5542190000000 1.0
C      1  0.4789510000000  0.5999200000000  0.5430330000000 1.0
C      1  0.4653010000000  0.5472760000000  0.5029860000000 1.0
C      1  0.4997240000000  0.4306470000000  0.4338000000000 1.0
C      1  0.4986290000000  0.4926940000000  0.4439110000000 1.0
C      1  0.4011460000000  0.4995890000000  0.4663380000000 1.0
C      1  0.6074050000000  0.5017230000000  0.5108020000000 1.0
C      1  0.5337390000000  0.5840210000000  0.5594770000000 1.0
C      1  0.4612660000000  0.5761200000000  0.5162210000000 1.0
C      1  0.4194740000000  0.5220590000000  0.4782370000000 1.0
C      1  0.4359370000000  0.5846100000000  0.5618260000000 1.0
C      1  0.5446540000000  0.4719710000000  0.4225960000000 1.0
C      1  0.4093590000000  0.4744400000000  0.4199490000000 1.0
C      1  0.4976920000000  0.5393220000000  0.5076660000000 1.0
C      1  0.4963060000000  0.5110070000000  0.5812400000000 1.0
C      1  0.4599390000000  0.4371240000000  0.5172550000000 1.0
C      1  0.5754660000000  0.4541590000000  0.5348400000000 1.0
C      1  0.5478980000000  0.5798960000000  0.4270210000000 1.0
C      1  0.5528760000000  0.4266040000000  0.5584720000000 1.0
C      1  0.4385350000000  0.3818600000000  0.4895680000000 1.0
C      1  0.5869600000000  0.5490080000000  0.5114770000000 1.0
C      1  0.4817230000000  0.5822840000000  0.4235020000000 1.0
C      1  0.5922520000000  0.4395650000000  0.4653670000000 1.0
C      1  0.5577820000000  0.5077050000000  0.6099220000000 1.0
C      1  0.4522660000000  0.4582680000000  0.3856390000000 1.0
C      1  0.4744020000000  0.6022910000000  0.4989170000000 1.0
C      1  0.5073850000000  0.4640580000000  0.5665220000000 1.0
C      1  0.5408380000000  0.5380460000000  0.5532950000000 1.0
C      1  0.4802990000000  0.5663060000000  0.5753780000000 1.0
C      1  0.3900870000000  0.5215480000000  0.5109780000000 1.0
C      1  0.4830930000000  0.4071940000000  0.5044070000000 1.0
C      1  0.5710630000000  0.4126920000000  0.4670250000000 1.0
C      1  0.4161520000000  0.5010720000000  0.5033650000000 1.0
C      1  0.4004280000000  0.4458560000000  0.5268600000000 1.0
C      1  0.4171930000000  0.5776450000000  0.5029630000000 1.0
C      1  0.4742710000000  0.4907760000000  0.5974370000000 1.0
C      1  0.4695550000000  0.6054540000000  0.4691750000000 1.0
C      1  0.5113580000000  0.4277660000000  0.5331940000000 1.0
C      1  0.4815870000000  0.5500880000000  0.4158180000000 1.0
C      1  0.5185350000000  0.5966130000000  0.4713570000000 1.0
C      1  0.5759850000000  0.5700300000000  0.4611200000000 1.0
C      1  0.4792310000000  0.4310770000000  0.5643650000000 1.0
C      1  0.5551880000000  0.4644760000000  0.4905960000000 1.0
C      1  0.4382190000000  0.5055870000000  0.5289950000000 1.0
C      1  0.4954810000000  0.4805840000000  0.5248750000000 1.0
C      1  0.5247960000000  0.4238100000000  0.4179770000000 1.0
C      1  0.4794610000000  0.4094450000000  0.4447300000000 1.0
C      1  0.3790750000000  0.5104370000000  0.5346280000000 1.0
C      1  0.5690840000000  0.4307130000000  0.5127940000000 1.0
C      1  0.6055290000000  0.5259610000000  0.5248880000000 1.0
C      1  0.5060590000000  0.3973600000000  0.4549550000000 1.0
C      1  0.6023100000000  0.4717110000000  0.4582740000000 1.0
C      1  0.5475360000000  0.4808110000000  0.5121150000000 1.0
C      1  0.5101280000000  0.3964560000000  0.4862700000000 1.0
C      1  0.3928990000000  0.5535880000000  0.5035930000000 1.0
C      1  0.4389870000000  0.5981170000000  0.5029480000000 1.0
C      1  0.3924080000000  0.4818640000000  0.4878520000000 1.0
C      1  0.5760290000000  0.4605230000000  0.5840230000000 1.0
C      1  0.5800320000000  0.5790100000000  0.5167230000000 1.0
C      1  0.5804140000000  0.5466290000000  0.4422030000000 1.0
C      1  0.5019310000000  0.5299090000000  0.4628520000000 1.0
C      1  0.4554350000000  0.4009380000000  0.4906240000000 1.0
C      1  0.4874840000000  0.4632810000000  0.4778130000000 1.0
C      1  0.4759400000000  0.5154370000000  0.3657270000000 1.0
C      1  0.5473630000000  0.4424530000000  0.4144970000000 1.0
C      1  0.5196380000000  0.5460460000000  0.4836810000000 1.0
C      1  0.3999690000000  0.4901070000000  0.4402600000000 1.0
C      1  0.5127010000000  0.4807830000000  0.4153280000000 1.0
C      1  0.5618240000000  0.5334180000000  0.4243530000000 1.0
C      1  0.4918450000000  0.5377900000000  0.6017050000000 1.0
C      1  0.5281270000000  0.5019940000000  0.4528040000000 1.0
C      1  0.5033860000000  0.5334490000000  0.4295580000000 1.0
C      1  0.4381690000000  0.4658860000000  0.5492720000000 1.0
C      1  0.4524380000000  0.4829320000000  0.5744320000000 1.0
C      1  0.5246690000000  0.5132850000000  0.5666760000000 1.0
C      1  0.5797540000000  0.4417950000000  0.5639750000000 1.0
C      1  0.4694710000000  0.5301940000000  0.3955350000000 1.0
C      1  0.4587640000000  0.5399740000000  0.5755200000000 1.0
C      1  0.5128320000000  0.5741220000000  0.4953550000000 1.0
C      1  0.4806490000000  0.5167150000000  0.5516030000000 1.0
C      1  0.5472380000000  0.5881850000000  0.4601520000000 1.0
END
