TITL C-2847957-7266-566 0.000644659292001606 125000 -752.125472782094 0 0 142 (C1) n - 1
REM
REM in /home/bkarasulu/work/CARBON/AIRSS/Generating-Clusters/AIREBO/with-SteepDescent/Only-C1/SD-CG-opt/Try1-1.4A-POS3A/HFTN-CG
REM
REM
REM
REM
REM
REM ./C.cell (11c1c37f851c82e70ff6c80c92926a4b)
REM
REM compiler GCC version 9.2.1 20190827 (Red Hat 9.2.1-1)
REM options -cpp -mtune=generic -march=x86-64 -g -O0 -fpre-include=/usr/include/finclude/math-vector-fortran.h
REM seed -220085938 165587120 -1203886188 874356376 1218482750 1732442140 -470176010 -1781356352 -942085296 571248360 -1408127816 369337520 805625995 476456274 803432563 2037990900 370331830 -1829555403 664119976 1653171604 1415218709 819265606 -1197488264 100678169 -468104859 -516766152 659508832 400316554 -1712039460 1793141194 1358461205 -2101438890 1686517610
REM
CELL 1.54180   50.00000   50.00000   50.00000   90.00000   90.00000   90.00000
LATT -1
SFAC C  
C      1  0.5346100000000  0.5715720000000  0.4675200000000 1.0
C      1  0.5324010000000  0.4695780000000  0.5614930000000 1.0
C      1  0.4375580000000  0.5539590000000  0.5209560000000 1.0
C      1  0.4978440000000  0.4074080000000  0.5451430000000 1.0
C      1  0.5370420000000  0.5002240000000  0.4181700000000 1.0
C      1  0.4658420000000  0.5402910000000  0.5208120000000 1.0
C      1  0.5064750000000  0.4585300000000  0.4230970000000 1.0
C      1  0.5855830000000  0.4293870000000  0.5336760000000 1.0
C      1  0.4940700000000  0.4677930000000  0.5508490000000 1.0
C      1  0.4992880000000  0.5336110000000  0.4660660000000 1.0
C      1  0.5716490000000  0.4352620000000  0.4562920000000 1.0
C      1  0.5657510000000  0.5080430000000  0.4993740000000 1.0
C      1  0.4029810000000  0.5074070000000  0.4455820000000 1.0
C      1  0.5371200000000  0.5144510000000  0.5791310000000 1.0
C      1  0.5747840000000  0.4868110000000  0.4576610000000 1.0
C      1  0.5068780000000  0.5820580000000  0.5988060000000 1.0
C      1  0.5516250000000  0.4544190000000  0.4277470000000 1.0
C      1  0.4394530000000  0.5456920000000  0.4383490000000 1.0
C      1  0.5015640000000  0.6447490000000  0.5125500000000 1.0
C      1  0.4153680000000  0.5387750000000  0.5405400000000 1.0
C      1  0.4635330000000  0.4255870000000  0.4862580000000 1.0
C      1  0.5453070000000  0.5291270000000  0.4340690000000 1.0
C      1  0.5045680000000  0.5578100000000  0.5886730000000 1.0
C      1  0.5463310000000  0.4485950000000  0.4746710000000 1.0
C      1  0.5122960000000  0.4281080000000  0.4179290000000 1.0
C      1  0.4975170000000  0.4099770000000  0.5736990000000 1.0
C      1  0.4618520000000  0.5524810000000  0.4893210000000 1.0
C      1  0.4890820000000  0.5540690000000  0.5388540000000 1.0
C      1  0.4948550000000  0.5456080000000  0.4937490000000 1.0
C      1  0.4541650000000  0.4767400000000  0.4851890000000 1.0
C      1  0.5272510000000  0.5129100000000  0.5088000000000 1.0
C      1  0.4749210000000  0.5263470000000  0.4210390000000 1.0
C      1  0.5407300000000  0.4563850000000  0.5824020000000 1.0
C      1  0.4381790000000  0.5592040000000  0.5553330000000 1.0
C      1  0.4110860000000  0.4670620000000  0.4613220000000 1.0
C      1  0.5335370000000  0.6087870000000  0.5002460000000 1.0
C      1  0.4473890000000  0.4119920000000  0.5054660000000 1.0
C      1  0.4702630000000  0.5106020000000  0.5083320000000 1.0
C      1  0.4483440000000  0.4288860000000  0.4269050000000 1.0
C      1  0.5085710000000  0.6183110000000  0.5098600000000 1.0
C      1  0.5385570000000  0.4290880000000  0.5214750000000 1.0
C      1  0.5388640000000  0.5389050000000  0.4660000000000 1.0
C      1  0.5142370000000  0.5847970000000  0.4491460000000 1.0
C      1  0.5106340000000  0.3945340000000  0.4944800000000 1.0
C      1  0.4841270000000  0.4591740000000  0.4454580000000 1.0
C      1  0.4623580000000  0.4945370000000  0.6067600000000 1.0
C      1  0.5109680000000  0.4928800000000  0.5583190000000 1.0
C      1  0.4154240000000  0.4460770000000  0.5309240000000 1.0
C      1  0.5648760000000  0.4126090000000  0.5280170000000 1.0
C      1  0.5735300000000  0.4561710000000  0.5458730000000 1.0
C      1  0.5849450000000  0.5295950000000  0.5417220000000 1.0
C      1  0.5692520000000  0.4380690000000  0.4974920000000 1.0
C      1  0.4902700000000  0.4842220000000  0.5005430000000 1.0
C      1  0.4289670000000  0.5613030000000  0.4896290000000 1.0
C      1  0.4330960000000  0.4574880000000  0.4384780000000 1.0
C      1  0.4708490000000  0.5433760000000  0.4501880000000 1.0
C      1  0.4859440000000  0.4834680000000  0.5977210000000 1.0
C      1  0.5295490000000  0.4863330000000  0.4935420000000 1.0
C      1  0.5778400000000  0.4598670000000  0.4403250000000 1.0
C      1  0.4822210000000  0.4608710000000  0.5788340000000 1.0
C      1  0.5046480000000  0.5078030000000  0.5872900000000 1.0
C      1  0.3984380000000  0.5360340000000  0.4461290000000 1.0
C      1  0.5330050000000  0.5817730000000  0.4952450000000 1.0
C      1  0.5883070000000  0.5103130000000  0.5637600000000 1.0
C      1  0.5126230000000  0.3952720000000  0.5903210000000 1.0
C      1  0.5102080000000  0.5668110000000  0.5154510000000 1.0
C      1  0.4543800000000  0.4388070000000  0.5606190000000 1.0
C      1  0.4522390000000  0.5126000000000  0.5899850000000 1.0
C      1  0.4666000000000  0.5160720000000  0.5591070000000 1.0
C      1  0.5721290000000  0.4054870000000  0.4588290000000 1.0
C      1  0.5005230000000  0.5212230000000  0.5152120000000 1.0
C      1  0.5207300000000  0.6065010000000  0.4358150000000 1.0
C      1  0.4514390000000  0.5085320000000  0.4479590000000 1.0
C      1  0.5592830000000  0.5588830000000  0.4275630000000 1.0
C      1  0.5838880000000  0.5219810000000  0.4741970000000 1.0
C      1  0.5501170000000  0.4948870000000  0.5265630000000 1.0
C      1  0.4966610000000  0.4965140000000  0.4514030000000 1.0
C      1  0.4958230000000  0.6698330000000  0.5175200000000 1.0
C      1  0.5585740000000  0.4106660000000  0.4848970000000 1.0
C      1  0.5270040000000  0.4618330000000  0.4500040000000 1.0
C      1  0.5075280000000  0.4831840000000  0.3765330000000 1.0
C      1  0.5454150000000  0.5350810000000  0.4959930000000 1.0
C      1  0.4854370000000  0.5345670000000  0.5891520000000 1.0
C      1  0.5989740000000  0.4934480000000  0.4814990000000 1.0
C      1  0.4194580000000  0.5540310000000  0.4576780000000 1.0
C      1  0.5424160000000  0.4919790000000  0.4485810000000 1.0
C      1  0.5188120000000  0.5399440000000  0.5681530000000 1.0
C      1  0.4642850000000  0.5737600000000  0.5428400000000 1.0
C      1  0.5869670000000  0.4578970000000  0.5154120000000 1.0
C      1  0.5106130000000  0.4108400000000  0.4368410000000 1.0
C      1  0.4219820000000  0.4886240000000  0.4298800000000 1.0
C      1  0.4478000000000  0.5889210000000  0.4971580000000 1.0
C      1  0.4925580000000  0.5962910000000  0.5157270000000 1.0
C      1  0.4978990000000  0.5067970000000  0.4226400000000 1.0
C      1  0.5820650000000  0.5537820000000  0.4687480000000 1.0
C      1  0.5657500000000  0.5503480000000  0.5410350000000 1.0
C      1  0.5752900000000  0.5174080000000  0.4428420000000 1.0
C      1  0.4064390000000  0.5365260000000  0.5078110000000 1.0
C      1  0.4409760000000  0.4936380000000  0.5115910000000 1.0
C      1  0.5362930000000  0.5476880000000  0.5262260000000 1.0
C      1  0.4661890000000  0.5802660000000  0.4721960000000 1.0
C      1  0.4977750000000  0.5224740000000  0.5479420000000 1.0
C      1  0.4727920000000  0.4769090000000  0.5287860000000 1.0
C      1  0.4548340000000  0.4694490000000  0.5556360000000 1.0
C      1  0.4837230000000  0.5748060000000  0.4483620000000 1.0
C      1  0.4503240000000  0.5274560000000  0.4721820000000 1.0
C      1  0.4031810000000  0.4974460000000  0.4743760000000 1.0
C      1  0.5004480000000  0.4102470000000  0.4662500000000 1.0
C      1  0.5992350000000  0.4849790000000  0.5128090000000 1.0
C      1  0.5635590000000  0.5679140000000  0.4542030000000 1.0
C      1  0.4181330000000  0.5118370000000  0.5517990000000 1.0
C      1  0.6058720000000  0.4931290000000  0.5453300000000 1.0
C      1  0.4954950000000  0.4319380000000  0.4972090000000 1.0
C      1  0.5227050000000  0.5091510000000  0.4692390000000 1.0
C      1  0.4730520000000  0.4553750000000  0.4953040000000 1.0
C      1  0.4788620000000  0.4297010000000  0.5818340000000 1.0
C      1  0.5400720000000  0.5200830000000  0.5457300000000 1.0
C      1  0.4570730000000  0.4460740000000  0.4599000000000 1.0
C      1  0.5685440000000  0.5118170000000  0.5840270000000 1.0
C      1  0.4381500000000  0.4247710000000  0.5341880000000 1.0
C      1  0.5144020000000  0.4663120000000  0.5164530000000 1.0
C      1  0.4348300000000  0.5179560000000  0.4239910000000 1.0
C      1  0.4987730000000  0.5582580000000  0.4238100000000 1.0
C      1  0.4182480000000  0.4677350000000  0.5155330000000 1.0
C      1  0.4434540000000  0.4980780000000  0.5452270000000 1.0
C      1  0.5116830000000  0.4843690000000  0.4063190000000 1.0
C      1  0.4268630000000  0.5149980000000  0.4913730000000 1.0
C      1  0.4715850000000  0.4216760000000  0.5381440000000 1.0
C      1  0.5146490000000  0.4064680000000  0.5232660000000 1.0
C      1  0.4248360000000  0.4665450000000  0.4871720000000 1.0
C      1  0.5116850000000  0.5342020000000  0.4343380000000 1.0
C      1  0.4929600000000  0.4429820000000  0.5276240000000 1.0
C      1  0.5915280000000  0.5177590000000  0.5175310000000 1.0
C      1  0.3872870000000  0.5166370000000  0.4953940000000 1.0
C      1  0.5275110000000  0.4236590000000  0.4896620000000 1.0
C      1  0.5432630000000  0.4617120000000  0.5314010000000 1.0
C      1  0.5011500000000  0.4705940000000  0.4713400000000 1.0
C      1  0.4551290000000  0.5427490000000  0.5760220000000 1.0
C      1  0.4661910000000  0.4849520000000  0.4585350000000 1.0
C      1  0.4729840000000  0.4184980000000  0.4479490000000 1.0
C      1  0.4645960000000  0.5917880000000  0.5207620000000 1.0
C      1  0.5586300000000  0.4776990000000  0.4857860000000 1.0
END
