TITL C-2847951-7423-68 -0.000349366120676618 125000 -662.458093043007 0 0 124 (C1) n - 1
REM
REM in /home/bkarasulu/work/CARBON/AIRSS/Generating-Clusters/AIREBO/with-SteepDescent/Only-C1/SD-CG-opt/Try1-1.4A-POS3A/HFTN-CG
REM
REM
REM
REM
REM
REM ./C.cell (11c1c37f851c82e70ff6c80c92926a4b)
REM
REM compiler GCC version 9.2.1 20190827 (Red Hat 9.2.1-1)
REM options -cpp -mtune=generic -march=x86-64 -g -O0 -fpre-include=/usr/include/finclude/math-vector-fortran.h
REM seed -187637697 589847990 277434772 -161371204 1179200136 -283462527 -440181936 -887134914 663850117 2096176322 1574109116 -2027460428 2010640583 1267114426 -1754204993 -1262981125 2006145058 1508279701 -1900290239 1613467576 1841253387 -1996700012 -2105942346 -2001108319 -1503896727 -1330869884 -745180668 -508705184 1340570712 425505921 -922943322 -1692727598 1252663881
REM
CELL 1.54180   50.00000   50.00000   50.00000   90.00000   90.00000   90.00000
LATT -1
SFAC C  
C      1  0.5279880000000  0.5154600000000  0.4547020000000 1.0
C      1  0.5061270000000  0.4436880000000  0.5678740000000 1.0
C      1  0.4817770000000  0.5413260000000  0.4197030000000 1.0
C      1  0.4542430000000  0.5354170000000  0.4204070000000 1.0
C      1  0.4535600000000  0.5021980000000  0.4273520000000 1.0
C      1  0.4515030000000  0.4740950000000  0.5398880000000 1.0
C      1  0.5514060000000  0.5830730000000  0.5533720000000 1.0
C      1  0.4028740000000  0.5123580000000  0.5168700000000 1.0
C      1  0.4980360000000  0.5264960000000  0.5885450000000 1.0
C      1  0.4581970000000  0.5103340000000  0.4600540000000 1.0
C      1  0.5088860000000  0.5967110000000  0.5183200000000 1.0
C      1  0.5746540000000  0.5436260000000  0.4812100000000 1.0
C      1  0.5796280000000  0.4798150000000  0.4242310000000 1.0
C      1  0.5115720000000  0.3951990000000  0.5190520000000 1.0
C      1  0.4334870000000  0.5606070000000  0.4841910000000 1.0
C      1  0.5744120000000  0.5497940000000  0.5146570000000 1.0
C      1  0.4978110000000  0.5305120000000  0.4943400000000 1.0
C      1  0.5175500000000  0.5443750000000  0.5562830000000 1.0
C      1  0.4488980000000  0.5776740000000  0.4695640000000 1.0
C      1  0.5286480000000  0.5502460000000  0.5257810000000 1.0
C      1  0.5328380000000  0.5824250000000  0.5180100000000 1.0
C      1  0.4731600000000  0.4826970000000  0.4144350000000 1.0
C      1  0.4093400000000  0.5377870000000  0.5309790000000 1.0
C      1  0.4781850000000  0.5359080000000  0.4702190000000 1.0
C      1  0.5874150000000  0.5028610000000  0.5200420000000 1.0
C      1  0.5396970000000  0.4490410000000  0.5667630000000 1.0
C      1  0.4209010000000  0.5623710000000  0.5101230000000 1.0
C      1  0.4957210000000  0.4629020000000  0.4650920000000 1.0
C      1  0.4184960000000  0.4674650000000  0.5350170000000 1.0
C      1  0.5291930000000  0.5074210000000  0.4058970000000 1.0
C      1  0.4461240000000  0.5087620000000  0.5351590000000 1.0
C      1  0.5688860000000  0.4568880000000  0.4348770000000 1.0
C      1  0.5457000000000  0.5352470000000  0.5726940000000 1.0
C      1  0.5890940000000  0.5153640000000  0.4685820000000 1.0
C      1  0.4902620000000  0.5842510000000  0.5361090000000 1.0
C      1  0.4240020000000  0.4573280000000  0.4695070000000 1.0
C      1  0.5680480000000  0.4638030000000  0.5600390000000 1.0
C      1  0.4523620000000  0.3940420000000  0.5291020000000 1.0
C      1  0.5076610000000  0.5513230000000  0.4347250000000 1.0
C      1  0.4819130000000  0.5848470000000  0.4713290000000 1.0
C      1  0.5879540000000  0.4588700000000  0.5058000000000 1.0
C      1  0.4573250000000  0.5352380000000  0.5074390000000 1.0
C      1  0.5128770000000  0.4423080000000  0.5379670000000 1.0
C      1  0.5749010000000  0.5087770000000  0.4406270000000 1.0
C      1  0.4268090000000  0.4367080000000  0.4926740000000 1.0
C      1  0.4134840000000  0.5120470000000  0.4874770000000 1.0
C      1  0.5303720000000  0.4539210000000  0.4988200000000 1.0
C      1  0.5618870000000  0.5724110000000  0.5260680000000 1.0
C      1  0.5442490000000  0.4955530000000  0.4341040000000 1.0
C      1  0.5598010000000  0.5173260000000  0.4950510000000 1.0
C      1  0.4938900000000  0.5303990000000  0.5272310000000 1.0
C      1  0.4188010000000  0.5317850000000  0.5621610000000 1.0
C      1  0.4759950000000  0.4558270000000  0.4224170000000 1.0
C      1  0.5241880000000  0.4706470000000  0.5277770000000 1.0
C      1  0.4110110000000  0.5199330000000  0.4558760000000 1.0
C      1  0.4947240000000  0.6059900000000  0.4940010000000 1.0
C      1  0.4436400000000  0.5142110000000  0.5746670000000 1.0
C      1  0.5366280000000  0.5315810000000  0.4788060000000 1.0
C      1  0.5288390000000  0.4551870000000  0.4655400000000 1.0
C      1  0.6091430000000  0.4442140000000  0.5094310000000 1.0
C      1  0.5687630000000  0.4814950000000  0.5323950000000 1.0
C      1  0.4370930000000  0.4952320000000  0.5052680000000 1.0
C      1  0.5619790000000  0.4627960000000  0.4648470000000 1.0
C      1  0.5266280000000  0.5759170000000  0.5651610000000 1.0
C      1  0.5557920000000  0.4310270000000  0.4308990000000 1.0
C      1  0.4731070000000  0.5083180000000  0.5165750000000 1.0
C      1  0.4402460000000  0.5300360000000  0.4811680000000 1.0
C      1  0.5606280000000  0.5369610000000  0.4343000000000 1.0
C      1  0.4473950000000  0.4630530000000  0.5079890000000 1.0
C      1  0.4553800000000  0.4416840000000  0.5494500000000 1.0
C      1  0.4651430000000  0.5286400000000  0.5954110000000 1.0
C      1  0.4807490000000  0.4781620000000  0.5230030000000 1.0
C      1  0.5200250000000  0.5533240000000  0.4938890000000 1.0
C      1  0.4952990000000  0.5145100000000  0.4252570000000 1.0
C      1  0.5034220000000  0.4242310000000  0.4586050000000 1.0
C      1  0.5311690000000  0.5321510000000  0.4257420000000 1.0
C      1  0.5318820000000  0.5678850000000  0.4543120000000 1.0
C      1  0.5035540000000  0.4466850000000  0.4331270000000 1.0
C      1  0.5009640000000  0.5609000000000  0.4666570000000 1.0
C      1  0.5269910000000  0.5363130000000  0.5948430000000 1.0
C      1  0.4766990000000  0.5592030000000  0.5207500000000 1.0
C      1  0.4607430000000  0.4349650000000  0.4942330000000 1.0
C      1  0.4594640000000  0.5340790000000  0.5536570000000 1.0
C      1  0.4967730000000  0.4549640000000  0.5039990000000 1.0
C      1  0.5203980000000  0.4687320000000  0.4044200000000 1.0
C      1  0.5289620000000  0.4934200000000  0.5029450000000 1.0
C      1  0.4015490000000  0.4892530000000  0.5305280000000 1.0
C      1  0.4887490000000  0.4208750000000  0.4810570000000 1.0
C      1  0.4698770000000  0.5855510000000  0.5023660000000 1.0
C      1  0.4405450000000  0.5481470000000  0.5328840000000 1.0
C      1  0.5108060000000  0.5121180000000  0.5504140000000 1.0
C      1  0.4277990000000  0.4466840000000  0.4442290000000 1.0
C      1  0.4143910000000  0.4442850000000  0.5205300000000 1.0
C      1  0.4521570000000  0.4853860000000  0.5715520000000 1.0
C      1  0.5586230000000  0.4530370000000  0.5177200000000 1.0
C      1  0.5303680000000  0.4675820000000  0.4339050000000 1.0
C      1  0.5957270000000  0.4669310000000  0.4652050000000 1.0
C      1  0.4278240000000  0.4334450000000  0.5611140000000 1.0
C      1  0.4938610000000  0.4238890000000  0.5146420000000 1.0
C      1  0.5019670000000  0.4967600000000  0.5776060000000 1.0
C      1  0.4758060000000  0.4802670000000  0.5845460000000 1.0
C      1  0.4963780000000  0.5775660000000  0.5622480000000 1.0
C      1  0.4639650000000  0.4566120000000  0.4682080000000 1.0
C      1  0.5875170000000  0.4889480000000  0.4899390000000 1.0
C      1  0.5791340000000  0.5272950000000  0.5318460000000 1.0
C      1  0.4780410000000  0.4383610000000  0.5715420000000 1.0
C      1  0.5400990000000  0.4975950000000  0.5410700000000 1.0
C      1  0.5214660000000  0.4729980000000  0.5825820000000 1.0
C      1  0.5081960000000  0.5035120000000  0.4796460000000 1.0
C      1  0.5338660000000  0.4259800000000  0.4488720000000 1.0
C      1  0.5374680000000  0.5219460000000  0.5174850000000 1.0
C      1  0.5542790000000  0.4853610000000  0.4863020000000 1.0
C      1  0.5608600000000  0.5208950000000  0.5545730000000 1.0
C      1  0.4995270000000  0.4937690000000  0.4006590000000 1.0
C      1  0.4847160000000  0.5468060000000  0.5658190000000 1.0
C      1  0.4900990000000  0.5033370000000  0.4508590000000 1.0
C      1  0.4629240000000  0.4223490000000  0.5257350000000 1.0
C      1  0.4560550000000  0.4467940000000  0.4392580000000 1.0
C      1  0.5513710000000  0.4334170000000  0.5402500000000 1.0
C      1  0.4452650000000  0.4834550000000  0.4742680000000 1.0
C      1  0.5294110000000  0.4146710000000  0.5304870000000 1.0
C      1  0.4861350000000  0.4820240000000  0.4895910000000 1.0
C      1  0.4285710000000  0.5228360000000  0.4363970000000 1.0
C      1  0.5585860000000  0.5559110000000  0.4561400000000 1.0
END
