TITL C-2848502-4955-620 -0.00180987023382095 125000 -270.373756260312 0 0 50 (C1) n - 1
REM
REM in /home/bkarasulu/work/CARBON/AIRSS/Generating-Clusters/AIREBO/with-SteepDescent/Only-C1/SD-CG-opt/Try1-1.4A-POS3A/HFTN-CG
REM
REM
REM
REM
REM
REM ./C.cell (11c1c37f851c82e70ff6c80c92926a4b)
REM
REM compiler GCC version 9.2.1 20190827 (Red Hat 9.2.1-1)
REM options -cpp -mtune=generic -march=x86-64 -g -O0 -fpre-include=/usr/include/finclude/math-vector-fortran.h
REM seed -624909851 835685102 -239225841 1745567178 -130848741 -358355534 -1814458723 312321919 -631975434 -1741814339 -2112344610 -851868087 -121310893 -1459615680 641766603 -935812448 1383900780 515678728 29314395 -1604134763 -470963309 1940989075 -1305893207 -1767070040 1030580488 1349368139 -1450736052 1362576721 1925085035 -506698555 1322346589 1129024648 625166748
REM
CELL 1.54180   50.00000   50.00000   50.00000   90.00000   90.00000   90.00000
LATT -1
SFAC C  
C      1  0.5255750000000  0.5504410000000  0.4866280000000 1.0
C      1  0.5554640000000  0.4718940000000  0.5321710000000 1.0
C      1  0.5259470000000  0.4653250000000  0.5174880000000 1.0
C      1  0.4738110000000  0.4449390000000  0.4853460000000 1.0
C      1  0.4947510000000  0.5149320000000  0.4644270000000 1.0
C      1  0.5783640000000  0.4789440000000  0.4914640000000 1.0
C      1  0.4604590000000  0.4668410000000  0.5517720000000 1.0
C      1  0.5786780000000  0.4679420000000  0.5143500000000 1.0
C      1  0.4763290000000  0.5070910000000  0.5088170000000 1.0
C      1  0.4194970000000  0.4925620000000  0.4624260000000 1.0
C      1  0.4634320000000  0.5444570000000  0.5038000000000 1.0
C      1  0.4351260000000  0.4697560000000  0.5059940000000 1.0
C      1  0.5684910000000  0.5124050000000  0.5640100000000 1.0
C      1  0.5245350000000  0.5279280000000  0.4649270000000 1.0
C      1  0.4768750000000  0.4474640000000  0.5123370000000 1.0
C      1  0.5029710000000  0.4730530000000  0.4281850000000 1.0
C      1  0.5282610000000  0.4691010000000  0.4874990000000 1.0
C      1  0.5242710000000  0.4864870000000  0.5441020000000 1.0
C      1  0.4988240000000  0.4989050000000  0.5573180000000 1.0
C      1  0.5428980000000  0.5076550000000  0.4567180000000 1.0
C      1  0.4789860000000  0.5506450000000  0.5529210000000 1.0
C      1  0.5187900000000  0.4325480000000  0.4480860000000 1.0
C      1  0.4707580000000  0.4423150000000  0.4539680000000 1.0
C      1  0.5258230000000  0.5738280000000  0.5398260000000 1.0
C      1  0.4923980000000  0.4423060000000  0.4365880000000 1.0
C      1  0.5525050000000  0.5039070000000  0.5432300000000 1.0
C      1  0.4925330000000  0.4644050000000  0.5538520000000 1.0
C      1  0.4555540000000  0.5485250000000  0.4737200000000 1.0
C      1  0.4899700000000  0.4861700000000  0.4573790000000 1.0
C      1  0.5069250000000  0.5539280000000  0.5363580000000 1.0
C      1  0.5482540000000  0.5216110000000  0.5188630000000 1.0
C      1  0.5484790000000  0.5469900000000  0.5084780000000 1.0
C      1  0.4531700000000  0.5148620000000  0.4904950000000 1.0
C      1  0.5031660000000  0.5291230000000  0.5594760000000 1.0
C      1  0.5324970000000  0.5063880000000  0.5002800000000 1.0
C      1  0.4680010000000  0.4955410000000  0.5540820000000 1.0
C      1  0.4974240000000  0.5475120000000  0.5054900000000 1.0
C      1  0.4646250000000  0.4721790000000  0.4679380000000 1.0
C      1  0.5518780000000  0.4898740000000  0.4807110000000 1.0
C      1  0.4999760000000  0.4527490000000  0.5284840000000 1.0
C      1  0.4615590000000  0.5125450000000  0.5331090000000 1.0
C      1  0.5324430000000  0.4879210000000  0.4383510000000 1.0
C      1  0.5035660000000  0.5153190000000  0.4964210000000 1.0
C      1  0.4488080000000  0.5480110000000  0.4420180000000 1.0
C      1  0.4412650000000  0.4889120000000  0.4798140000000 1.0
C      1  0.5028620000000  0.5761640000000  0.4880020000000 1.0
C      1  0.4586410000000  0.5412950000000  0.5362650000000 1.0
C      1  0.4531700000000  0.4581330000000  0.5249070000000 1.0
C      1  0.4746440000000  0.5329230000000  0.4528360000000 1.0
C      1  0.5167700000000  0.4652480000000  0.4582740000000 1.0
END
