TITL C-2847951-7423-641 -0.000744608741349105 125000 -282.955778015128 0 0 53 (C1) n - 1
REM
REM in /home/bkarasulu/work/CARBON/AIRSS/Generating-Clusters/AIREBO/with-SteepDescent/Only-C1/SD-CG-opt/Try1-1.4A-POS3A/HFTN-CG
REM
REM
REM
REM
REM
REM ./C.cell (11c1c37f851c82e70ff6c80c92926a4b)
REM
REM compiler GCC version 9.2.1 20190827 (Red Hat 9.2.1-1)
REM options -cpp -mtune=generic -march=x86-64 -g -O0 -fpre-include=/usr/include/finclude/math-vector-fortran.h
REM seed -1080672463 -865725328 -1060630364 699498404 -1047462400 759050304 1797120955 1772933083 567797547 435768657 -1947704754 325505045 762968863 1267205485 -1527116731 1193874299 -472790515 -482455317 412085644 -503824970 -209081429 -281300060 1050110261 -1167267800 -598569077 -1048734262 1140444290 -758583315 -1716150033 2102469523 1163634499 -1679603846 337410047
REM
CELL 1.54180   50.00000   50.00000   50.00000   90.00000   90.00000   90.00000
LATT -1
SFAC C  
C      1  0.4467080000000  0.4754080000000  0.5429160000000 1.0
C      1  0.4735830000000  0.5250330000000  0.4905850000000 1.0
C      1  0.4995970000000  0.5836550000000  0.4841840000000 1.0
C      1  0.5164800000000  0.5033220000000  0.5086150000000 1.0
C      1  0.5419670000000  0.5172240000000  0.4597150000000 1.0
C      1  0.4612860000000  0.5524330000000  0.4827130000000 1.0
C      1  0.5253950000000  0.4903010000000  0.4722440000000 1.0
C      1  0.4728260000000  0.4534450000000  0.4777840000000 1.0
C      1  0.5045360000000  0.5342840000000  0.5012050000000 1.0
C      1  0.5613470000000  0.4920360000000  0.4549140000000 1.0
C      1  0.4499300000000  0.4766670000000  0.4836820000000 1.0
C      1  0.5407680000000  0.4330750000000  0.4823340000000 1.0
C      1  0.4678740000000  0.4991050000000  0.5307990000000 1.0
C      1  0.5049920000000  0.4630770000000  0.4720700000000 1.0
C      1  0.4480570000000  0.5424300000000  0.5311800000000 1.0
C      1  0.4899280000000  0.5544230000000  0.5243840000000 1.0
C      1  0.5603770000000  0.5341440000000  0.4790590000000 1.0
C      1  0.5276320000000  0.5051690000000  0.5596860000000 1.0
C      1  0.5000070000000  0.4255000000000  0.5698710000000 1.0
C      1  0.4319110000000  0.5244430000000  0.5170000000000 1.0
C      1  0.5229780000000  0.4583650000000  0.5403220000000 1.0
C      1  0.4686980000000  0.5267430000000  0.5437930000000 1.0
C      1  0.5433050000000  0.4840380000000  0.5004770000000 1.0
C      1  0.5008790000000  0.5234320000000  0.4357100000000 1.0
C      1  0.5537640000000  0.5486880000000  0.5009400000000 1.0
C      1  0.4945030000000  0.5002550000000  0.4824110000000 1.0
C      1  0.4878780000000  0.5842440000000  0.5104650000000 1.0
C      1  0.5033520000000  0.4374810000000  0.5461430000000 1.0
C      1  0.4888190000000  0.4321110000000  0.5220220000000 1.0
C      1  0.5748330000000  0.4672980000000  0.5392030000000 1.0
C      1  0.4516720000000  0.5036140000000  0.5012470000000 1.0
C      1  0.4856520000000  0.5002840000000  0.4494330000000 1.0
C      1  0.4827950000000  0.4793140000000  0.5065100000000 1.0
C      1  0.4772490000000  0.4519370000000  0.4456880000000 1.0
C      1  0.4887910000000  0.4720470000000  0.4354170000000 1.0
C      1  0.4526350000000  0.4661170000000  0.5150120000000 1.0
C      1  0.4544210000000  0.5020740000000  0.4441970000000 1.0
C      1  0.5249590000000  0.5519250000000  0.5433350000000 1.0
C      1  0.5224460000000  0.4894420000000  0.5380220000000 1.0
C      1  0.5330590000000  0.4459550000000  0.5063930000000 1.0
C      1  0.5248850000000  0.4401090000000  0.4621150000000 1.0
C      1  0.5627650000000  0.4765290000000  0.4750060000000 1.0
C      1  0.5202370000000  0.5358500000000  0.4508780000000 1.0
C      1  0.4799870000000  0.5669100000000  0.4660940000000 1.0
C      1  0.4713060000000  0.4301180000000  0.4990270000000 1.0
C      1  0.5517010000000  0.4656080000000  0.5248940000000 1.0
C      1  0.5312360000000  0.5478360000000  0.5170620000000 1.0
C      1  0.4941950000000  0.5420200000000  0.5539620000000 1.0
C      1  0.4392480000000  0.4862460000000  0.4567870000000 1.0
C      1  0.5148200000000  0.5258420000000  0.5718460000000 1.0
C      1  0.5022190000000  0.4547710000000  0.5048110000000 1.0
C      1  0.4598740000000  0.5647990000000  0.5127110000000 1.0
C      1  0.5096390000000  0.5528210000000  0.4731280000000 1.0
END
