TITL C-2848504-8560-214 0.00145228354639885 125000 -239.955890593662 0 0 43 (C1) n - 1
REM
REM in /home/bkarasulu/work/CARBON/AIRSS/Generating-Clusters/AIREBO/with-SteepDescent/Only-C1/SD-CG-opt/Try1-1.4A-POS3A/HFTN-CG
REM
REM
REM
REM
REM
REM ./C.cell (11c1c37f851c82e70ff6c80c92926a4b)
REM
REM compiler GCC version 9.2.1 20190827 (Red Hat 9.2.1-1)
REM options -cpp -mtune=generic -march=x86-64 -g -O0 -fpre-include=/usr/include/finclude/math-vector-fortran.h
REM seed 1650414539 184147693 -440031077 -1364024069 683405732 2146628205 574992156 -2131524713 235450442 239914833 1873326497 1774078143 -1258320966 1949327635 979013629 380509745 1746524339 -172113778 -550664021 517893104 60524284 2061663523 -1659283237 -2071671483 -2021491807 2134200930 1313635983 471224820 -215340788 195513105 -1990985150 1525292259 -315066542
REM
CELL 1.54180   50.00000   50.00000   50.00000   90.00000   90.00000   90.00000
LATT -1
SFAC C  
C      1  0.5397780000000  0.5547480000000  0.4634200000000 1.0
C      1  0.4802610000000  0.5145310000000  0.4935910000000 1.0
C      1  0.4889620000000  0.5027640000000  0.5206780000000 1.0
C      1  0.4694950000000  0.5366080000000  0.4700470000000 1.0
C      1  0.5582920000000  0.4692480000000  0.5292810000000 1.0
C      1  0.4886640000000  0.4889040000000  0.5507240000000 1.0
C      1  0.4560810000000  0.5111470000000  0.4621740000000 1.0
C      1  0.5233090000000  0.4384570000000  0.4848280000000 1.0
C      1  0.4785040000000  0.5373510000000  0.5498030000000 1.0
C      1  0.4211650000000  0.4955880000000  0.5494690000000 1.0
C      1  0.4787070000000  0.4564690000000  0.5007490000000 1.0
C      1  0.4672260000000  0.5124560000000  0.5525560000000 1.0
C      1  0.5179380000000  0.4974950000000  0.5355730000000 1.0
C      1  0.5510010000000  0.5511090000000  0.5304570000000 1.0
C      1  0.5227810000000  0.5429110000000  0.5165230000000 1.0
C      1  0.4826930000000  0.5611690000000  0.4739490000000 1.0
C      1  0.5498210000000  0.4938720000000  0.5394400000000 1.0
C      1  0.4699040000000  0.4658900000000  0.4631650000000 1.0
C      1  0.5380310000000  0.4550200000000  0.5077350000000 1.0
C      1  0.4912520000000  0.4460590000000  0.5273270000000 1.0
C      1  0.4943720000000  0.5494660000000  0.5239110000000 1.0
C      1  0.4518300000000  0.4714170000000  0.4882510000000 1.0
C      1  0.5056950000000  0.4943300000000  0.4504920000000 1.0
C      1  0.5094880000000  0.5584130000000  0.4686510000000 1.0
C      1  0.4838160000000  0.4589190000000  0.5501150000000 1.0
C      1  0.5236790000000  0.5340030000000  0.4856370000000 1.0
C      1  0.4896050000000  0.4843060000000  0.4856350000000 1.0
C      1  0.5298470000000  0.4859980000000  0.5058300000000 1.0
C      1  0.4439580000000  0.4990400000000  0.4872090000000 1.0
C      1  0.4426340000000  0.5073750000000  0.5384270000000 1.0
C      1  0.4648080000000  0.5398330000000  0.5095950000000 1.0
C      1  0.4752010000000  0.4924190000000  0.4493730000000 1.0
C      1  0.5261880000000  0.4681310000000  0.4439470000000 1.0
C      1  0.5301780000000  0.4448990000000  0.4583240000000 1.0
C      1  0.5549430000000  0.5043370000000  0.4920360000000 1.0
C      1  0.4779130000000  0.5697260000000  0.5021240000000 1.0
C      1  0.5167650000000  0.4369180000000  0.5242560000000 1.0
C      1  0.5166610000000  0.5043900000000  0.4809730000000 1.0
C      1  0.5598210000000  0.5012330000000  0.4659550000000 1.0
C      1  0.4445220000000  0.5151490000000  0.5111520000000 1.0
C      1  0.4970200000000  0.4325210000000  0.4897930000000 1.0
C      1  0.5397430000000  0.4962340000000  0.4473570000000 1.0
C      1  0.5474470000000  0.5191480000000  0.5194670000000 1.0
END
