TITL C-2847952-8118-313 -0.0031662964567537 125000 -683.244662368865 0 0 127 (C1) n - 1
REM
REM in /home/bkarasulu/work/CARBON/AIRSS/Generating-Clusters/AIREBO/with-SteepDescent/Only-C1/SD-CG-opt/Try1-1.4A-POS3A/HFTN-CG
REM
REM
REM
REM
REM
REM ./C.cell (11c1c37f851c82e70ff6c80c92926a4b)
REM
REM compiler GCC version 9.2.1 20190827 (Red Hat 9.2.1-1)
REM options -cpp -mtune=generic -march=x86-64 -g -O0 -fpre-include=/usr/include/finclude/math-vector-fortran.h
REM seed -174288659 1902080909 1639304403 1242953625 -989002302 -1267827315 1258698732 196466378 -739974408 -934634074 2006308004 407908596 1180352404 1624776652 117529813 1421642279 -239711602 -485336739 1235083208 1377462039 220100369 198767252 596478478 1652643764 -2084123851 -1847232514 -1674420172 2103537383 965627062 -1917548534 -451824847 -1571234921 -537450735
REM
CELL 1.54180   50.00000   50.00000   50.00000   90.00000   90.00000   90.00000
LATT -1
SFAC C  
C      1  0.4249800000000  0.5521170000000  0.5142670000000 1.0
C      1  0.4719620000000  0.5729400000000  0.4816510000000 1.0
C      1  0.5875260000000  0.4422320000000  0.5019480000000 1.0
C      1  0.5589400000000  0.4964560000000  0.5461080000000 1.0
C      1  0.5839410000000  0.5411790000000  0.5306200000000 1.0
C      1  0.5019160000000  0.5177510000000  0.4086390000000 1.0
C      1  0.4812630000000  0.5229820000000  0.6060820000000 1.0
C      1  0.5409510000000  0.5379070000000  0.5674910000000 1.0
C      1  0.4872660000000  0.5205190000000  0.5403400000000 1.0
C      1  0.4511700000000  0.5150050000000  0.5232980000000 1.0
C      1  0.5493360000000  0.5057170000000  0.4141770000000 1.0
C      1  0.4685510000000  0.5648610000000  0.4403110000000 1.0
C      1  0.4665170000000  0.4268980000000  0.5033330000000 1.0
C      1  0.5277830000000  0.6029710000000  0.5180590000000 1.0
C      1  0.5050670000000  0.4769680000000  0.4955270000000 1.0
C      1  0.4437960000000  0.4939340000000  0.5810680000000 1.0
C      1  0.5853150000000  0.4703310000000  0.4884360000000 1.0
C      1  0.5305870000000  0.5247050000000  0.4058640000000 1.0
C      1  0.4797930000000  0.4530800000000  0.5717660000000 1.0
C      1  0.5217240000000  0.5125340000000  0.5798840000000 1.0
C      1  0.5512500000000  0.4290290000000  0.5122420000000 1.0
C      1  0.5361790000000  0.4747520000000  0.5489970000000 1.0
C      1  0.4475100000000  0.4139340000000  0.4807020000000 1.0
C      1  0.4549830000000  0.5382460000000  0.4919040000000 1.0
C      1  0.5187220000000  0.4846100000000  0.5257490000000 1.0
C      1  0.4444890000000  0.5860350000000  0.4670550000000 1.0
C      1  0.5299890000000  0.5751510000000  0.5166410000000 1.0
C      1  0.5727380000000  0.5118470000000  0.4314110000000 1.0
C      1  0.4240480000000  0.4902300000000  0.4831390000000 1.0
C      1  0.4776350000000  0.4180460000000  0.5527570000000 1.0
C      1  0.5396570000000  0.5635310000000  0.4387140000000 1.0
C      1  0.5090140000000  0.4474200000000  0.4276620000000 1.0
C      1  0.5291290000000  0.5117140000000  0.5174760000000 1.0
C      1  0.5055780000000  0.4267310000000  0.5563630000000 1.0
C      1  0.4931530000000  0.5238600000000  0.5736600000000 1.0
C      1  0.4196270000000  0.5423350000000  0.4619770000000 1.0
C      1  0.5774810000000  0.4552560000000  0.5268170000000 1.0
C      1  0.5167080000000  0.5538280000000  0.4166260000000 1.0
C      1  0.5012870000000  0.5562160000000  0.4468510000000 1.0
C      1  0.4732420000000  0.4949220000000  0.4793810000000 1.0
C      1  0.5273510000000  0.5353360000000  0.4817470000000 1.0
C      1  0.5283140000000  0.4646060000000  0.4655570000000 1.0
C      1  0.5133790000000  0.4735030000000  0.4184100000000 1.0
C      1  0.5398920000000  0.4804930000000  0.4218850000000 1.0
C      1  0.5947800000000  0.5140200000000  0.5186160000000 1.0
C      1  0.5115450000000  0.4052610000000  0.4905420000000 1.0
C      1  0.5068570000000  0.5108690000000  0.4934800000000 1.0
C      1  0.5748530000000  0.5339130000000  0.4638240000000 1.0
C      1  0.4302730000000  0.4850300000000  0.4451820000000 1.0
C      1  0.4806940000000  0.4934560000000  0.5960780000000 1.0
C      1  0.4882180000000  0.4870230000000  0.5344690000000 1.0
C      1  0.4731730000000  0.4913350000000  0.5629730000000 1.0
C      1  0.4604150000000  0.4511190000000  0.4851880000000 1.0
C      1  0.5251980000000  0.6287660000000  0.5219040000000 1.0
C      1  0.4283860000000  0.4179230000000  0.5366070000000 1.0
C      1  0.5358590000000  0.4329970000000  0.4428220000000 1.0
C      1  0.4318670000000  0.5357520000000  0.5399800000000 1.0
C      1  0.5598030000000  0.5635390000000  0.5219970000000 1.0
C      1  0.4598050000000  0.5243390000000  0.5803330000000 1.0
C      1  0.4737640000000  0.5268340000000  0.4682300000000 1.0
C      1  0.4496050000000  0.5693350000000  0.5045780000000 1.0
C      1  0.5326290000000  0.4258210000000  0.5594370000000 1.0
C      1  0.5551110000000  0.5260760000000  0.5090040000000 1.0
C      1  0.4712590000000  0.5200500000000  0.4349680000000 1.0
C      1  0.5113550000000  0.5883260000000  0.4517680000000 1.0
C      1  0.4893130000000  0.5518700000000  0.5325060000000 1.0
C      1  0.4992620000000  0.5742860000000  0.5640870000000 1.0
C      1  0.4897280000000  0.4590810000000  0.4738660000000 1.0
C      1  0.5771170000000  0.4664380000000  0.4571390000000 1.0
C      1  0.4530450000000  0.4923820000000  0.4272270000000 1.0
C      1  0.4130520000000  0.5084310000000  0.5474780000000 1.0
C      1  0.4055630000000  0.4068690000000  0.5394220000000 1.0
C      1  0.4483260000000  0.5470580000000  0.5631160000000 1.0
C      1  0.5204380000000  0.4306980000000  0.5056200000000 1.0
C      1  0.5487850000000  0.5325070000000  0.4438270000000 1.0
C      1  0.4695510000000  0.5673620000000  0.5524170000000 1.0
C      1  0.5456470000000  0.4109860000000  0.5784560000000 1.0
C      1  0.4820400000000  0.5900920000000  0.4553450000000 1.0
C      1  0.4292720000000  0.5163950000000  0.4971650000000 1.0
C      1  0.4185950000000  0.4614230000000  0.4658770000000 1.0
C      1  0.5163760000000  0.5257950000000  0.4450300000000 1.0
C      1  0.4931820000000  0.4330520000000  0.5191320000000 1.0
C      1  0.4946950000000  0.3820860000000  0.4769770000000 1.0
C      1  0.4911360000000  0.4540210000000  0.5421240000000 1.0
C      1  0.5410110000000  0.5222860000000  0.6041430000000 1.0
C      1  0.5750060000000  0.4999120000000  0.4637180000000 1.0
C      1  0.4859210000000  0.4141060000000  0.4696350000000 1.0
C      1  0.5592590000000  0.5737510000000  0.4895690000000 1.0
C      1  0.4676270000000  0.4811480000000  0.5103320000000 1.0
C      1  0.4608040000000  0.4231050000000  0.4507810000000 1.0
C      1  0.4432520000000  0.4942150000000  0.5470640000000 1.0
C      1  0.5670650000000  0.4260330000000  0.4863620000000 1.0
C      1  0.5391260000000  0.5626110000000  0.4691530000000 1.0
C      1  0.4558330000000  0.4313930000000  0.5331600000000 1.0
C      1  0.4806170000000  0.4477170000000  0.4429790000000 1.0
C      1  0.4974430000000  0.4705880000000  0.5869050000000 1.0
C      1  0.5480090000000  0.4718890000000  0.4470100000000 1.0
C      1  0.4528880000000  0.4636770000000  0.5356240000000 1.0
C      1  0.5613940000000  0.4363010000000  0.4589240000000 1.0
C      1  0.5056400000000  0.5602470000000  0.5107360000000 1.0
C      1  0.5018800000000  0.4999260000000  0.4616690000000 1.0
C      1  0.4453250000000  0.5415340000000  0.4396940000000 1.0
C      1  0.4387730000000  0.4701710000000  0.4990730000000 1.0
C      1  0.5693800000000  0.5449990000000  0.4882870000000 1.0
C      1  0.5492360000000  0.4453130000000  0.5420670000000 1.0
C      1  0.3800970000000  0.5409030000000  0.4929760000000 1.0
C      1  0.4668810000000  0.4688300000000  0.4220540000000 1.0
C      1  0.4572200000000  0.5856950000000  0.5299640000000 1.0
C      1  0.5476280000000  0.5077220000000  0.4823360000000 1.0
C      1  0.4488410000000  0.4616540000000  0.5693440000000 1.0
C      1  0.5552240000000  0.5278100000000  0.5429820000000 1.0
C      1  0.4949770000000  0.4960790000000  0.4296800000000 1.0
C      1  0.4555060000000  0.4758440000000  0.4633370000000 1.0
C      1  0.5960580000000  0.5012760000000  0.4904000000000 1.0
C      1  0.5608510000000  0.5392040000000  0.5950330000000 1.0
C      1  0.4302590000000  0.5699990000000  0.4505920000000 1.0
C      1  0.4075680000000  0.5399710000000  0.4903330000000 1.0
C      1  0.5214380000000  0.4818040000000  0.5753010000000 1.0
C      1  0.5563930000000  0.4812300000000  0.4988860000000 1.0
C      1  0.5333190000000  0.4610100000000  0.4971480000000 1.0
C      1  0.5204000000000  0.5624350000000  0.5692250000000 1.0
C      1  0.5773990000000  0.4869090000000  0.5239590000000 1.0
C      1  0.5111590000000  0.4352460000000  0.4651390000000 1.0
C      1  0.4805040000000  0.5221170000000  0.5075820000000 1.0
C      1  0.4312370000000  0.4362310000000  0.4624490000000 1.0
C      1  0.4848070000000  0.5423830000000  0.4131920000000 1.0
C      1  0.4964330000000  0.5493920000000  0.4798200000000 1.0
END
