TITL C-2848507-1641-75 0.00207123399854315 125000 -761.594519961235 0 0 145 (C1) n - 1
REM
REM in /home/bkarasulu/work/CARBON/AIRSS/Generating-Clusters/AIREBO/with-SteepDescent/Only-C1/SD-CG-opt/Try1-1.4A-POS3A/HFTN-CG
REM
REM
REM
REM
REM
REM ./C.cell (11c1c37f851c82e70ff6c80c92926a4b)
REM
REM compiler GCC version 9.2.1 20190827 (Red Hat 9.2.1-1)
REM options -cpp -mtune=generic -march=x86-64 -g -O0 -fpre-include=/usr/include/finclude/math-vector-fortran.h
REM seed 1909743380 1691495262 -208945621 -1555195263 -158663490 607108631 1020082808 146640392 -1061762377 -1194486353 -1815938455 -1547641417 -1024327486 1435942939 -1391088678 249602276 509312472 -1982685439 -1851150524 -1573672740 1344537229 -916629358 -970120410 1127805253 -1424626673 892391770 -1694862906 -1349646128 137660115 1435091374 1802209061 513199821 -1688761320
REM
CELL 1.54180   50.00000   50.00000   50.00000   90.00000   90.00000   90.00000
LATT -1
SFAC C  
C      1  0.4666790000000  0.4862560000000  0.5451890000000 1.0
C      1  0.4712230000000  0.4410150000000  0.5701920000000 1.0
C      1  0.4473390000000  0.5458000000000  0.4496540000000 1.0
C      1  0.5481420000000  0.5227110000000  0.4244530000000 1.0
C      1  0.5789270000000  0.4439230000000  0.4867630000000 1.0
C      1  0.4407350000000  0.4349500000000  0.4833340000000 1.0
C      1  0.5558320000000  0.5475570000000  0.4654310000000 1.0
C      1  0.5294490000000  0.4905890000000  0.4511780000000 1.0
C      1  0.4949190000000  0.4772550000000  0.3884810000000 1.0
C      1  0.4744980000000  0.5744200000000  0.5590850000000 1.0
C      1  0.4562510000000  0.4324830000000  0.5408110000000 1.0
C      1  0.4648720000000  0.5898470000000  0.5299780000000 1.0
C      1  0.5149470000000  0.4940760000000  0.3959870000000 1.0
C      1  0.5188880000000  0.5507380000000  0.5850500000000 1.0
C      1  0.5215710000000  0.4262610000000  0.5014210000000 1.0
C      1  0.4846280000000  0.4453560000000  0.4819270000000 1.0
C      1  0.4611360000000  0.4287260000000  0.4441920000000 1.0
C      1  0.5854860000000  0.4949190000000  0.4749660000000 1.0
C      1  0.4085030000000  0.5571100000000  0.4853970000000 1.0
C      1  0.4202970000000  0.5086810000000  0.5153600000000 1.0
C      1  0.5836780000000  0.5681940000000  0.4852640000000 1.0
C      1  0.4470970000000  0.4815630000000  0.5707980000000 1.0
C      1  0.4757980000000  0.4925680000000  0.5834560000000 1.0
C      1  0.4889150000000  0.4667650000000  0.4571820000000 1.0
C      1  0.5620000000000  0.5233080000000  0.5558970000000 1.0
C      1  0.4031540000000  0.4646860000000  0.4885110000000 1.0
C      1  0.4147810000000  0.5412450000000  0.4583590000000 1.0
C      1  0.4156470000000  0.4481560000000  0.5227100000000 1.0
C      1  0.4399770000000  0.4517570000000  0.5715460000000 1.0
C      1  0.5187560000000  0.4904790000000  0.6018390000000 1.0
C      1  0.5869340000000  0.4795180000000  0.4475590000000 1.0
C      1  0.5159450000000  0.5231180000000  0.4131340000000 1.0
C      1  0.5072600000000  0.5137660000000  0.4521700000000 1.0
C      1  0.5245070000000  0.4474690000000  0.4772380000000 1.0
C      1  0.4543990000000  0.4571990000000  0.4302510000000 1.0
C      1  0.5182030000000  0.4865020000000  0.4830280000000 1.0
C      1  0.4557670000000  0.5528410000000  0.5406580000000 1.0
C      1  0.5500330000000  0.4454890000000  0.4289590000000 1.0
C      1  0.4074960000000  0.5240440000000  0.4877640000000 1.0
C      1  0.4684000000000  0.5066860000000  0.4715870000000 1.0
C      1  0.4157460000000  0.4292700000000  0.5020570000000 1.0
C      1  0.5129300000000  0.5170150000000  0.5844870000000 1.0
C      1  0.5178850000000  0.5518280000000  0.4266240000000 1.0
C      1  0.5074070000000  0.5355800000000  0.4760000000000 1.0
C      1  0.5697140000000  0.4596140000000  0.5135130000000 1.0
C      1  0.4532770000000  0.4836350000000  0.4516860000000 1.0
C      1  0.4773660000000  0.4013350000000  0.4430890000000 1.0
C      1  0.4281840000000  0.4763290000000  0.5083740000000 1.0
C      1  0.4611150000000  0.5789230000000  0.4806460000000 1.0
C      1  0.5561260000000  0.4990130000000  0.4810760000000 1.0
C      1  0.5024900000000  0.5729040000000  0.5783430000000 1.0
C      1  0.5878950000000  0.5543630000000  0.4596740000000 1.0
C      1  0.5481910000000  0.4379990000000  0.5285360000000 1.0
C      1  0.4721590000000  0.5187610000000  0.5535420000000 1.0
C      1  0.5915300000000  0.4426870000000  0.5339350000000 1.0
C      1  0.4637800000000  0.4382440000000  0.5081350000000 1.0
C      1  0.5190600000000  0.3954600000000  0.4859720000000 1.0
C      1  0.5386800000000  0.5510230000000  0.5261080000000 1.0
C      1  0.6002460000000  0.4953590000000  0.5536410000000 1.0
C      1  0.4873980000000  0.5480960000000  0.5313480000000 1.0
C      1  0.4595770000000  0.5268630000000  0.4049580000000 1.0
C      1  0.5875110000000  0.4868400000000  0.5234210000000 1.0
C      1  0.5398690000000  0.5585680000000  0.4928030000000 1.0
C      1  0.5481830000000  0.4637020000000  0.5606430000000 1.0
C      1  0.4096910000000  0.4661780000000  0.4619860000000 1.0
C      1  0.5942120000000  0.5278520000000  0.5161190000000 1.0
C      1  0.5441930000000  0.4196250000000  0.5551550000000 1.0
C      1  0.4252820000000  0.5015950000000  0.5639720000000 1.0
C      1  0.4142480000000  0.5346860000000  0.5364310000000 1.0
C      1  0.5057690000000  0.5995750000000  0.4898850000000 1.0
C      1  0.4732380000000  0.5446960000000  0.5755320000000 1.0
C      1  0.5157600000000  0.4617910000000  0.5508690000000 1.0
C      1  0.4315550000000  0.4442410000000  0.4518520000000 1.0
C      1  0.5260300000000  0.4312030000000  0.4485990000000 1.0
C      1  0.4452300000000  0.4684970000000  0.4800080000000 1.0
C      1  0.5454120000000  0.5608270000000  0.4359110000000 1.0
C      1  0.4395610000000  0.5268840000000  0.4237520000000 1.0
C      1  0.4279560000000  0.4408170000000  0.5462050000000 1.0
C      1  0.4317310000000  0.5022410000000  0.4330800000000 1.0
C      1  0.5432110000000  0.4948380000000  0.5350750000000 1.0
C      1  0.4708500000000  0.5216400000000  0.5934070000000 1.0
C      1  0.5049350000000  0.4163350000000  0.5269650000000 1.0
C      1  0.5282880000000  0.5169980000000  0.4904110000000 1.0
C      1  0.4876080000000  0.4973910000000  0.4931140000000 1.0
C      1  0.4833420000000  0.4603780000000  0.5493180000000 1.0
C      1  0.5686390000000  0.5471630000000  0.4183080000000 1.0
C      1  0.5412520000000  0.4102790000000  0.4706610000000 1.0
C      1  0.5790420000000  0.4689530000000  0.5510850000000 1.0
C      1  0.5296110000000  0.5207350000000  0.5194520000000 1.0
C      1  0.5363680000000  0.6106730000000  0.4901960000000 1.0
C      1  0.4532680000000  0.5784510000000  0.4493350000000 1.0
C      1  0.5866100000000  0.5544760000000  0.5095370000000 1.0
C      1  0.5364280000000  0.5403050000000  0.5583020000000 1.0
C      1  0.4820860000000  0.5529530000000  0.4871180000000 1.0
C      1  0.4804790000000  0.4873310000000  0.4316250000000 1.0
C      1  0.4354650000000  0.5112140000000  0.4744560000000 1.0
C      1  0.5083250000000  0.5685090000000  0.4985270000000 1.0
C      1  0.5722220000000  0.4586240000000  0.4647100000000 1.0
C      1  0.5397870000000  0.4916260000000  0.4186300000000 1.0
C      1  0.5210920000000  0.4560960000000  0.5177640000000 1.0
C      1  0.5394790000000  0.5829900000000  0.4569070000000 1.0
C      1  0.5456240000000  0.4640310000000  0.4649290000000 1.0
C      1  0.5981370000000  0.5028960000000  0.4989480000000 1.0
C      1  0.4394090000000  0.5276750000000  0.5552110000000 1.0
C      1  0.4836960000000  0.5157730000000  0.5214510000000 1.0
C      1  0.4753660000000  0.4689080000000  0.4061780000000 1.0
C      1  0.5874610000000  0.5211390000000  0.5439540000000 1.0
C      1  0.5542980000000  0.4959240000000  0.5671990000000 1.0
C      1  0.4505160000000  0.5404760000000  0.4831130000000 1.0
C      1  0.4848490000000  0.5168260000000  0.4196810000000 1.0
C      1  0.4953700000000  0.4736710000000  0.5997890000000 1.0
C      1  0.4365820000000  0.5746710000000  0.5247000000000 1.0
C      1  0.4657470000000  0.3861660000000  0.5191440000000 1.0
C      1  0.5120810000000  0.5867850000000  0.5542640000000 1.0
C      1  0.3802330000000  0.4870950000000  0.5450870000000 1.0
C      1  0.4875350000000  0.4472090000000  0.5966370000000 1.0
C      1  0.5114840000000  0.5841950000000  0.4619800000000 1.0
C      1  0.5444350000000  0.4823990000000  0.5954030000000 1.0
C      1  0.5237600000000  0.4449660000000  0.4115180000000 1.0
C      1  0.4989790000000  0.5573100000000  0.4512410000000 1.0
C      1  0.5623940000000  0.4709620000000  0.4280460000000 1.0
C      1  0.5684390000000  0.5641120000000  0.5293190000000 1.0
C      1  0.4100970000000  0.5618580000000  0.5350620000000 1.0
C      1  0.4913380000000  0.4669390000000  0.5052740000000 1.0
C      1  0.5553750000000  0.4249580000000  0.4978950000000 1.0
C      1  0.5925370000000  0.5497740000000  0.4320830000000 1.0
C      1  0.5117000000000  0.5684060000000  0.5297890000000 1.0
C      1  0.4771090000000  0.5953950000000  0.5036320000000 1.0
C      1  0.5515180000000  0.4535080000000  0.5931500000000 1.0
C      1  0.4930870000000  0.4270780000000  0.4559820000000 1.0
C      1  0.4601560000000  0.4704660000000  0.5183830000000 1.0
C      1  0.5040530000000  0.5305270000000  0.5545760000000 1.0
C      1  0.5095300000000  0.4974070000000  0.5337680000000 1.0
C      1  0.4057980000000  0.4962590000000  0.5435030000000 1.0
C      1  0.4775670000000  0.5302050000000  0.4500920000000 1.0
C      1  0.5576180000000  0.5860800000000  0.4836200000000 1.0
C      1  0.5491450000000  0.5177980000000  0.4565190000000 1.0
C      1  0.4349970000000  0.5680230000000  0.4956360000000 1.0
C      1  0.5043080000000  0.4906720000000  0.5647450000000 1.0
C      1  0.5163220000000  0.4277930000000  0.5503690000000 1.0
C      1  0.4794770000000  0.4096780000000  0.5178090000000 1.0
C      1  0.5149650000000  0.4620700000000  0.4395670000000 1.0
C      1  0.5429520000000  0.4788390000000  0.5050720000000 1.0
C      1  0.4518110000000  0.5205920000000  0.5106640000000 1.0
C      1  0.4145050000000  0.4923860000000  0.4553850000000 1.0
END
