TITL C-2847955-7945-110 0.00252199155383246 125000 -819.328170179926 0 0 150 (C1) n - 1
REM
REM in /home/bkarasulu/work/CARBON/AIRSS/Generating-Clusters/AIREBO/with-SteepDescent/Only-C1/SD-CG-opt/Try1-1.4A-POS3A/HFTN-CG
REM
REM
REM
REM
REM
REM ./C.cell (11c1c37f851c82e70ff6c80c92926a4b)
REM
REM compiler GCC version 9.2.1 20190827 (Red Hat 9.2.1-1)
REM options -cpp -mtune=generic -march=x86-64 -g -O0 -fpre-include=/usr/include/finclude/math-vector-fortran.h
REM seed -744019997 -889929758 25304848 -1335592818 1047593062 717453365 67638524 1719473880 -174564304 290103116 239764456 402010570 2024665057 151570663 618803309 -1600173513 2090987049 1347136467 -997596374 -991535822 1375575664 -1118249735 1553755707 1633223491 319015884 -1783229413 -1020580589 1977836488 1111354853 -1801152781 -386585523 -1194557978 -604533740
REM
CELL 1.54180   50.00000   50.00000   50.00000   90.00000   90.00000   90.00000
LATT -1
SFAC C  
C      1  0.5637480000000  0.5492720000000  0.5421930000000 1.0
C      1  0.4752790000000  0.5075220000000  0.4039310000000 1.0
C      1  0.5097920000000  0.4806380000000  0.5685090000000 1.0
C      1  0.5057340000000  0.4555030000000  0.5067710000000 1.0
C      1  0.4040200000000  0.4425400000000  0.5473530000000 1.0
C      1  0.4569110000000  0.4804380000000  0.4135390000000 1.0
C      1  0.4611400000000  0.5653320000000  0.5711170000000 1.0
C      1  0.4568470000000  0.5709710000000  0.5185800000000 1.0
C      1  0.5716130000000  0.4154420000000  0.4805650000000 1.0
C      1  0.4814130000000  0.4752560000000  0.4511730000000 1.0
C      1  0.4599470000000  0.4293070000000  0.4391640000000 1.0
C      1  0.5778830000000  0.4142380000000  0.5071690000000 1.0
C      1  0.5107890000000  0.5760590000000  0.4773970000000 1.0
C      1  0.5958240000000  0.4737880000000  0.4933920000000 1.0
C      1  0.5366800000000  0.5080500000000  0.4377600000000 1.0
C      1  0.4528350000000  0.4606700000000  0.5169890000000 1.0
C      1  0.4012430000000  0.5119390000000  0.5192990000000 1.0
C      1  0.4991810000000  0.4261360000000  0.5025340000000 1.0
C      1  0.5481450000000  0.6213430000000  0.4440880000000 1.0
C      1  0.5283060000000  0.4206030000000  0.4424550000000 1.0
C      1  0.5492660000000  0.5224400000000  0.5788340000000 1.0
C      1  0.4167610000000  0.5173090000000  0.4675000000000 1.0
C      1  0.5511530000000  0.5685150000000  0.4152800000000 1.0
C      1  0.4788610000000  0.4963910000000  0.4939750000000 1.0
C      1  0.4360900000000  0.4498880000000  0.5444440000000 1.0
C      1  0.5705370000000  0.5041240000000  0.5635890000000 1.0
C      1  0.5683910000000  0.4254550000000  0.5316500000000 1.0
C      1  0.6026960000000  0.5013580000000  0.4893400000000 1.0
C      1  0.5500700000000  0.5777880000000  0.4655500000000 1.0
C      1  0.5447110000000  0.4232100000000  0.5778410000000 1.0
C      1  0.5890200000000  0.5159220000000  0.5472070000000 1.0
C      1  0.5124000000000  0.5946770000000  0.5959270000000 1.0
C      1  0.4742810000000  0.4833590000000  0.5889620000000 1.0
C      1  0.4485350000000  0.5788040000000  0.4510130000000 1.0
C      1  0.5432290000000  0.4946180000000  0.4109890000000 1.0
C      1  0.5759520000000  0.5472600000000  0.5039730000000 1.0
C      1  0.4918750000000  0.5998640000000  0.5183630000000 1.0
C      1  0.5196190000000  0.5131910000000  0.5680620000000 1.0
C      1  0.5001330000000  0.4391200000000  0.4362060000000 1.0
C      1  0.4438730000000  0.5873410000000  0.4956840000000 1.0
C      1  0.4111220000000  0.5427440000000  0.5104460000000 1.0
C      1  0.4953110000000  0.4079160000000  0.5286790000000 1.0
C      1  0.4649030000000  0.5313430000000  0.4255970000000 1.0
C      1  0.5376630000000  0.5745460000000  0.5586290000000 1.0
C      1  0.5137520000000  0.5790640000000  0.5734660000000 1.0
C      1  0.4151950000000  0.5170240000000  0.4376340000000 1.0
C      1  0.4987380000000  0.4600620000000  0.5932240000000 1.0
C      1  0.5189250000000  0.5271380000000  0.5379830000000 1.0
C      1  0.5720770000000  0.4528060000000  0.5362650000000 1.0
C      1  0.4829280000000  0.5519580000000  0.5078540000000 1.0
C      1  0.4338110000000  0.5174250000000  0.5680890000000 1.0
C      1  0.4711270000000  0.4497830000000  0.4712840000000 1.0
C      1  0.5032150000000  0.4617670000000  0.4037440000000 1.0
C      1  0.4906440000000  0.5283240000000  0.5680560000000 1.0
C      1  0.5582920000000  0.4761260000000  0.5555330000000 1.0
C      1  0.5174020000000  0.6297470000000  0.4786050000000 1.0
C      1  0.4644070000000  0.5153260000000  0.5828270000000 1.0
C      1  0.5929140000000  0.4619660000000  0.4684400000000 1.0
C      1  0.4533810000000  0.4871490000000  0.4527790000000 1.0
C      1  0.5400060000000  0.4917300000000  0.5329200000000 1.0
C      1  0.5080270000000  0.5497280000000  0.4066010000000 1.0
C      1  0.4276130000000  0.5610220000000  0.5311630000000 1.0
C      1  0.4983960000000  0.5504120000000  0.5357110000000 1.0
C      1  0.4478780000000  0.5773180000000  0.5503460000000 1.0
C      1  0.5030150000000  0.5204260000000  0.4204010000000 1.0
C      1  0.4545230000000  0.4234180000000  0.5488700000000 1.0
C      1  0.5604580000000  0.5047710000000  0.4571870000000 1.0
C      1  0.5444150000000  0.5322050000000  0.5233570000000 1.0
C      1  0.5442220000000  0.5944000000000  0.4946420000000 1.0
C      1  0.5236080000000  0.3971960000000  0.4903600000000 1.0
C      1  0.4505460000000  0.5366010000000  0.4766420000000 1.0
C      1  0.5435750000000  0.5618280000000  0.4412030000000 1.0
C      1  0.5389820000000  0.4264010000000  0.5006400000000 1.0
C      1  0.4050220000000  0.4826880000000  0.5249510000000 1.0
C      1  0.4825280000000  0.4771350000000  0.5191210000000 1.0
C      1  0.5385030000000  0.5801610000000  0.5249980000000 1.0
C      1  0.4094090000000  0.4359980000000  0.5180980000000 1.0
C      1  0.4743340000000  0.5438880000000  0.4557900000000 1.0
C      1  0.4194270000000  0.4610890000000  0.4761190000000 1.0
C      1  0.4683390000000  0.5037830000000  0.6154990000000 1.0
C      1  0.5020880000000  0.4506690000000  0.5543790000000 1.0
C      1  0.4990220000000  0.4128000000000  0.4727910000000 1.0
C      1  0.5227700000000  0.4877280000000  0.3937520000000 1.0
C      1  0.5432970000000  0.3975350000000  0.5180790000000 1.0
C      1  0.5250150000000  0.4387250000000  0.4138760000000 1.0
C      1  0.5028370000000  0.4460540000000  0.4679390000000 1.0
C      1  0.5110830000000  0.4868180000000  0.5351590000000 1.0
C      1  0.4798130000000  0.5754150000000  0.4434910000000 1.0
C      1  0.4647010000000  0.4152930000000  0.5189970000000 1.0
C      1  0.5389130000000  0.5115840000000  0.4825930000000 1.0
C      1  0.4170000000000  0.5310810000000  0.5428760000000 1.0
C      1  0.5784160000000  0.5137450000000  0.4823320000000 1.0
C      1  0.5682180000000  0.4723810000000  0.5097600000000 1.0
C      1  0.4630940000000  0.4948930000000  0.5406460000000 1.0
C      1  0.5053860000000  0.5906160000000  0.4528050000000 1.0
C      1  0.4607280000000  0.5306380000000  0.5065580000000 1.0
C      1  0.4155130000000  0.4300400000000  0.4880950000000 1.0
C      1  0.5075880000000  0.5034380000000  0.4811660000000 1.0
C      1  0.4958740000000  0.5354050000000  0.4810040000000 1.0
C      1  0.4572790000000  0.4482740000000  0.5711670000000 1.0
C      1  0.5326660000000  0.6070010000000  0.4648390000000 1.0
C      1  0.4526440000000  0.5034600000000  0.4784490000000 1.0
C      1  0.4909360000000  0.5605140000000  0.5661460000000 1.0
C      1  0.5413360000000  0.4577000000000  0.4596390000000 1.0
C      1  0.5492870000000  0.4522550000000  0.4282570000000 1.0
C      1  0.4495690000000  0.5095390000000  0.5177770000000 1.0
C      1  0.5249260000000  0.5480700000000  0.4742800000000 1.0
C      1  0.4951170000000  0.4874040000000  0.4225120000000 1.0
C      1  0.5430190000000  0.5555410000000  0.5019370000000 1.0
C      1  0.4044440000000  0.4732100000000  0.5517320000000 1.0
C      1  0.5608490000000  0.4729080000000  0.4148320000000 1.0
C      1  0.4353670000000  0.5734970000000  0.4739170000000 1.0
C      1  0.5447950000000  0.4108970000000  0.5493310000000 1.0
C      1  0.5328050000000  0.4501070000000  0.5799450000000 1.0
C      1  0.5388840000000  0.4555290000000  0.5144350000000 1.0
C      1  0.5320800000000  0.4779530000000  0.5940610000000 1.0
C      1  0.5847360000000  0.5237750000000  0.5203340000000 1.0
C      1  0.5744970000000  0.5798810000000  0.4084670000000 1.0
C      1  0.4524090000000  0.4808450000000  0.5643360000000 1.0
C      1  0.5398780000000  0.4156190000000  0.4683560000000 1.0
C      1  0.5704440000000  0.4407960000000  0.4647830000000 1.0
C      1  0.5758910000000  0.5672560000000  0.4825910000000 1.0
C      1  0.5080730000000  0.5812170000000  0.5333820000000 1.0
C      1  0.5187540000000  0.4712970000000  0.4811290000000 1.0
C      1  0.4738510000000  0.4437250000000  0.5935730000000 1.0
C      1  0.4770720000000  0.4086230000000  0.4491620000000 1.0
C      1  0.4285580000000  0.4801350000000  0.4300960000000 1.0
C      1  0.4898410000000  0.5103580000000  0.5401320000000 1.0
C      1  0.4924270000000  0.5797070000000  0.4967240000000 1.0
C      1  0.5683000000000  0.4762490000000  0.4539340000000 1.0
C      1  0.4212820000000  0.4854450000000  0.4613890000000 1.0
C      1  0.5183570000000  0.3934920000000  0.5386650000000 1.0
C      1  0.4408110000000  0.5104790000000  0.4228790000000 1.0
C      1  0.4741500000000  0.4528460000000  0.4190600000000 1.0
C      1  0.5424380000000  0.5019450000000  0.6027140000000 1.0
C      1  0.5588020000000  0.5050510000000  0.5087960000000 1.0
C      1  0.5334620000000  0.4548130000000  0.5462760000000 1.0
C      1  0.4611860000000  0.4373050000000  0.4995220000000 1.0
C      1  0.4402030000000  0.4377120000000  0.4655490000000 1.0
C      1  0.4196720000000  0.5463200000000  0.4815210000000 1.0
C      1  0.5538720000000  0.5514450000000  0.5687370000000 1.0
C      1  0.4219030000000  0.4640550000000  0.5077360000000 1.0
C      1  0.5101970000000  0.4950310000000  0.4503250000000 1.0
C      1  0.4863270000000  0.4321280000000  0.5480070000000 1.0
C      1  0.5236180000000  0.5367790000000  0.4422040000000 1.0
C      1  0.4217690000000  0.4870000000000  0.5688230000000 1.0
C      1  0.4825190000000  0.5564800000000  0.4189400000000 1.0
C      1  0.4473000000000  0.5446610000000  0.5845120000000 1.0
C      1  0.4256440000000  0.5073620000000  0.4987900000000 1.0
C      1  0.5309820000000  0.5613560000000  0.3968830000000 1.0
END
