TITL C-2847956-8218-78 0.00182700002926212 125000 -655.361759500712 0 0 118 (C1) n - 1
REM
REM in /home/bkarasulu/work/CARBON/AIRSS/Generating-Clusters/AIREBO/with-SteepDescent/Only-C1/SD-CG-opt/Try1-1.4A-POS3A/HFTN-CG
REM
REM
REM
REM
REM
REM ./C.cell (11c1c37f851c82e70ff6c80c92926a4b)
REM
REM compiler GCC version 9.2.1 20190827 (Red Hat 9.2.1-1)
REM options -cpp -mtune=generic -march=x86-64 -g -O0 -fpre-include=/usr/include/finclude/math-vector-fortran.h
REM seed 96291553 -1830823040 -703865094 -995529801 1711177939 204693048 577451579 -892591450 -533237099 846425873 -441128278 -1393089939 -959207313 925331491 1061550215 -940374283 533350843 1018898290 1784603479 200680274 1776135192 -1151715926 -562096800 405160861 -973792513 -1208733357 860173304 1054779791 610331209 -160466936 -497412100 1510468515 541382482
REM
CELL 1.54180   50.00000   50.00000   50.00000   90.00000   90.00000   90.00000
LATT -1
SFAC C  
C      1  0.5399500000000  0.5044770000000  0.5794570000000 1.0
C      1  0.4760610000000  0.4459380000000  0.5842750000000 1.0
C      1  0.5096440000000  0.5730200000000  0.4629660000000 1.0
C      1  0.4098050000000  0.4801510000000  0.5074280000000 1.0
C      1  0.4315830000000  0.5578720000000  0.5141510000000 1.0
C      1  0.4956880000000  0.5569500000000  0.5668980000000 1.0
C      1  0.4693670000000  0.4639860000000  0.4192090000000 1.0
C      1  0.4367950000000  0.5025980000000  0.4851860000000 1.0
C      1  0.5017000000000  0.4190780000000  0.4454820000000 1.0
C      1  0.5117340000000  0.5068410000000  0.5808960000000 1.0
C      1  0.5418270000000  0.5835240000000  0.5309490000000 1.0
C      1  0.5136620000000  0.4786330000000  0.5528700000000 1.0
C      1  0.5656450000000  0.5004110000000  0.4828890000000 1.0
C      1  0.4444930000000  0.4210150000000  0.5443570000000 1.0
C      1  0.5416320000000  0.4939130000000  0.5410180000000 1.0
C      1  0.4488660000000  0.4745480000000  0.5298400000000 1.0
C      1  0.4702850000000  0.4902870000000  0.4123840000000 1.0
C      1  0.5639780000000  0.4462520000000  0.5114810000000 1.0
C      1  0.5726870000000  0.4730460000000  0.5220740000000 1.0
C      1  0.4249840000000  0.4875380000000  0.4504400000000 1.0
C      1  0.4755440000000  0.5126900000000  0.4374240000000 1.0
C      1  0.5361770000000  0.4674350000000  0.4325730000000 1.0
C      1  0.5868620000000  0.5157160000000  0.4508620000000 1.0
C      1  0.5496950000000  0.5310170000000  0.5676410000000 1.0
C      1  0.5350260000000  0.5465040000000  0.5174330000000 1.0
C      1  0.4920070000000  0.4847490000000  0.4476920000000 1.0
C      1  0.4642380000000  0.4735400000000  0.5918750000000 1.0
C      1  0.4200470000000  0.4542130000000  0.5111860000000 1.0
C      1  0.4288800000000  0.5351960000000  0.4637460000000 1.0
C      1  0.4955170000000  0.4182390000000  0.5229670000000 1.0
C      1  0.5295320000000  0.4139570000000  0.4566930000000 1.0
C      1  0.4059360000000  0.4952540000000  0.4775310000000 1.0
C      1  0.5954950000000  0.5141410000000  0.5071270000000 1.0
C      1  0.5844180000000  0.4878910000000  0.4495100000000 1.0
C      1  0.4684200000000  0.5061880000000  0.5945980000000 1.0
C      1  0.5783680000000  0.4740730000000  0.5522220000000 1.0
C      1  0.5162190000000  0.4851730000000  0.4238210000000 1.0
C      1  0.4778200000000  0.4907860000000  0.5224730000000 1.0
C      1  0.5002130000000  0.4398100000000  0.4076770000000 1.0
C      1  0.5516220000000  0.5251620000000  0.5349290000000 1.0
C      1  0.5209080000000  0.5088690000000  0.4104630000000 1.0
C      1  0.5211140000000  0.5756750000000  0.4377350000000 1.0
C      1  0.5643260000000  0.4773300000000  0.4299640000000 1.0
C      1  0.5201980000000  0.5051830000000  0.5055560000000 1.0
C      1  0.5840350000000  0.4723150000000  0.4770940000000 1.0
C      1  0.4063960000000  0.5275140000000  0.4882750000000 1.0
C      1  0.5758240000000  0.5343690000000  0.4325780000000 1.0
C      1  0.4943700000000  0.4519740000000  0.4388850000000 1.0
C      1  0.5529610000000  0.5520820000000  0.4418970000000 1.0
C      1  0.4697220000000  0.4255000000000  0.4551230000000 1.0
C      1  0.5037820000000  0.4388820000000  0.5949590000000 1.0
C      1  0.4427050000000  0.5117820000000  0.4464890000000 1.0
C      1  0.4904990000000  0.4463110000000  0.4722060000000 1.0
C      1  0.5091180000000  0.4474420000000  0.5623330000000 1.0
C      1  0.4794330000000  0.4381140000000  0.5532950000000 1.0
C      1  0.5382380000000  0.4474630000000  0.5513230000000 1.0
C      1  0.4814580000000  0.4642550000000  0.4997520000000 1.0
C      1  0.5059000000000  0.5460380000000  0.5289810000000 1.0
C      1  0.5281720000000  0.5575600000000  0.4860090000000 1.0
C      1  0.4457590000000  0.5306570000000  0.5394630000000 1.0
C      1  0.5534400000000  0.4336750000000  0.4673200000000 1.0
C      1  0.4803280000000  0.5660170000000  0.5216760000000 1.0
C      1  0.5193060000000  0.4830380000000  0.4678890000000 1.0
C      1  0.4505930000000  0.4460610000000  0.4728950000000 1.0
C      1  0.5174490000000  0.5260690000000  0.4787550000000 1.0
C      1  0.4953020000000  0.5335800000000  0.4192420000000 1.0
C      1  0.4693050000000  0.5075620000000  0.4765530000000 1.0
C      1  0.4886310000000  0.5291180000000  0.4641760000000 1.0
C      1  0.5254330000000  0.5470640000000  0.4224770000000 1.0
C      1  0.4523280000000  0.4453260000000  0.4333770000000 1.0
C      1  0.4715310000000  0.4071950000000  0.5418760000000 1.0
C      1  0.4959990000000  0.4804610000000  0.5818850000000 1.0
C      1  0.4314640000000  0.4606300000000  0.4488470000000 1.0
C      1  0.5714250000000  0.4449060000000  0.4844150000000 1.0
C      1  0.4591900000000  0.5721310000000  0.4747970000000 1.0
C      1  0.4335040000000  0.4806970000000  0.5800780000000 1.0
C      1  0.4093540000000  0.4978880000000  0.5294330000000 1.0
C      1  0.4701240000000  0.5163210000000  0.5687940000000 1.0
C      1  0.4451810000000  0.5344670000000  0.4935590000000 1.0
C      1  0.4994120000000  0.5252680000000  0.5551140000000 1.0
C      1  0.4756230000000  0.5522650000000  0.4316520000000 1.0
C      1  0.4349740000000  0.4465400000000  0.5384600000000 1.0
C      1  0.5192250000000  0.4258500000000  0.5114850000000 1.0
C      1  0.4167640000000  0.5279670000000  0.5206870000000 1.0
C      1  0.5505490000000  0.4746950000000  0.5676110000000 1.0
C      1  0.5851220000000  0.5257510000000  0.5299460000000 1.0
C      1  0.5502930000000  0.5043770000000  0.4368710000000 1.0
C      1  0.4826090000000  0.5607010000000  0.4616310000000 1.0
C      1  0.5498300000000  0.5255960000000  0.4124790000000 1.0
C      1  0.4233370000000  0.5842810000000  0.5580730000000 1.0
C      1  0.4644630000000  0.4757010000000  0.4654650000000 1.0
C      1  0.5413840000000  0.4370410000000  0.5253080000000 1.0
C      1  0.5291810000000  0.5527750000000  0.5724210000000 1.0
C      1  0.4600800000000  0.5148770000000  0.5146670000000 1.0
C      1  0.5186810000000  0.5787530000000  0.5545610000000 1.0
C      1  0.5956650000000  0.4860820000000  0.5049950000000 1.0
C      1  0.4705240000000  0.4406140000000  0.5204220000000 1.0
C      1  0.4448640000000  0.4392170000000  0.5006970000000 1.0
C      1  0.5869640000000  0.5264900000000  0.4803450000000 1.0
C      1  0.5028670000000  0.5858290000000  0.5262510000000 1.0
C      1  0.5032920000000  0.5004510000000  0.5323140000000 1.0
C      1  0.4359980000000  0.5658520000000  0.4616800000000 1.0
C      1  0.5544450000000  0.5599540000000  0.4683880000000 1.0
C      1  0.5168750000000  0.4317550000000  0.4826500000000 1.0
C      1  0.4506910000000  0.4783430000000  0.4964410000000 1.0
C      1  0.4584940000000  0.5709410000000  0.5022940000000 1.0
C      1  0.4514640000000  0.5008640000000  0.5507290000000 1.0
C      1  0.5501040000000  0.4949520000000  0.5091400000000 1.0
C      1  0.5405260000000  0.5049360000000  0.4649820000000 1.0
C      1  0.4212280000000  0.4898890000000  0.5542900000000 1.0
C      1  0.5778640000000  0.5553310000000  0.4811000000000 1.0
C      1  0.4381670000000  0.5697170000000  0.5426350000000 1.0
C      1  0.5621970000000  0.5630470000000  0.5294590000000 1.0
C      1  0.4665750000000  0.5552350000000  0.5495690000000 1.0
C      1  0.5293190000000  0.4537590000000  0.4598420000000 1.0
C      1  0.5821000000000  0.5335000000000  0.5588240000000 1.0
C      1  0.4958000000000  0.4918640000000  0.4868590000000 1.0
C      1  0.5252250000000  0.5856070000000  0.5050120000000 1.0
END
