TITL C-2847951-7423-471 -0.0007369534095754 125000 -226.156582959659 0 0 42 (C1) n - 1
REM
REM in /home/bkarasulu/work/CARBON/AIRSS/Generating-Clusters/AIREBO/with-SteepDescent/Only-C1/SD-CG-opt/Try1-1.4A-POS3A/HFTN-CG
REM
REM
REM
REM
REM
REM ./C.cell (11c1c37f851c82e70ff6c80c92926a4b)
REM
REM compiler GCC version 9.2.1 20190827 (Red Hat 9.2.1-1)
REM options -cpp -mtune=generic -march=x86-64 -g -O0 -fpre-include=/usr/include/finclude/math-vector-fortran.h
REM seed 1597997002 1256604069 -65342632 1707474612 -1407109547 -142040988 -1434387221 372484313 378500321 1131841289 -494897023 1839280972 -870199198 1842098661 1640080143 -1958807432 -2025035489 -636281790 -1181837860 -387506389 -1848436142 573738704 634986174 -56470159 -1087621097 74214361 -1274722487 1505490230 -2066971016 -1870776462 -2137711241 -1207126443 1697486292
REM
CELL 1.54180   50.00000   50.00000   50.00000   90.00000   90.00000   90.00000
LATT -1
SFAC C  
C      1  0.4888610000000  0.5224110000000  0.4592230000000 1.0
C      1  0.5339350000000  0.5066580000000  0.5382610000000 1.0
C      1  0.5270290000000  0.4562470000000  0.4963320000000 1.0
C      1  0.5634430000000  0.4490380000000  0.5277180000000 1.0
C      1  0.4641380000000  0.5356770000000  0.4759280000000 1.0
C      1  0.5050110000000  0.4677840000000  0.5391140000000 1.0
C      1  0.4464220000000  0.4906310000000  0.5052600000000 1.0
C      1  0.5062960000000  0.4757030000000  0.4570370000000 1.0
C      1  0.4710540000000  0.5598930000000  0.5340860000000 1.0
C      1  0.4876760000000  0.4587160000000  0.4873700000000 1.0
C      1  0.5440590000000  0.5585710000000  0.5029780000000 1.0
C      1  0.4656770000000  0.4706560000000  0.5456410000000 1.0
C      1  0.5223160000000  0.5534770000000  0.5239320000000 1.0
C      1  0.4513340000000  0.4332190000000  0.4581760000000 1.0
C      1  0.5347070000000  0.5332180000000  0.5446870000000 1.0
C      1  0.5279300000000  0.4611420000000  0.4681240000000 1.0
C      1  0.5531610000000  0.4694590000000  0.4585390000000 1.0
C      1  0.5482370000000  0.4658920000000  0.5122270000000 1.0
C      1  0.5519800000000  0.4963420000000  0.5158300000000 1.0
C      1  0.4760340000000  0.5501590000000  0.4989510000000 1.0
C      1  0.5602570000000  0.4949010000000  0.4659440000000 1.0
C      1  0.5015860000000  0.4476480000000  0.5136480000000 1.0
C      1  0.5220660000000  0.5425280000000  0.4633410000000 1.0
C      1  0.4951330000000  0.5703800000000  0.5185190000000 1.0
C      1  0.5442760000000  0.5092400000000  0.4889150000000 1.0
C      1  0.5096070000000  0.4942680000000  0.5412600000000 1.0
C      1  0.5439110000000  0.5405690000000  0.4829330000000 1.0
C      1  0.4625940000000  0.4946890000000  0.5323560000000 1.0
C      1  0.4612790000000  0.4463060000000  0.4788120000000 1.0
C      1  0.4519460000000  0.4578900000000  0.5048880000000 1.0
C      1  0.4429470000000  0.5481550000000  0.4629730000000 1.0
C      1  0.4919870000000  0.4992910000000  0.4436910000000 1.0
C      1  0.4621620000000  0.5024040000000  0.4812260000000 1.0
C      1  0.5793760000000  0.5019410000000  0.5217500000000 1.0
C      1  0.4862160000000  0.5129030000000  0.5352060000000 1.0
C      1  0.4194290000000  0.4982280000000  0.5063210000000 1.0
C      1  0.4754400000000  0.5384570000000  0.5505710000000 1.0
C      1  0.4908420000000  0.4902180000000  0.4826210000000 1.0
C      1  0.4994210000000  0.5314550000000  0.5118110000000 1.0
C      1  0.4704740000000  0.4508530000000  0.5258980000000 1.0
C      1  0.4481870000000  0.4956210000000  0.4538940000000 1.0
C      1  0.5115610000000  0.5171620000000  0.4840110000000 1.0
END
