TITL C-2848508-1660-728 -0.000414634380891108 125000 -957.546945044915 0 0 175 (C1) n - 1
REM
REM in /home/bkarasulu/work/CARBON/AIRSS/Generating-Clusters/AIREBO/with-SteepDescent/Only-C1/SD-CG-opt/Try1-1.4A-POS3A/HFTN-CG
REM
REM
REM
REM
REM
REM ./C.cell (11c1c37f851c82e70ff6c80c92926a4b)
REM
REM compiler GCC version 9.2.1 20190827 (Red Hat 9.2.1-1)
REM options -cpp -mtune=generic -march=x86-64 -g -O0 -fpre-include=/usr/include/finclude/math-vector-fortran.h
REM seed 136414195 -57690587 -997647781 985377789 -1134196913 2100927443 -177390089 -1754624651 1192463042 1414319658 -919551832 -319226251 102646980 2038811653 1553697210 -1145261140 130767513 1719231244 -2027513859 762114975 283412257 -453047085 -1540820801 -620451327 248609618 1227786045 -73834447 -1452199426 1082988690 -2114175126 1734666299 -1720512363 -1382550442
REM
CELL 1.54180   50.00000   50.00000   50.00000   90.00000   90.00000   90.00000
LATT -1
SFAC C  
C      1  0.4327140000000  0.4676650000000  0.4888780000000 1.0
C      1  0.3998700000000  0.4819100000000  0.4613630000000 1.0
C      1  0.4489890000000  0.5948430000000  0.5305890000000 1.0
C      1  0.5804100000000  0.4217140000000  0.5140460000000 1.0
C      1  0.5604010000000  0.5764840000000  0.5032860000000 1.0
C      1  0.4786930000000  0.5846490000000  0.4479840000000 1.0
C      1  0.4665160000000  0.4179180000000  0.5906770000000 1.0
C      1  0.4154710000000  0.4850490000000  0.5075610000000 1.0
C      1  0.5667600000000  0.4130150000000  0.4685660000000 1.0
C      1  0.4984410000000  0.3997640000000  0.4528230000000 1.0
C      1  0.4910960000000  0.5595880000000  0.5436820000000 1.0
C      1  0.5253080000000  0.4726860000000  0.4828200000000 1.0
C      1  0.5212650000000  0.6091490000000  0.4984210000000 1.0
C      1  0.5553860000000  0.4250840000000  0.5598900000000 1.0
C      1  0.4218310000000  0.4398370000000  0.4440880000000 1.0
C      1  0.5058220000000  0.4371830000000  0.4198400000000 1.0
C      1  0.4445440000000  0.4339950000000  0.5892700000000 1.0
C      1  0.4173040000000  0.5675470000000  0.4912460000000 1.0
C      1  0.4275300000000  0.5293930000000  0.4876610000000 1.0
C      1  0.5503760000000  0.4032240000000  0.4469540000000 1.0
C      1  0.4654410000000  0.5780180000000  0.4983100000000 1.0
C      1  0.4661390000000  0.5243930000000  0.4027990000000 1.0
C      1  0.5950100000000  0.4907230000000  0.4476490000000 1.0
C      1  0.4810230000000  0.4006890000000  0.5749340000000 1.0
C      1  0.5321080000000  0.5631990000000  0.4307870000000 1.0
C      1  0.4761720000000  0.4715570000000  0.4014870000000 1.0
C      1  0.6028030000000  0.4721290000000  0.5299980000000 1.0
C      1  0.4741890000000  0.5339210000000  0.5574890000000 1.0
C      1  0.5711270000000  0.5666180000000  0.4661330000000 1.0
C      1  0.5455500000000  0.5165520000000  0.5626600000000 1.0
C      1  0.5414020000000  0.5315660000000  0.4086700000000 1.0
C      1  0.4169050000000  0.5556640000000  0.5592750000000 1.0
C      1  0.5297740000000  0.4224710000000  0.5038850000000 1.0
C      1  0.4260160000000  0.5757160000000  0.4665550000000 1.0
C      1  0.5681420000000  0.5041830000000  0.5538310000000 1.0
C      1  0.4530470000000  0.4044940000000  0.5079440000000 1.0
C      1  0.5569930000000  0.4133400000000  0.4212370000000 1.0
C      1  0.5255680000000  0.4742080000000  0.4488450000000 1.0
C      1  0.4337550000000  0.4549120000000  0.5757010000000 1.0
C      1  0.5269010000000  0.4537800000000  0.4020620000000 1.0
C      1  0.4826950000000  0.5494200000000  0.4146360000000 1.0
C      1  0.4455820000000  0.5459610000000  0.5304930000000 1.0
C      1  0.5435700000000  0.4748780000000  0.5662090000000 1.0
C      1  0.4998390000000  0.4894730000000  0.4978690000000 1.0
C      1  0.5276770000000  0.4836480000000  0.4162290000000 1.0
C      1  0.5490510000000  0.4896880000000  0.4947250000000 1.0
C      1  0.5481910000000  0.6078020000000  0.4981360000000 1.0
C      1  0.4897180000000  0.4369910000000  0.5297800000000 1.0
C      1  0.5955300000000  0.5019840000000  0.5194820000000 1.0
C      1  0.5771490000000  0.5303100000000  0.4859690000000 1.0
C      1  0.4321900000000  0.5075810000000  0.4447130000000 1.0
C      1  0.5121940000000  0.5831940000000  0.5560940000000 1.0
C      1  0.5199960000000  0.5780840000000  0.5233820000000 1.0
C      1  0.6087470000000  0.4908050000000  0.4742870000000 1.0
C      1  0.5375900000000  0.4080130000000  0.5485540000000 1.0
C      1  0.4019740000000  0.4331690000000  0.4880900000000 1.0
C      1  0.5545400000000  0.4583050000000  0.4408550000000 1.0
C      1  0.5104160000000  0.5655850000000  0.6095470000000 1.0
C      1  0.3812380000000  0.4715060000000  0.5423700000000 1.0
C      1  0.4594840000000  0.5877140000000  0.5586500000000 1.0
C      1  0.4819380000000  0.4751090000000  0.5229560000000 1.0
C      1  0.4292410000000  0.4677280000000  0.5526960000000 1.0
C      1  0.5213290000000  0.5074790000000  0.5171470000000 1.0
C      1  0.4806610000000  0.5837530000000  0.5251150000000 1.0
C      1  0.4790850000000  0.4276620000000  0.4140550000000 1.0
C      1  0.4099110000000  0.5328360000000  0.5417320000000 1.0
C      1  0.5612040000000  0.4122020000000  0.4972910000000 1.0
C      1  0.4226190000000  0.4072720000000  0.4981780000000 1.0
C      1  0.5606870000000  0.5502110000000  0.4243660000000 1.0
C      1  0.5805570000000  0.5132100000000  0.4291540000000 1.0
C      1  0.4396310000000  0.5397210000000  0.5881630000000 1.0
C      1  0.4602350000000  0.5336690000000  0.4793650000000 1.0
C      1  0.4818740000000  0.5257010000000  0.5250890000000 1.0
C      1  0.5463280000000  0.5120280000000  0.4582940000000 1.0
C      1  0.5367350000000  0.4499370000000  0.5201800000000 1.0
C      1  0.5634790000000  0.4917200000000  0.5243810000000 1.0
C      1  0.5705500000000  0.5353030000000  0.4529850000000 1.0
C      1  0.5090140000000  0.5253260000000  0.4827180000000 1.0
C      1  0.4101330000000  0.5218850000000  0.4637630000000 1.0
C      1  0.4360880000000  0.5398510000000  0.6133440000000 1.0
C      1  0.3937790000000  0.4954320000000  0.4888760000000 1.0
C      1  0.5440460000000  0.5942750000000  0.5509310000000 1.0
C      1  0.4431910000000  0.4163890000000  0.4486020000000 1.0
C      1  0.5060220000000  0.6001800000000  0.4427140000000 1.0
C      1  0.4937190000000  0.3959300000000  0.4800610000000 1.0
C      1  0.4660750000000  0.5964650000000  0.4752870000000 1.0
C      1  0.5021600000000  0.4738980000000  0.5455930000000 1.0
C      1  0.4776600000000  0.4495230000000  0.5005600000000 1.0
C      1  0.5683920000000  0.4879980000000  0.4686550000000 1.0
C      1  0.4571860000000  0.4457320000000  0.5344800000000 1.0
C      1  0.5986700000000  0.5099800000000  0.4912100000000 1.0
C      1  0.3859810000000  0.5211230000000  0.4956100000000 1.0
C      1  0.4507220000000  0.5581480000000  0.5618230000000 1.0
C      1  0.4543510000000  0.4794310000000  0.5382390000000 1.0
C      1  0.4743580000000  0.4409470000000  0.4616660000000 1.0
C      1  0.5584530000000  0.4516350000000  0.5445230000000 1.0
C      1  0.4068190000000  0.4669520000000  0.5321920000000 1.0
C      1  0.5054620000000  0.4467930000000  0.4492210000000 1.0
C      1  0.4439850000000  0.4430840000000  0.5032470000000 1.0
C      1  0.4954640000000  0.5550720000000  0.4456430000000 1.0
C      1  0.4987370000000  0.5578650000000  0.6321990000000 1.0
C      1  0.5395650000000  0.5422920000000  0.5488660000000 1.0
C      1  0.5757600000000  0.4609230000000  0.4880390000000 1.0
C      1  0.4757960000000  0.4983190000000  0.4167300000000 1.0
C      1  0.5960550000000  0.5077640000000  0.5589660000000 1.0
C      1  0.4072890000000  0.5414110000000  0.5106130000000 1.0
C      1  0.4821880000000  0.5184540000000  0.4956750000000 1.0
C      1  0.5111310000000  0.5337640000000  0.5364240000000 1.0
C      1  0.4386230000000  0.4232230000000  0.4761650000000 1.0
C      1  0.5100460000000  0.4515090000000  0.5901890000000 1.0
C      1  0.5329480000000  0.4805830000000  0.5344100000000 1.0
C      1  0.5382330000000  0.4549230000000  0.5901300000000 1.0
C      1  0.5208490000000  0.5708870000000  0.5865870000000 1.0
C      1  0.4393900000000  0.5688150000000  0.5124370000000 1.0
C      1  0.5014400000000  0.6068720000000  0.5222650000000 1.0
C      1  0.5893800000000  0.5598300000000  0.5955930000000 1.0
C      1  0.5491990000000  0.4388970000000  0.4175920000000 1.0
C      1  0.4544490000000  0.4991240000000  0.6043980000000 1.0
C      1  0.4962240000000  0.5016560000000  0.5734830000000 1.0
C      1  0.5113550000000  0.4139760000000  0.5311990000000 1.0
C      1  0.4986610000000  0.4554350000000  0.5653650000000 1.0
C      1  0.4106640000000  0.5226370000000  0.4145690000000 1.0
C      1  0.4592070000000  0.4929200000000  0.4728190000000 1.0
C      1  0.5543110000000  0.4317750000000  0.5874240000000 1.0
C      1  0.4126860000000  0.4409510000000  0.5163580000000 1.0
C      1  0.4046050000000  0.4492160000000  0.4641060000000 1.0
C      1  0.5048020000000  0.5798970000000  0.4930110000000 1.0
C      1  0.6099090000000  0.4826630000000  0.5556910000000 1.0
C      1  0.5269960000000  0.4393340000000  0.4744660000000 1.0
C      1  0.4510760000000  0.4547240000000  0.4409890000000 1.0
C      1  0.5538850000000  0.5027010000000  0.4102510000000 1.0
C      1  0.5412610000000  0.5758360000000  0.4750800000000 1.0
C      1  0.5766450000000  0.5665370000000  0.5725720000000 1.0
C      1  0.4811610000000  0.4708130000000  0.4764390000000 1.0
C      1  0.4810540000000  0.5021580000000  0.4483420000000 1.0
C      1  0.3965350000000  0.5054610000000  0.4372790000000 1.0
C      1  0.5963660000000  0.5527570000000  0.5285140000000 1.0
C      1  0.4834680000000  0.4019370000000  0.5468880000000 1.0
C      1  0.4737270000000  0.4139900000000  0.4409310000000 1.0
C      1  0.5699130000000  0.4804790000000  0.4294710000000 1.0
C      1  0.4637350000000  0.5098720000000  0.5775310000000 1.0
C      1  0.5215630000000  0.5513180000000  0.4880070000000 1.0
C      1  0.5131200000000  0.5047390000000  0.4572100000000 1.0
C      1  0.5458040000000  0.5650200000000  0.5676190000000 1.0
C      1  0.5811860000000  0.4532470000000  0.5207410000000 1.0
C      1  0.4529790000000  0.5494050000000  0.4308170000000 1.0
C      1  0.6079720000000  0.4651250000000  0.4849740000000 1.0
C      1  0.4569550000000  0.5246440000000  0.4488710000000 1.0
C      1  0.5288460000000  0.5857700000000  0.4485990000000 1.0
C      1  0.5868070000000  0.5728930000000  0.5464590000000 1.0
C      1  0.4281130000000  0.5404510000000  0.4133860000000 1.0
C      1  0.5228530000000  0.5346840000000  0.4449060000000 1.0
C      1  0.4895300000000  0.5504980000000  0.6556050000000 1.0
C      1  0.4836310000000  0.5583060000000  0.4774160000000 1.0
C      1  0.5241540000000  0.4118650000000  0.4545960000000 1.0
C      1  0.4516870000000  0.5125000000000  0.5307130000000 1.0
C      1  0.5673150000000  0.5894600000000  0.5335070000000 1.0
C      1  0.6046750000000  0.5277990000000  0.5375630000000 1.0
C      1  0.4333080000000  0.4767680000000  0.4578310000000 1.0
C      1  0.4594650000000  0.4117990000000  0.5342610000000 1.0
C      1  0.5135260000000  0.5468390000000  0.4080920000000 1.0
C      1  0.5401940000000  0.5524900000000  0.5164250000000 1.0
C      1  0.5056240000000  0.4988800000000  0.4067250000000 1.0
C      1  0.4424070000000  0.5044780000000  0.5000310000000 1.0
C      1  0.4625030000000  0.4508200000000  0.4130570000000 1.0
C      1  0.4987420000000  0.4643130000000  0.3879300000000 1.0
C      1  0.5853590000000  0.5559910000000  0.5020610000000 1.0
C      1  0.4836000000000  0.5985610000000  0.5657060000000 1.0
C      1  0.4464450000000  0.5744540000000  0.4484670000000 1.0
C      1  0.5600350000000  0.4439710000000  0.4678980000000 1.0
C      1  0.5487040000000  0.5224810000000  0.5028750000000 1.0
C      1  0.5157590000000  0.3927080000000  0.4953950000000 1.0
C      1  0.4365960000000  0.5208680000000  0.5600190000000 1.0
C      1  0.4757870000000  0.4177750000000  0.4885160000000 1.0
C      1  0.5234830000000  0.5013750000000  0.5735900000000 1.0
END
