TITL C-2847949-8115-309 0.0057981844105247 125000 -753.768265382485 0 0 139 (C1) n - 1
REM
REM in /home/bkarasulu/work/CARBON/AIRSS/Generating-Clusters/AIREBO/with-SteepDescent/Only-C1/SD-CG-opt/Try1-1.4A-POS3A/HFTN-CG
REM
REM
REM
REM
REM
REM ./C.cell (11c1c37f851c82e70ff6c80c92926a4b)
REM
REM compiler GCC version 9.2.1 20190827 (Red Hat 9.2.1-1)
REM options -cpp -mtune=generic -march=x86-64 -g -O0 -fpre-include=/usr/include/finclude/math-vector-fortran.h
REM seed 1393728031 -1077807811 -1369196374 -127779440 -153031402 -1909421419 -1340451091 1984394144 195422111 -1831572491 31989791 -1902100058 -318964018 -1203306625 1485681427 1122497852 -1002101060 -354691536 -126926911 1360317540 -1554049710 149559853 1015993392 401969964 -366713256 180194419 230612485 -765019418 189106889 -1634994703 -702608015 1499517204 -729368394
REM
CELL 1.54180   50.00000   50.00000   50.00000   90.00000   90.00000   90.00000
LATT -1
SFAC C  
C      1  0.5617210000000  0.4653250000000  0.5611940000000 1.0
C      1  0.4632420000000  0.5558880000000  0.4707840000000 1.0
C      1  0.5495820000000  0.4899520000000  0.5163540000000 1.0
C      1  0.4951290000000  0.5358110000000  0.3992320000000 1.0
C      1  0.5694290000000  0.5244890000000  0.5168820000000 1.0
C      1  0.5077170000000  0.4974040000000  0.5646230000000 1.0
C      1  0.6103400000000  0.5568450000000  0.5394850000000 1.0
C      1  0.5385460000000  0.4712210000000  0.4741960000000 1.0
C      1  0.4509010000000  0.5791710000000  0.5046390000000 1.0
C      1  0.4926070000000  0.6112410000000  0.4213410000000 1.0
C      1  0.4552050000000  0.4578980000000  0.4162260000000 1.0
C      1  0.5189140000000  0.5308750000000  0.5086540000000 1.0
C      1  0.4623060000000  0.5093460000000  0.4884500000000 1.0
C      1  0.4444680000000  0.5147380000000  0.5169030000000 1.0
C      1  0.5953140000000  0.5110050000000  0.4850040000000 1.0
C      1  0.4562290000000  0.5478960000000  0.5886360000000 1.0
C      1  0.4140350000000  0.5593620000000  0.5419230000000 1.0
C      1  0.4717870000000  0.4853890000000  0.5947430000000 1.0
C      1  0.5214590000000  0.4111510000000  0.5048720000000 1.0
C      1  0.5201360000000  0.5491450000000  0.3967210000000 1.0
C      1  0.4855540000000  0.5522200000000  0.4476130000000 1.0
C      1  0.3990330000000  0.5169410000000  0.5004880000000 1.0
C      1  0.4665730000000  0.4190100000000  0.5222340000000 1.0
C      1  0.4776120000000  0.4447330000000  0.4322400000000 1.0
C      1  0.4353320000000  0.4649770000000  0.4350800000000 1.0
C      1  0.5960950000000  0.5447480000000  0.5203190000000 1.0
C      1  0.4241170000000  0.4527810000000  0.5284520000000 1.0
C      1  0.4718310000000  0.5048890000000  0.4459990000000 1.0
C      1  0.4342730000000  0.4263530000000  0.5231150000000 1.0
C      1  0.5201170000000  0.5240240000000  0.5377820000000 1.0
C      1  0.4748800000000  0.5476480000000  0.5005920000000 1.0
C      1  0.5350790000000  0.5017830000000  0.4710370000000 1.0
C      1  0.4531760000000  0.4662740000000  0.5046070000000 1.0
C      1  0.4587620000000  0.4559270000000  0.5837050000000 1.0
C      1  0.4820380000000  0.5618010000000  0.5867340000000 1.0
C      1  0.5083840000000  0.4401540000000  0.5060950000000 1.0
C      1  0.4769300000000  0.5490540000000  0.4168580000000 1.0
C      1  0.5325110000000  0.4943060000000  0.5421930000000 1.0
C      1  0.4924480000000  0.5233460000000  0.4969370000000 1.0
C      1  0.5256120000000  0.4240530000000  0.4575880000000 1.0
C      1  0.4973870000000  0.4719710000000  0.5083210000000 1.0
C      1  0.4655420000000  0.5859180000000  0.4549720000000 1.0
C      1  0.5050480000000  0.5420420000000  0.5549960000000 1.0
C      1  0.4252470000000  0.5012220000000  0.5621340000000 1.0
C      1  0.4369040000000  0.4631150000000  0.5586530000000 1.0
C      1  0.4994580000000  0.4796310000000  0.6058830000000 1.0
C      1  0.5711090000000  0.5937660000000  0.5333150000000 1.0
C      1  0.5804780000000  0.5335110000000  0.4489010000000 1.0
C      1  0.5352270000000  0.4597460000000  0.5406210000000 1.0
C      1  0.5778660000000  0.4538780000000  0.5371510000000 1.0
C      1  0.5371920000000  0.4261960000000  0.5458200000000 1.0
C      1  0.5171710000000  0.4569770000000  0.4560950000000 1.0
C      1  0.5037020000000  0.5037490000000  0.4577900000000 1.0
C      1  0.4425560000000  0.5520190000000  0.5578950000000 1.0
C      1  0.4771310000000  0.5576660000000  0.5297800000000 1.0
C      1  0.4787060000000  0.5955620000000  0.5149480000000 1.0
C      1  0.5352860000000  0.5176440000000  0.4344630000000 1.0
C      1  0.5526870000000  0.5742030000000  0.5282580000000 1.0
C      1  0.5799450000000  0.4498640000000  0.4866380000000 1.0
C      1  0.5959470000000  0.5389610000000  0.4910010000000 1.0
C      1  0.4644950000000  0.4775970000000  0.5514690000000 1.0
C      1  0.5635130000000  0.4277120000000  0.5317980000000 1.0
C      1  0.4763640000000  0.4545780000000  0.4880290000000 1.0
C      1  0.4631000000000  0.4297360000000  0.4570080000000 1.0
C      1  0.5691150000000  0.5522600000000  0.4748900000000 1.0
C      1  0.5454510000000  0.5445900000000  0.5910340000000 1.0
C      1  0.5356020000000  0.4605290000000  0.5066060000000 1.0
C      1  0.5501330000000  0.4393620000000  0.4418460000000 1.0
C      1  0.5352850000000  0.4079450000000  0.4822790000000 1.0
C      1  0.4714850000000  0.5178200000000  0.5842880000000 1.0
C      1  0.4899370000000  0.4096770000000  0.5433950000000 1.0
C      1  0.4437010000000  0.4521970000000  0.4624060000000 1.0
C      1  0.5018360000000  0.4061670000000  0.4478680000000 1.0
C      1  0.4841080000000  0.4635630000000  0.4597990000000 1.0
C      1  0.5888530000000  0.5085490000000  0.4581950000000 1.0
C      1  0.5420100000000  0.5228420000000  0.6022800000000 1.0
C      1  0.6027790000000  0.4707630000000  0.4276520000000 1.0
C      1  0.5237580000000  0.5621260000000  0.5034520000000 1.0
C      1  0.4862670000000  0.5717580000000  0.5593490000000 1.0
C      1  0.5428460000000  0.5339780000000  0.4633130000000 1.0
C      1  0.5284680000000  0.5719020000000  0.5423800000000 1.0
C      1  0.4463820000000  0.5130990000000  0.5499850000000 1.0
C      1  0.4738840000000  0.4331800000000  0.5588740000000 1.0
C      1  0.4473440000000  0.5099900000000  0.4328050000000 1.0
C      1  0.4645100000000  0.4507150000000  0.5325170000000 1.0
C      1  0.5642640000000  0.5045550000000  0.4268490000000 1.0
C      1  0.4784160000000  0.4049910000000  0.4686900000000 1.0
C      1  0.5421710000000  0.5152270000000  0.4984590000000 1.0
C      1  0.5261140000000  0.5622200000000  0.5724660000000 1.0
C      1  0.5089390000000  0.5350550000000  0.4610160000000 1.0
C      1  0.4205250000000  0.4440640000000  0.4811150000000 1.0
C      1  0.5591320000000  0.4379430000000  0.5042340000000 1.0
C      1  0.5126850000000  0.4983070000000  0.4254520000000 1.0
C      1  0.5012550000000  0.4265970000000  0.4260120000000 1.0
C      1  0.5258800000000  0.4402520000000  0.4210220000000 1.0
C      1  0.5349610000000  0.5501780000000  0.4245180000000 1.0
C      1  0.4140600000000  0.4996590000000  0.5189110000000 1.0
C      1  0.4199160000000  0.4720190000000  0.5004580000000 1.0
C      1  0.4898620000000  0.5903960000000  0.4368970000000 1.0
C      1  0.4642890000000  0.4892910000000  0.5225520000000 1.0
C      1  0.4717910000000  0.5349650000000  0.5545390000000 1.0
C      1  0.4621920000000  0.4704880000000  0.3925060000000 1.0
C      1  0.5045730000000  0.5159060000000  0.5900780000000 1.0
C      1  0.5211170000000  0.4548760000000  0.5972640000000 1.0
C      1  0.4818190000000  0.4888040000000  0.3881190000000 1.0
C      1  0.4671880000000  0.3798770000000  0.4726930000000 1.0
C      1  0.4572580000000  0.4829810000000  0.4675380000000 1.0
C      1  0.5165990000000  0.4108640000000  0.5342210000000 1.0
C      1  0.5811450000000  0.4943670000000  0.5080820000000 1.0
C      1  0.4969790000000  0.5077030000000  0.4015210000000 1.0
C      1  0.5213000000000  0.4700500000000  0.4254500000000 1.0
C      1  0.4719050000000  0.5916410000000  0.4851050000000 1.0
C      1  0.5661740000000  0.4610310000000  0.4595990000000 1.0
C      1  0.4916640000000  0.4486230000000  0.5808570000000 1.0
C      1  0.4529800000000  0.4985120000000  0.6139700000000 1.0
C      1  0.5720710000000  0.5799860000000  0.4668110000000 1.0
C      1  0.5187650000000  0.5641860000000  0.4739170000000 1.0
C      1  0.4097330000000  0.4784440000000  0.5451260000000 1.0
C      1  0.5818880000000  0.4821140000000  0.4426000000000 1.0
C      1  0.4941460000000  0.4841230000000  0.5372020000000 1.0
C      1  0.3862350000000  0.4685870000000  0.4972980000000 1.0
C      1  0.4389420000000  0.5474630000000  0.5242880000000 1.0
C      1  0.5036340000000  0.5778680000000  0.5243570000000 1.0
C      1  0.5148540000000  0.5692570000000  0.4416220000000 1.0
C      1  0.4810910000000  0.4236590000000  0.4942300000000 1.0
C      1  0.5144840000000  0.4660720000000  0.5662620000000 1.0
C      1  0.4349700000000  0.5726030000000  0.4482650000000 1.0
C      1  0.5871190000000  0.4653100000000  0.5121490000000 1.0
C      1  0.5668960000000  0.5382790000000  0.4231800000000 1.0
C      1  0.5057060000000  0.5467770000000  0.5945560000000 1.0
C      1  0.4366750000000  0.5512260000000  0.4914850000000 1.0
C      1  0.4277970000000  0.4911990000000  0.4418080000000 1.0
C      1  0.4910010000000  0.4926090000000  0.4867230000000 1.0
C      1  0.5292390000000  0.4939080000000  0.5980990000000 1.0
C      1  0.4190190000000  0.5270730000000  0.4775920000000 1.0
C      1  0.4258110000000  0.4936990000000  0.4748960000000 1.0
C      1  0.5551470000000  0.5522810000000  0.5058900000000 1.0
C      1  0.4235000000000  0.5510000000000  0.4538490000000 1.0
C      1  0.5488790000000  0.4713820000000  0.5859220000000 1.0
END
