TITL C-2847948-6138-79 -0.000530529855462871 125000 -854.782935432278 0 0 159 (C1) n - 1
REM
REM in /home/bkarasulu/work/CARBON/AIRSS/Generating-Clusters/AIREBO/with-SteepDescent/Only-C1/SD-CG-opt/Try1-1.4A-POS3A/HFTN-CG
REM
REM
REM
REM
REM
REM ./C.cell (11c1c37f851c82e70ff6c80c92926a4b)
REM
REM compiler GCC version 9.2.1 20190827 (Red Hat 9.2.1-1)
REM options -cpp -mtune=generic -march=x86-64 -g -O0 -fpre-include=/usr/include/finclude/math-vector-fortran.h
REM seed -164271652 -1687273067 -1409665229 -1835294759 1332244265 1012511623 851451753 566287475 1957533279 -213956857 1926727130 971763407 1523728685 -1446561603 2131399430 277953855 617138740 -430931766 730517543 104639470 742836673 -1395407823 -52718960 1185335298 -1935613827 -1428343720 -1641410267 873338488 1997632541 -557523187 -448218783 1468547806 2056245872
REM
CELL 1.54180   50.00000   50.00000   50.00000   90.00000   90.00000   90.00000
LATT -1
SFAC C  
C      1  0.4512680000000  0.5202920000000  0.5242520000000 1.0
C      1  0.5634350000000  0.5053630000000  0.5758110000000 1.0
C      1  0.5917080000000  0.5182140000000  0.4504820000000 1.0
C      1  0.5382610000000  0.5521890000000  0.4293700000000 1.0
C      1  0.4443250000000  0.4616910000000  0.4941920000000 1.0
C      1  0.5714950000000  0.4408540000000  0.4496140000000 1.0
C      1  0.4664060000000  0.5110830000000  0.5946950000000 1.0
C      1  0.5524450000000  0.4341680000000  0.5507320000000 1.0
C      1  0.5345620000000  0.4791030000000  0.4633860000000 1.0
C      1  0.5536660000000  0.5421040000000  0.4012620000000 1.0
C      1  0.5165310000000  0.4362050000000  0.5193640000000 1.0
C      1  0.5132100000000  0.4413440000000  0.5517860000000 1.0
C      1  0.6075470000000  0.5221460000000  0.4803590000000 1.0
C      1  0.4596920000000  0.5497480000000  0.5300460000000 1.0
C      1  0.5761250000000  0.5010780000000  0.5478650000000 1.0
C      1  0.5915670000000  0.5247340000000  0.5373770000000 1.0
C      1  0.4808030000000  0.5458490000000  0.5803760000000 1.0
C      1  0.4657230000000  0.4687680000000  0.4616020000000 1.0
C      1  0.4822130000000  0.4604560000000  0.4329650000000 1.0
C      1  0.5225400000000  0.4942900000000  0.5180920000000 1.0
C      1  0.4880090000000  0.5442090000000  0.5471760000000 1.0
C      1  0.4244550000000  0.5772430000000  0.5169130000000 1.0
C      1  0.5200510000000  0.4225980000000  0.4883900000000 1.0
C      1  0.5053200000000  0.5207380000000  0.3830260000000 1.0
C      1  0.6054680000000  0.4551470000000  0.5276170000000 1.0
C      1  0.4643520000000  0.5451100000000  0.4906800000000 1.0
C      1  0.4972770000000  0.4712880000000  0.4740400000000 1.0
C      1  0.5626080000000  0.4835170000000  0.5943160000000 1.0
C      1  0.5887440000000  0.4618910000000  0.4303390000000 1.0
C      1  0.5459200000000  0.5492300000000  0.4682190000000 1.0
C      1  0.5229450000000  0.4028920000000  0.5170370000000 1.0
C      1  0.5029510000000  0.6043160000000  0.4937390000000 1.0
C      1  0.5778980000000  0.4766950000000  0.4772430000000 1.0
C      1  0.5173410000000  0.5038580000000  0.4086900000000 1.0
C      1  0.4854190000000  0.4325770000000  0.5604440000000 1.0
C      1  0.5817960000000  0.4889340000000  0.4496000000000 1.0
C      1  0.4812540000000  0.5552980000000  0.4349820000000 1.0
C      1  0.5342290000000  0.5236610000000  0.5557270000000 1.0
C      1  0.4981800000000  0.4891590000000  0.5777220000000 1.0
C      1  0.4800230000000  0.3931910000000  0.4826630000000 1.0
C      1  0.5306930000000  0.5751540000000  0.5441790000000 1.0
C      1  0.4422720000000  0.5064420000000  0.5709400000000 1.0
C      1  0.4889090000000  0.5833040000000  0.4408260000000 1.0
C      1  0.4666530000000  0.4101850000000  0.5060840000000 1.0
C      1  0.5909830000000  0.5873510000000  0.5123070000000 1.0
C      1  0.4962560000000  0.5339860000000  0.4518100000000 1.0
C      1  0.4166240000000  0.4392840000000  0.5095440000000 1.0
C      1  0.4810360000000  0.4828270000000  0.6029300000000 1.0
C      1  0.4313030000000  0.5510270000000  0.4960760000000 1.0
C      1  0.4007930000000  0.4771980000000  0.4673290000000 1.0
C      1  0.4192460000000  0.5019780000000  0.4926260000000 1.0
C      1  0.5539800000000  0.4898780000000  0.5252030000000 1.0
C      1  0.5210180000000  0.4485100000000  0.4694530000000 1.0
C      1  0.4583260000000  0.5078970000000  0.4582040000000 1.0
C      1  0.5143680000000  0.5894270000000  0.4331270000000 1.0
C      1  0.5539870000000  0.5022730000000  0.4352440000000 1.0
C      1  0.5536640000000  0.5200090000000  0.4838740000000 1.0
C      1  0.5657540000000  0.5113650000000  0.4037910000000 1.0
C      1  0.5930080000000  0.5566330000000  0.4399040000000 1.0
C      1  0.5513300000000  0.4184530000000  0.5272280000000 1.0
C      1  0.5792300000000  0.5644560000000  0.5164290000000 1.0
C      1  0.4909170000000  0.5020050000000  0.4620540000000 1.0
C      1  0.5760410000000  0.5508970000000  0.5448410000000 1.0
C      1  0.4766670000000  0.5949340000000  0.4881230000000 1.0
C      1  0.4880200000000  0.5477700000000  0.4060410000000 1.0
C      1  0.4681730000000  0.4549640000000  0.5772800000000 1.0
C      1  0.4777510000000  0.5971680000000  0.5528570000000 1.0
C      1  0.5385800000000  0.4873250000000  0.6146610000000 1.0
C      1  0.5105820000000  0.4236960000000  0.4394230000000 1.0
C      1  0.4127040000000  0.5461490000000  0.5241200000000 1.0
C      1  0.5015990000000  0.5744350000000  0.5548150000000 1.0
C      1  0.5398240000000  0.5275270000000  0.5861970000000 1.0
C      1  0.5405020000000  0.5766880000000  0.4507600000000 1.0
C      1  0.4343960000000  0.3990290000000  0.5403520000000 1.0
C      1  0.4404100000000  0.4463700000000  0.4576790000000 1.0
C      1  0.5617390000000  0.4360490000000  0.5046870000000 1.0
C      1  0.4271470000000  0.5448130000000  0.5743060000000 1.0
C      1  0.4381080000000  0.4142410000000  0.5177830000000 1.0
C      1  0.4506310000000  0.5525010000000  0.4369110000000 1.0
C      1  0.4950320000000  0.5437130000000  0.4812660000000 1.0
C      1  0.4812690000000  0.4040790000000  0.5531210000000 1.0
C      1  0.4911340000000  0.4004350000000  0.5265880000000 1.0
C      1  0.5994800000000  0.5238660000000  0.5092130000000 1.0
C      1  0.4510820000000  0.5138060000000  0.4909010000000 1.0
C      1  0.5195290000000  0.4737350000000  0.4345790000000 1.0
C      1  0.4300340000000  0.5188090000000  0.4428230000000 1.0
C      1  0.4851150000000  0.5103290000000  0.5467450000000 1.0
C      1  0.5259440000000  0.5214570000000  0.4371330000000 1.0
C      1  0.4677810000000  0.5282300000000  0.4000730000000 1.0
C      1  0.4282190000000  0.5253750000000  0.5464240000000 1.0
C      1  0.5783070000000  0.5452330000000  0.4651230000000 1.0
C      1  0.4324140000000  0.5561400000000  0.4566010000000 1.0
C      1  0.4446400000000  0.5318960000000  0.4160690000000 1.0
C      1  0.4170730000000  0.4732790000000  0.5109110000000 1.0
C      1  0.3861630000000  0.4976560000000  0.4860120000000 1.0
C      1  0.5593490000000  0.5659450000000  0.5704850000000 1.0
C      1  0.4957010000000  0.5186250000000  0.6083840000000 1.0
C      1  0.4512540000000  0.5880370000000  0.5348480000000 1.0
C      1  0.5372310000000  0.4614990000000  0.5924790000000 1.0
C      1  0.5434220000000  0.4885680000000  0.3997350000000 1.0
C      1  0.4626370000000  0.5743940000000  0.5063710000000 1.0
C      1  0.5393250000000  0.4466070000000  0.4399040000000 1.0
C      1  0.4950160000000  0.5372210000000  0.5146480000000 1.0
C      1  0.4991310000000  0.4095130000000  0.4681270000000 1.0
C      1  0.4318020000000  0.4485740000000  0.5385290000000 1.0
C      1  0.5224240000000  0.5909450000000  0.4719820000000 1.0
C      1  0.4486750000000  0.4670370000000  0.4123880000000 1.0
C      1  0.4786000000000  0.4652040000000  0.5235830000000 1.0
C      1  0.4679570000000  0.4857080000000  0.5627510000000 1.0
C      1  0.4086300000000  0.4526940000000  0.5608130000000 1.0
C      1  0.4140170000000  0.4896750000000  0.4457340000000 1.0
C      1  0.4625120000000  0.4501690000000  0.5448370000000 1.0
C      1  0.5317090000000  0.4687080000000  0.5597120000000 1.0
C      1  0.4955310000000  0.4801320000000  0.4141710000000 1.0
C      1  0.5914500000000  0.4713160000000  0.5436680000000 1.0
C      1  0.4801810000000  0.5005570000000  0.3934190000000 1.0
C      1  0.5945030000000  0.4418650000000  0.5073360000000 1.0
C      1  0.5372110000000  0.4594120000000  0.5055500000000 1.0
C      1  0.5514030000000  0.4869200000000  0.4914200000000 1.0
C      1  0.5261620000000  0.5477480000000  0.4921200000000 1.0
C      1  0.4162810000000  0.4520840000000  0.4775300000000 1.0
C      1  0.5232100000000  0.5100620000000  0.4690600000000 1.0
C      1  0.4705580000000  0.4430100000000  0.4832720000000 1.0
C      1  0.4498210000000  0.5391140000000  0.5926750000000 1.0
C      1  0.5323890000000  0.4227220000000  0.4166990000000 1.0
C      1  0.4716220000000  0.4957580000000  0.5219740000000 1.0
C      1  0.5175970000000  0.5178730000000  0.5016750000000 1.0
C      1  0.5786980000000  0.5344730000000  0.4235130000000 1.0
C      1  0.5451080000000  0.5461200000000  0.5390250000000 1.0
C      1  0.5361570000000  0.4329020000000  0.5758550000000 1.0
C      1  0.4798090000000  0.4325620000000  0.4522590000000 1.0
C      1  0.4603720000000  0.4400470000000  0.4181200000000 1.0
C      1  0.5602480000000  0.4645910000000  0.5451780000000 1.0
C      1  0.4185630000000  0.5297430000000  0.4729710000000 1.0
C      1  0.4491500000000  0.4226590000000  0.4402200000000 1.0
C      1  0.5575620000000  0.4704210000000  0.4238780000000 1.0
C      1  0.5316380000000  0.5931470000000  0.5015460000000 1.0
C      1  0.4374640000000  0.4810180000000  0.5484520000000 1.0
C      1  0.4644480000000  0.4847310000000  0.4918190000000 1.0
C      1  0.5167750000000  0.4975280000000  0.5505100000000 1.0
C      1  0.3995890000000  0.5081870000000  0.5410180000000 1.0
C      1  0.5196070000000  0.5433930000000  0.4035950000000 1.0
C      1  0.4856290000000  0.4370840000000  0.5094480000000 1.0
C      1  0.4554100000000  0.3933090000000  0.5578290000000 1.0
C      1  0.5333680000000  0.5661590000000  0.5141630000000 1.0
C      1  0.4646350000000  0.5725090000000  0.5690350000000 1.0
C      1  0.5261550000000  0.5124740000000  0.6114720000000 1.0
C      1  0.4564860000000  0.4802770000000  0.3900440000000 1.0
C      1  0.3964480000000  0.5193430000000  0.5109510000000 1.0
C      1  0.4060280000000  0.4789830000000  0.5400080000000 1.0
C      1  0.5764920000000  0.5415390000000  0.4961040000000 1.0
C      1  0.5114910000000  0.5448700000000  0.5934950000000 1.0
C      1  0.5053820000000  0.4713520000000  0.5042430000000 1.0
C      1  0.4452680000000  0.4826700000000  0.4382610000000 1.0
C      1  0.4719620000000  0.4563890000000  0.6086680000000 1.0
C      1  0.4386280000000  0.5634280000000  0.5526190000000 1.0
C      1  0.5792880000000  0.4460180000000  0.4783150000000 1.0
C      1  0.4723490000000  0.5957070000000  0.4601480000000 1.0
C      1  0.5282860000000  0.5652060000000  0.5755890000000 1.0
END
