TITL C-2847948-6138-515 0.00158737154557943 125000 -905.811391180253 0 0 173 (C1) n - 1
REM
REM in /home/bkarasulu/work/CARBON/AIRSS/Generating-Clusters/AIREBO/with-SteepDescent/Only-C1/SD-CG-opt/Try1-1.4A-POS3A/HFTN-CG
REM
REM
REM
REM
REM
REM ./C.cell (11c1c37f851c82e70ff6c80c92926a4b)
REM
REM compiler GCC version 9.2.1 20190827 (Red Hat 9.2.1-1)
REM options -cpp -mtune=generic -march=x86-64 -g -O0 -fpre-include=/usr/include/finclude/math-vector-fortran.h
REM seed 780040133 -1201632858 -722860042 347092088 -1737061388 -470557257 -1606305053 1184143267 1914890893 1231232017 -1731395511 -415411735 -1679384033 406853610 1424786829 -292809920 -514077985 -2087744509 -1783829545 787038322 -551796250 2128488177 1350601907 -1298566856 1133294647 -1484111853 1497450516 206168408 1209808118 -256005341 1547710504 -352994051 1090198508
REM
CELL 1.54180   50.00000   50.00000   50.00000   90.00000   90.00000   90.00000
LATT -1
SFAC C  
C      1  0.4221890000000  0.4305260000000  0.5321670000000 1.0
C      1  0.5611320000000  0.5612080000000  0.5513030000000 1.0
C      1  0.4695330000000  0.4022880000000  0.5307120000000 1.0
C      1  0.4973640000000  0.4509950000000  0.4973410000000 1.0
C      1  0.5903880000000  0.4387410000000  0.5301860000000 1.0
C      1  0.4483770000000  0.5457120000000  0.5647200000000 1.0
C      1  0.5071100000000  0.4981010000000  0.4389430000000 1.0
C      1  0.5491570000000  0.4520850000000  0.4266120000000 1.0
C      1  0.5926420000000  0.5203710000000  0.5521400000000 1.0
C      1  0.5308430000000  0.5640830000000  0.5614350000000 1.0
C      1  0.6015260000000  0.5272170000000  0.4912000000000 1.0
C      1  0.4129490000000  0.4923520000000  0.4720900000000 1.0
C      1  0.4485430000000  0.5031990000000  0.4538010000000 1.0
C      1  0.5285880000000  0.4852190000000  0.5307530000000 1.0
C      1  0.6023720000000  0.5010970000000  0.4776600000000 1.0
C      1  0.5000160000000  0.6014450000000  0.4755080000000 1.0
C      1  0.5991030000000  0.4621760000000  0.5533120000000 1.0
C      1  0.5133180000000  0.5077210000000  0.5820120000000 1.0
C      1  0.4312820000000  0.5041770000000  0.4958830000000 1.0
C      1  0.4109000000000  0.5657040000000  0.5032960000000 1.0
C      1  0.5118660000000  0.4655480000000  0.4475650000000 1.0
C      1  0.4633970000000  0.4652300000000  0.5853780000000 1.0
C      1  0.4698260000000  0.5951990000000  0.5191710000000 1.0
C      1  0.5761470000000  0.5555580000000  0.5011740000000 1.0
C      1  0.6004190000000  0.4922350000000  0.5696330000000 1.0
C      1  0.4777800000000  0.4673200000000  0.5482760000000 1.0
C      1  0.4168400000000  0.5146410000000  0.5248370000000 1.0
C      1  0.4351000000000  0.4438460000000  0.4759480000000 1.0
C      1  0.5351880000000  0.4315840000000  0.5776310000000 1.0
C      1  0.5203130000000  0.5243990000000  0.5545570000000 1.0
C      1  0.4714310000000  0.5421350000000  0.5895050000000 1.0
C      1  0.5409220000000  0.4801750000000  0.5621220000000 1.0
C      1  0.4596090000000  0.4960300000000  0.5469440000000 1.0
C      1  0.5447610000000  0.4028570000000  0.5050440000000 1.0
C      1  0.4912810000000  0.5188050000000  0.6054110000000 1.0
C      1  0.4727930000000  0.4430860000000  0.5285630000000 1.0
C      1  0.4803040000000  0.4223320000000  0.5544280000000 1.0
C      1  0.4806190000000  0.5218050000000  0.4908980000000 1.0
C      1  0.4798440000000  0.5444200000000  0.5318390000000 1.0
C      1  0.5305890000000  0.4581880000000  0.4750240000000 1.0
C      1  0.5352860000000  0.6079970000000  0.4956880000000 1.0
C      1  0.5125820000000  0.4553910000000  0.5275020000000 1.0
C      1  0.4631740000000  0.4446330000000  0.4335980000000 1.0
C      1  0.5782910000000  0.4675310000000  0.4350090000000 1.0
C      1  0.5431890000000  0.4730400000000  0.5032430000000 1.0
C      1  0.4705940000000  0.5674300000000  0.4284610000000 1.0
C      1  0.5146900000000  0.4709840000000  0.5967190000000 1.0
C      1  0.4726280000000  0.4717730000000  0.4504800000000 1.0
C      1  0.6017030000000  0.4599750000000  0.5081590000000 1.0
C      1  0.4021770000000  0.4815980000000  0.5418730000000 1.0
C      1  0.4356840000000  0.4448250000000  0.5509280000000 1.0
C      1  0.4297710000000  0.5188220000000  0.4326960000000 1.0
C      1  0.4760690000000  0.5027880000000  0.4367340000000 1.0
C      1  0.6167980000000  0.4791490000000  0.5206710000000 1.0
C      1  0.5871840000000  0.4952310000000  0.4311850000000 1.0
C      1  0.5039440000000  0.5476460000000  0.5978220000000 1.0
C      1  0.5487530000000  0.5256530000000  0.5844130000000 1.0
C      1  0.5643300000000  0.5295560000000  0.5573750000000 1.0
C      1  0.5110970000000  0.5217480000000  0.3964160000000 1.0
C      1  0.5081800000000  0.5549080000000  0.4336760000000 1.0
C      1  0.5526970000000  0.4096940000000  0.4745870000000 1.0
C      1  0.4688270000000  0.4784220000000  0.4060350000000 1.0
C      1  0.5236470000000  0.4656260000000  0.3990840000000 1.0
C      1  0.3921150000000  0.5047610000000  0.5036700000000 1.0
C      1  0.5592230000000  0.4299540000000  0.4480680000000 1.0
C      1  0.5209290000000  0.5819890000000  0.4208890000000 1.0
C      1  0.4867980000000  0.4281110000000  0.4184090000000 1.0
C      1  0.5292230000000  0.5468780000000  0.5863860000000 1.0
C      1  0.4962640000000  0.4913210000000  0.5220090000000 1.0
C      1  0.5503320000000  0.4812900000000  0.4092420000000 1.0
C      1  0.5298160000000  0.4137150000000  0.5349600000000 1.0
C      1  0.4369280000000  0.5365140000000  0.4870670000000 1.0
C      1  0.4954750000000  0.4767240000000  0.4751840000000 1.0
C      1  0.5299290000000  0.5399010000000  0.4444990000000 1.0
C      1  0.5591720000000  0.4464000000000  0.5070320000000 1.0
C      1  0.4982350000000  0.4914920000000  0.5559650000000 1.0
C      1  0.4422810000000  0.5720870000000  0.5550180000000 1.0
C      1  0.4946760000000  0.4561860000000  0.5750620000000 1.0
C      1  0.5202870000000  0.4976150000000  0.4101180000000 1.0
C      1  0.4057970000000  0.4457400000000  0.5093900000000 1.0
C      1  0.5625310000000  0.4558540000000  0.5395230000000 1.0
C      1  0.5574880000000  0.4523360000000  0.5729670000000 1.0
C      1  0.6023400000000  0.4988720000000  0.5303950000000 1.0
C      1  0.4403680000000  0.4982050000000  0.4121880000000 1.0
C      1  0.4852280000000  0.4383310000000  0.4682090000000 1.0
C      1  0.5841690000000  0.5466060000000  0.4693130000000 1.0
C      1  0.4419560000000  0.4802340000000  0.5151110000000 1.0
C      1  0.4669080000000  0.5042580000000  0.5779940000000 1.0
C      1  0.4960330000000  0.4666660000000  0.4174540000000 1.0
C      1  0.4941900000000  0.5415970000000  0.4093890000000 1.0
C      1  0.5630690000000  0.4186940000000  0.5271800000000 1.0
C      1  0.5016650000000  0.4177100000000  0.5028140000000 1.0
C      1  0.5877380000000  0.4746530000000  0.4844580000000 1.0
C      1  0.5655520000000  0.5163510000000  0.4234470000000 1.0
C      1  0.4668020000000  0.5289340000000  0.4185270000000 1.0
C      1  0.5115360000000  0.4357670000000  0.5536910000000 1.0
C      1  0.4722780000000  0.5148380000000  0.5216070000000 1.0
C      1  0.4864630000000  0.5233560000000  0.5577320000000 1.0
C      1  0.5065520000000  0.4319930000000  0.4458100000000 1.0
C      1  0.4289700000000  0.5754190000000  0.4825770000000 1.0
C      1  0.5622270000000  0.5852910000000  0.5059550000000 1.0
C      1  0.4534820000000  0.4012720000000  0.4578960000000 1.0
C      1  0.5395000000000  0.4940010000000  0.5927620000000 1.0
C      1  0.5904310000000  0.5160860000000  0.4546690000000 1.0
C      1  0.4905580000000  0.4449910000000  0.3918210000000 1.0
C      1  0.4374300000000  0.4870090000000  0.5789120000000 1.0
C      1  0.4636000000000  0.5911290000000  0.5504400000000 1.0
C      1  0.5727510000000  0.4836540000000  0.5542060000000 1.0
C      1  0.4897740000000  0.5781670000000  0.4077860000000 1.0
C      1  0.5162550000000  0.5375800000000  0.4819120000000 1.0
C      1  0.5353920000000  0.5749170000000  0.4878220000000 1.0
C      1  0.4723700000000  0.4708880000000  0.5089910000000 1.0
C      1  0.5579530000000  0.5854620000000  0.5355820000000 1.0
C      1  0.3968040000000  0.5502780000000  0.5513790000000 1.0
C      1  0.4471380000000  0.4273530000000  0.4529420000000 1.0
C      1  0.5153900000000  0.5926490000000  0.5653540000000 1.0
C      1  0.5323100000000  0.5989300000000  0.5419940000000 1.0
C      1  0.4005310000000  0.5224290000000  0.5532060000000 1.0
C      1  0.5024380000000  0.5682850000000  0.4826160000000 1.0
C      1  0.4810410000000  0.5657380000000  0.5090590000000 1.0
C      1  0.5065920000000  0.4042560000000  0.4654800000000 1.0
C      1  0.5575700000000  0.5420800000000  0.4278070000000 1.0
C      1  0.4862220000000  0.5601460000000  0.4551520000000 1.0
C      1  0.4678140000000  0.4211420000000  0.5028330000000 1.0
C      1  0.5961070000000  0.5371620000000  0.5220770000000 1.0
C      1  0.5482800000000  0.4937070000000  0.4392950000000 1.0
C      1  0.4576450000000  0.4652070000000  0.4788710000000 1.0
C      1  0.3855130000000  0.5085250000000  0.4703850000000 1.0
C      1  0.4035990000000  0.5354190000000  0.4937390000000 1.0
C      1  0.5519110000000  0.5562940000000  0.4646020000000 1.0
C      1  0.5222330000000  0.5786010000000  0.5189670000000 1.0
C      1  0.5126060000000  0.4981660000000  0.4929790000000 1.0
C      1  0.5742970000000  0.5117690000000  0.5160840000000 1.0
C      1  0.5482160000000  0.5734950000000  0.4338880000000 1.0
C      1  0.4287950000000  0.4790270000000  0.4451280000000 1.0
C      1  0.5487890000000  0.5421050000000  0.5120730000000 1.0
C      1  0.4881850000000  0.5862460000000  0.5640880000000 1.0
C      1  0.4612160000000  0.4988100000000  0.4826310000000 1.0
C      1  0.4339360000000  0.4261220000000  0.5021680000000 1.0
C      1  0.4098460000000  0.5063570000000  0.5742540000000 1.0
C      1  0.5872240000000  0.4638050000000  0.5851310000000 1.0
C      1  0.5487670000000  0.5276470000000  0.4826820000000 1.0
C      1  0.4572230000000  0.4392570000000  0.5679530000000 1.0
C      1  0.4852720000000  0.4859620000000  0.6000000000000 1.0
C      1  0.4030500000000  0.5435580000000  0.4627310000000 1.0
C      1  0.5871100000000  0.4561280000000  0.4594090000000 1.0
C      1  0.5254560000000  0.4280740000000  0.4807500000000 1.0
C      1  0.4864760000000  0.5569270000000  0.5631270000000 1.0
C      1  0.4018840000000  0.5206840000000  0.4449240000000 1.0
C      1  0.5188190000000  0.5170830000000  0.4583750000000 1.0
C      1  0.4363420000000  0.5951210000000  0.5216930000000 1.0
C      1  0.5623480000000  0.4970230000000  0.4886100000000 1.0
C      1  0.4117910000000  0.4598860000000  0.4655620000000 1.0
C      1  0.5213590000000  0.4358850000000  0.4154450000000 1.0
C      1  0.5011230000000  0.3804810000000  0.4884440000000 1.0
C      1  0.4162480000000  0.5711090000000  0.5349850000000 1.0
C      1  0.4410800000000  0.4650320000000  0.4196070000000 1.0
C      1  0.4548130000000  0.5719730000000  0.4903850000000 1.0
C      1  0.4398230000000  0.5236500000000  0.5482550000000 1.0
C      1  0.5155160000000  0.3903070000000  0.5148650000000 1.0
C      1  0.5687870000000  0.4382760000000  0.4797370000000 1.0
C      1  0.5451900000000  0.5147990000000  0.5334490000000 1.0
C      1  0.4237490000000  0.5620990000000  0.4566600000000 1.0
C      1  0.5353900000000  0.4912530000000  0.4686840000000 1.0
C      1  0.5232820000000  0.5482190000000  0.5323060000000 1.0
C      1  0.4638250000000  0.5087850000000  0.3915510000000 1.0
C      1  0.4325790000000  0.4753870000000  0.5473270000000 1.0
C      1  0.4433810000000  0.5499780000000  0.4315240000000 1.0
C      1  0.4755400000000  0.3988370000000  0.4783540000000 1.0
C      1  0.5082470000000  0.5273750000000  0.5099450000000 1.0
C      1  0.5011770000000  0.6000100000000  0.5069220000000 1.0
C      1  0.4679150000000  0.5461300000000  0.4768490000000 1.0
C      1  0.3954990000000  0.4729290000000  0.5152200000000 1.0
END
