TITL C-2848498-1409-273 -0.00602595691089096 125000 -748.854120066238 0 0 141 (C1) n - 1
REM
REM in /home/bkarasulu/work/CARBON/AIRSS/Generating-Clusters/AIREBO/with-SteepDescent/Only-C1/SD-CG-opt/Try1-1.4A-POS3A/HFTN-CG
REM
REM
REM
REM
REM
REM ./C.cell (11c1c37f851c82e70ff6c80c92926a4b)
REM
REM compiler GCC version 9.2.1 20190827 (Red Hat 9.2.1-1)
REM options -cpp -mtune=generic -march=x86-64 -g -O0 -fpre-include=/usr/include/finclude/math-vector-fortran.h
REM seed -2046785336 -1264760819 -2007924900 -683103888 1236584219 -951257867 -96179056 -1888710930 -449351627 -1464623531 -586059328 2111585531 -1588255648 -32219238 -788507050 2115512290 774665531 700429172 370636551 -1690735112 274717252 1449146524 -1294867276 -2106014603 1831092506 -737999379 1637388924 705096077 888234616 1426336636 1800696472 -780404257 -563958732
REM
CELL 1.54180   50.00000   50.00000   50.00000   90.00000   90.00000   90.00000
LATT -1
SFAC C  
C      1  0.5481120000000  0.5765830000000  0.4493540000000 1.0
C      1  0.4066620000000  0.4869520000000  0.4539830000000 1.0
C      1  0.5382380000000  0.4950560000000  0.4046890000000 1.0
C      1  0.4830580000000  0.4770290000000  0.4986570000000 1.0
C      1  0.4821830000000  0.5590190000000  0.5393310000000 1.0
C      1  0.4900620000000  0.3985740000000  0.5229250000000 1.0
C      1  0.4776720000000  0.6058540000000  0.5223670000000 1.0
C      1  0.4488600000000  0.5358250000000  0.4417050000000 1.0
C      1  0.5348750000000  0.5894040000000  0.4779500000000 1.0
C      1  0.4104280000000  0.5393420000000  0.5469250000000 1.0
C      1  0.4764720000000  0.4701620000000  0.4123160000000 1.0
C      1  0.4355060000000  0.4624270000000  0.5580990000000 1.0
C      1  0.4597120000000  0.4458830000000  0.4138250000000 1.0
C      1  0.4650620000000  0.5816540000000  0.5055220000000 1.0
C      1  0.5446500000000  0.5324360000000  0.4372980000000 1.0
C      1  0.5993370000000  0.5058640000000  0.5374060000000 1.0
C      1  0.5149680000000  0.5191450000000  0.5589540000000 1.0
C      1  0.4913520000000  0.4971600000000  0.5481870000000 1.0
C      1  0.4384160000000  0.5164940000000  0.5103940000000 1.0
C      1  0.4990620000000  0.5105140000000  0.4515480000000 1.0
C      1  0.4960080000000  0.4331850000000  0.4359610000000 1.0
C      1  0.4907670000000  0.5680080000000  0.4912310000000 1.0
C      1  0.5143590000000  0.5095970000000  0.4006040000000 1.0
C      1  0.4326940000000  0.4810450000000  0.4362780000000 1.0
C      1  0.5275650000000  0.5515260000000  0.4596560000000 1.0
C      1  0.5460340000000  0.4263280000000  0.4537760000000 1.0
C      1  0.5188580000000  0.5836130000000  0.5385540000000 1.0
C      1  0.5016220000000  0.4613990000000  0.4267870000000 1.0
C      1  0.4773240000000  0.5415130000000  0.5785370000000 1.0
C      1  0.5138310000000  0.5073370000000  0.5167700000000 1.0
C      1  0.5050490000000  0.4771150000000  0.4569850000000 1.0
C      1  0.5006520000000  0.4099940000000  0.4749890000000 1.0
C      1  0.4564790000000  0.4657220000000  0.4552210000000 1.0
C      1  0.5479110000000  0.4615350000000  0.5225750000000 1.0
C      1  0.5684150000000  0.5072110000000  0.5515230000000 1.0
C      1  0.5219670000000  0.4795640000000  0.5918360000000 1.0
C      1  0.5126560000000  0.4900160000000  0.4875310000000 1.0
C      1  0.4440610000000  0.4997140000000  0.5696410000000 1.0
C      1  0.4162640000000  0.4789390000000  0.5470030000000 1.0
C      1  0.5024810000000  0.4498430000000  0.4768250000000 1.0
C      1  0.5157420000000  0.4123130000000  0.5053760000000 1.0
C      1  0.5143060000000  0.4202990000000  0.4526610000000 1.0
C      1  0.5395320000000  0.3936240000000  0.4898520000000 1.0
C      1  0.4634730000000  0.5482300000000  0.4697320000000 1.0
C      1  0.5445510000000  0.5348150000000  0.4833680000000 1.0
C      1  0.5081150000000  0.5019080000000  0.5874590000000 1.0
C      1  0.5778480000000  0.4541150000000  0.4933300000000 1.0
C      1  0.5309610000000  0.4654960000000  0.4107980000000 1.0
C      1  0.4244520000000  0.5540290000000  0.5226900000000 1.0
C      1  0.4645390000000  0.5009700000000  0.5010670000000 1.0
C      1  0.5521820000000  0.5579870000000  0.5571090000000 1.0
C      1  0.5685250000000  0.4776150000000  0.5683270000000 1.0
C      1  0.5052250000000  0.5555960000000  0.5792870000000 1.0
C      1  0.5652860000000  0.5340910000000  0.5079670000000 1.0
C      1  0.5111400000000  0.4578270000000  0.5573000000000 1.0
C      1  0.5280000000000  0.4466460000000  0.5846410000000 1.0
C      1  0.5572740000000  0.5643550000000  0.4831410000000 1.0
C      1  0.4223410000000  0.4422730000000  0.4826320000000 1.0
C      1  0.4507660000000  0.4266510000000  0.4929030000000 1.0
C      1  0.4133450000000  0.5088220000000  0.5582280000000 1.0
C      1  0.5047940000000  0.5914230000000  0.4732940000000 1.0
C      1  0.4696880000000  0.4527730000000  0.4820660000000 1.0
C      1  0.4782890000000  0.4322910000000  0.5406690000000 1.0
C      1  0.5332080000000  0.4514840000000  0.4692240000000 1.0
C      1  0.4418040000000  0.3966930000000  0.4795340000000 1.0
C      1  0.5580390000000  0.4115980000000  0.4787320000000 1.0
C      1  0.4953920000000  0.4690450000000  0.5293240000000 1.0
C      1  0.6134470000000  0.4834200000000  0.5529910000000 1.0
C      1  0.4960190000000  0.5528760000000  0.4279000000000 1.0
C      1  0.4631260000000  0.4601250000000  0.5352850000000 1.0
C      1  0.4722470000000  0.4898880000000  0.5745710000000 1.0
C      1  0.5384370000000  0.5293110000000  0.5813670000000 1.0
C      1  0.5403480000000  0.5048950000000  0.4815110000000 1.0
C      1  0.5215790000000  0.4661290000000  0.5078250000000 1.0
C      1  0.4711170000000  0.4117720000000  0.4700780000000 1.0
C      1  0.5516080000000  0.4686940000000  0.5921660000000 1.0
C      1  0.4486750000000  0.5456270000000  0.5003080000000 1.0
C      1  0.5374440000000  0.5839870000000  0.5112300000000 1.0
C      1  0.3887930000000  0.5418810000000  0.4861190000000 1.0
C      1  0.5310270000000  0.4303790000000  0.5543920000000 1.0
C      1  0.5982010000000  0.4690370000000  0.5674650000000 1.0
C      1  0.5053470000000  0.4177500000000  0.5435480000000 1.0
C      1  0.4614510000000  0.4947750000000  0.4284410000000 1.0
C      1  0.5782490000000  0.5030790000000  0.5131350000000 1.0
C      1  0.5407800000000  0.4730960000000  0.5505370000000 1.0
C      1  0.4566330000000  0.4990490000000  0.4620650000000 1.0
C      1  0.5661460000000  0.4294510000000  0.4998510000000 1.0
C      1  0.4815840000000  0.5010280000000  0.4018140000000 1.0
C      1  0.5272170000000  0.5507510000000  0.4197350000000 1.0
C      1  0.5160540000000  0.5580860000000  0.5082730000000 1.0
C      1  0.4810890000000  0.5140450000000  0.5938540000000 1.0
C      1  0.4998570000000  0.4419360000000  0.5088420000000 1.0
C      1  0.4474080000000  0.4781420000000  0.5165320000000 1.0
C      1  0.4797590000000  0.5192060000000  0.4767330000000 1.0
C      1  0.4251190000000  0.5136560000000  0.4422550000000 1.0
C      1  0.4970750000000  0.5305750000000  0.5037130000000 1.0
C      1  0.4834230000000  0.5982970000000  0.4571330000000 1.0
C      1  0.4304710000000  0.5045840000000  0.4806700000000 1.0
C      1  0.4430070000000  0.5804300000000  0.4816200000000 1.0
C      1  0.5767580000000  0.5601920000000  0.4577850000000 1.0
C      1  0.4812380000000  0.4590680000000  0.5736760000000 1.0
C      1  0.4590170000000  0.4125520000000  0.5224600000000 1.0
C      1  0.5408670000000  0.4282660000000  0.5219060000000 1.0
C      1  0.4164310000000  0.4771390000000  0.5163390000000 1.0
C      1  0.5581950000000  0.4700150000000  0.4734960000000 1.0
C      1  0.5943810000000  0.5325720000000  0.4918800000000 1.0
C      1  0.5597250000000  0.5055600000000  0.4253770000000 1.0
C      1  0.4716070000000  0.5365690000000  0.5199600000000 1.0
C      1  0.6121810000000  0.5240080000000  0.5116610000000 1.0
C      1  0.5861510000000  0.5139210000000  0.4450840000000 1.0
C      1  0.4615400000000  0.5803350000000  0.4586500000000 1.0
C      1  0.4152380000000  0.5316120000000  0.4688980000000 1.0
C      1  0.5931140000000  0.4731760000000  0.5063020000000 1.0
C      1  0.4989040000000  0.6018380000000  0.5392680000000 1.0
C      1  0.4556250000000  0.4442890000000  0.5710550000000 1.0
C      1  0.5314650000000  0.5686500000000  0.5788200000000 1.0
C      1  0.5365850000000  0.5028340000000  0.5396820000000 1.0
C      1  0.5343550000000  0.4790080000000  0.4409080000000 1.0
C      1  0.4531400000000  0.4166770000000  0.5560500000000 1.0
C      1  0.5590870000000  0.5802500000000  0.5346230000000 1.0
C      1  0.5649780000000  0.5316830000000  0.5691050000000 1.0
C      1  0.4306980000000  0.4294820000000  0.4538350000000 1.0
C      1  0.5903070000000  0.5352960000000  0.4629910000000 1.0
C      1  0.4640340000000  0.5484410000000  0.4211140000000 1.0
C      1  0.5565290000000  0.4541220000000  0.4372270000000 1.0
C      1  0.4937870000000  0.5219040000000  0.4243590000000 1.0
C      1  0.4409020000000  0.5147720000000  0.5396060000000 1.0
C      1  0.5410630000000  0.5452600000000  0.5275890000000 1.0
C      1  0.4709260000000  0.5225920000000  0.5509540000000 1.0
C      1  0.5555820000000  0.4859950000000  0.5019440000000 1.0
C      1  0.5731460000000  0.4824090000000  0.4463910000000 1.0
C      1  0.4596260000000  0.5650490000000  0.5641970000000 1.0
C      1  0.5140240000000  0.5511330000000  0.5473970000000 1.0
C      1  0.4956410000000  0.5547640000000  0.4608020000000 1.0
C      1  0.4633530000000  0.4338820000000  0.4454340000000 1.0
C      1  0.4207900000000  0.5640760000000  0.4785490000000 1.0
C      1  0.4014160000000  0.4478390000000  0.5078500000000 1.0
C      1  0.5306110000000  0.5074620000000  0.4526100000000 1.0
C      1  0.4016470000000  0.5628680000000  0.5031420000000 1.0
C      1  0.4507330000000  0.5696820000000  0.5320220000000 1.0
C      1  0.4133660000000  0.4752500000000  0.4826100000000 1.0
END
