TITL C-2847958-8115-618 0.00345957115979592 125000 -993.203768159327 0 0 183 (C1) n - 1
REM
REM in /home/bkarasulu/work/CARBON/AIRSS/Generating-Clusters/AIREBO/with-SteepDescent/Only-C1/SD-CG-opt/Try1-1.4A-POS3A/HFTN-CG
REM
REM
REM
REM
REM
REM ./C.cell (11c1c37f851c82e70ff6c80c92926a4b)
REM
REM compiler GCC version 9.2.1 20190827 (Red Hat 9.2.1-1)
REM options -cpp -mtune=generic -march=x86-64 -g -O0 -fpre-include=/usr/include/finclude/math-vector-fortran.h
REM seed -1394237725 898953084 1215381503 948577198 -826894316 -690986820 2957778 1666800996 788055016 -164028906 1021623863 -814787067 1290028806 644669378 1026835135 -79362473 1327452450 -148456740 -1978976314 -1191313804 834634874 108711631 323585539 728336671 670988668 995202195 -563834478 -884439652 1019878213 1589197276 -1560721294 -839620738 -1474721610
REM
CELL 1.54180   50.00000   50.00000   50.00000   90.00000   90.00000   90.00000
LATT -1
SFAC C  
C      1  0.4768120000000  0.4109470000000  0.5254520000000 1.0
C      1  0.5197340000000  0.4466880000000  0.4011050000000 1.0
C      1  0.5390590000000  0.5161040000000  0.4948180000000 1.0
C      1  0.4335530000000  0.5448580000000  0.4946930000000 1.0
C      1  0.5021310000000  0.4666430000000  0.3927710000000 1.0
C      1  0.5535350000000  0.5894640000000  0.5318920000000 1.0
C      1  0.4514220000000  0.5390990000000  0.5781780000000 1.0
C      1  0.5847220000000  0.4516240000000  0.4494280000000 1.0
C      1  0.4614570000000  0.5591580000000  0.4823440000000 1.0
C      1  0.4749640000000  0.4231430000000  0.4937310000000 1.0
C      1  0.4250040000000  0.4600960000000  0.4463890000000 1.0
C      1  0.5053720000000  0.4755630000000  0.5952470000000 1.0
C      1  0.4392200000000  0.5839320000000  0.4561370000000 1.0
C      1  0.4504820000000  0.5466540000000  0.5244580000000 1.0
C      1  0.4998170000000  0.6237590000000  0.4773920000000 1.0
C      1  0.3945060000000  0.4922440000000  0.4471880000000 1.0
C      1  0.4754400000000  0.5152230000000  0.4496110000000 1.0
C      1  0.5153820000000  0.4949380000000  0.3958280000000 1.0
C      1  0.3898300000000  0.4653430000000  0.5010520000000 1.0
C      1  0.4333850000000  0.4002340000000  0.4902040000000 1.0
C      1  0.4379140000000  0.4543550000000  0.4225320000000 1.0
C      1  0.4600050000000  0.5469680000000  0.4278560000000 1.0
C      1  0.4046470000000  0.5085920000000  0.4707030000000 1.0
C      1  0.4891520000000  0.5138160000000  0.4009940000000 1.0
C      1  0.5335520000000  0.4830850000000  0.4886150000000 1.0
C      1  0.5236240000000  0.3877770000000  0.5375900000000 1.0
C      1  0.4732260000000  0.4978960000000  0.4788200000000 1.0
C      1  0.4432750000000  0.5050260000000  0.4533820000000 1.0
C      1  0.4876570000000  0.4895680000000  0.5365580000000 1.0
C      1  0.4031580000000  0.4687170000000  0.4694850000000 1.0
C      1  0.4921380000000  0.5585720000000  0.4806570000000 1.0
C      1  0.5215770000000  0.5447340000000  0.5692050000000 1.0
C      1  0.4978320000000  0.4971830000000  0.4986600000000 1.0
C      1  0.4232980000000  0.4227690000000  0.5130360000000 1.0
C      1  0.5818650000000  0.4525810000000  0.5451990000000 1.0
C      1  0.4301180000000  0.4783230000000  0.5728540000000 1.0
C      1  0.5425370000000  0.5671130000000  0.5716050000000 1.0
C      1  0.4668750000000  0.4587530000000  0.5193640000000 1.0
C      1  0.5573870000000  0.4397160000000  0.4951350000000 1.0
C      1  0.4320140000000  0.4053910000000  0.4626700000000 1.0
C      1  0.5381800000000  0.4264180000000  0.4625530000000 1.0
C      1  0.4435340000000  0.4965180000000  0.5361280000000 1.0
C      1  0.4037490000000  0.5200030000000  0.5582920000000 1.0
C      1  0.4246690000000  0.4701550000000  0.5343200000000 1.0
C      1  0.5705850000000  0.5678590000000  0.4761190000000 1.0
C      1  0.5385100000000  0.5262150000000  0.5877220000000 1.0
C      1  0.5593600000000  0.4678730000000  0.4336250000000 1.0
C      1  0.5207720000000  0.5202580000000  0.6121760000000 1.0
C      1  0.4618310000000  0.5772810000000  0.4403310000000 1.0
C      1  0.4994490000000  0.5274070000000  0.4683670000000 1.0
C      1  0.5189060000000  0.4450100000000  0.5149440000000 1.0
C      1  0.4788650000000  0.5624820000000  0.5346400000000 1.0
C      1  0.4975890000000  0.5508700000000  0.5112190000000 1.0
C      1  0.5346700000000  0.4194870000000  0.4235380000000 1.0
C      1  0.5062480000000  0.3970800000000  0.4853800000000 1.0
C      1  0.4889190000000  0.5497250000000  0.5646310000000 1.0
C      1  0.5520720000000  0.4064000000000  0.5007490000000 1.0
C      1  0.5443250000000  0.5498190000000  0.4879980000000 1.0
C      1  0.4427340000000  0.5851570000000  0.4875410000000 1.0
C      1  0.5497060000000  0.5550470000000  0.4149120000000 1.0
C      1  0.5273610000000  0.4508150000000  0.4836220000000 1.0
C      1  0.4825060000000  0.5544990000000  0.5977490000000 1.0
C      1  0.5415610000000  0.5278790000000  0.4155490000000 1.0
C      1  0.4656570000000  0.4944570000000  0.5620160000000 1.0
C      1  0.3873670000000  0.5432080000000  0.5684310000000 1.0
C      1  0.5339410000000  0.5901120000000  0.5569260000000 1.0
C      1  0.5362490000000  0.4747790000000  0.5859650000000 1.0
C      1  0.5875970000000  0.4859310000000  0.5487430000000 1.0
C      1  0.4671250000000  0.5084670000000  0.6125700000000 1.0
C      1  0.4773830000000  0.4693960000000  0.4129180000000 1.0
C      1  0.4423710000000  0.5220030000000  0.4149530000000 1.0
C      1  0.4779810000000  0.6148430000000  0.5386110000000 1.0
C      1  0.4653370000000  0.4422620000000  0.4295870000000 1.0
C      1  0.4621200000000  0.5369480000000  0.6095590000000 1.0
C      1  0.5048370000000  0.6040080000000  0.4501750000000 1.0
C      1  0.5472400000000  0.5034040000000  0.4025210000000 1.0
C      1  0.5976040000000  0.4614240000000  0.4718040000000 1.0
C      1  0.5582300000000  0.4350880000000  0.4399350000000 1.0
C      1  0.4352620000000  0.5155630000000  0.4823250000000 1.0
C      1  0.4449430000000  0.4036790000000  0.5288950000000 1.0
C      1  0.5752260000000  0.5707070000000  0.5345920000000 1.0
C      1  0.5300940000000  0.5219870000000  0.4432920000000 1.0
C      1  0.4745110000000  0.5907850000000  0.5624010000000 1.0
C      1  0.4301550000000  0.5126280000000  0.5740650000000 1.0
C      1  0.5445660000000  0.4459110000000  0.5324140000000 1.0
C      1  0.5905710000000  0.5534870000000  0.5177280000000 1.0
C      1  0.4053380000000  0.5689970000000  0.5210750000000 1.0
C      1  0.6117230000000  0.4973730000000  0.5273390000000 1.0
C      1  0.4804460000000  0.4213070000000  0.5891160000000 1.0
C      1  0.5280520000000  0.4372930000000  0.5585030000000 1.0
C      1  0.4542240000000  0.5707130000000  0.5660260000000 1.0
C      1  0.5791500000000  0.4659520000000  0.4949150000000 1.0
C      1  0.5083520000000  0.4121850000000  0.4372660000000 1.0
C      1  0.3865980000000  0.4944840000000  0.5488210000000 1.0
C      1  0.4078140000000  0.5373550000000  0.5144840000000 1.0
C      1  0.5685170000000  0.4739710000000  0.5752510000000 1.0
C      1  0.5701930000000  0.5396440000000  0.4598600000000 1.0
C      1  0.5084430000000  0.4159240000000  0.5137810000000 1.0
C      1  0.4175000000000  0.4275810000000  0.5452240000000 1.0
C      1  0.5404960000000  0.5013400000000  0.5701260000000 1.0
C      1  0.4610950000000  0.4198470000000  0.4534870000000 1.0
C      1  0.6187390000000  0.4828950000000  0.4711840000000 1.0
C      1  0.5355810000000  0.4021030000000  0.4778560000000 1.0
C      1  0.4192680000000  0.4817580000000  0.4964560000000 1.0
C      1  0.5732360000000  0.5590950000000  0.5629830000000 1.0
C      1  0.5685000000000  0.4904540000000  0.4160070000000 1.0
C      1  0.4890840000000  0.4043790000000  0.4593140000000 1.0
C      1  0.5206960000000  0.4933130000000  0.5436750000000 1.0
C      1  0.4505070000000  0.4938420000000  0.5924710000000 1.0
C      1  0.4608150000000  0.3922200000000  0.4941770000000 1.0
C      1  0.5298870000000  0.5491480000000  0.5152360000000 1.0
C      1  0.5900110000000  0.5051230000000  0.4274140000000 1.0
C      1  0.4494830000000  0.4958810000000  0.5030880000000 1.0
C      1  0.4193430000000  0.5583250000000  0.4664050000000 1.0
C      1  0.5752760000000  0.5026650000000  0.4737790000000 1.0
C      1  0.4651140000000  0.5900840000000  0.5203020000000 1.0
C      1  0.4675130000000  0.4649920000000  0.4852610000000 1.0
C      1  0.4976380000000  0.4683140000000  0.5129510000000 1.0
C      1  0.4880390000000  0.6107070000000  0.5061510000000 1.0
C      1  0.4431330000000  0.4758290000000  0.4641680000000 1.0
C      1  0.4285890000000  0.5236370000000  0.5359130000000 1.0
C      1  0.5163940000000  0.5484810000000  0.4506780000000 1.0
C      1  0.4352310000000  0.4511620000000  0.5579980000000 1.0
C      1  0.5126510000000  0.4960720000000  0.4680740000000 1.0
C      1  0.4862750000000  0.3800520000000  0.5019290000000 1.0
C      1  0.5601150000000  0.4416310000000  0.5689560000000 1.0
C      1  0.6119560000000  0.5071340000000  0.4939950000000 1.0
C      1  0.4318000000000  0.5884530000000  0.5161690000000 1.0
C      1  0.5027380000000  0.5846570000000  0.5444640000000 1.0
C      1  0.4936920000000  0.4415990000000  0.4459650000000 1.0
C      1  0.5947620000000  0.5352560000000  0.4415690000000 1.0
C      1  0.4357290000000  0.4537710000000  0.5066550000000 1.0
C      1  0.4945480000000  0.3823320000000  0.5303240000000 1.0
C      1  0.5164160000000  0.4979980000000  0.4284530000000 1.0
C      1  0.4872450000000  0.4907360000000  0.4335210000000 1.0
C      1  0.5498540000000  0.5180880000000  0.4643660000000 1.0
C      1  0.5095740000000  0.4154160000000  0.5477640000000 1.0
C      1  0.5634780000000  0.4680530000000  0.5226440000000 1.0
C      1  0.5612550000000  0.4184630000000  0.5440960000000 1.0
C      1  0.3957390000000  0.4769810000000  0.5297660000000 1.0
C      1  0.4006620000000  0.5098270000000  0.5012750000000 1.0
C      1  0.4943450000000  0.4460700000000  0.4764140000000 1.0
C      1  0.4799220000000  0.5205940000000  0.5767940000000 1.0
C      1  0.5424850000000  0.5228940000000  0.5279510000000 1.0
C      1  0.5308220000000  0.4765330000000  0.4468830000000 1.0
C      1  0.5299040000000  0.6083380000000  0.4716020000000 1.0
C      1  0.5136860000000  0.5583170000000  0.4214670000000 1.0
C      1  0.5757160000000  0.5813180000000  0.4453110000000 1.0
C      1  0.5670580000000  0.5364780000000  0.5870210000000 1.0
C      1  0.5025070000000  0.5200490000000  0.5154970000000 1.0
C      1  0.4222470000000  0.5391350000000  0.4382430000000 1.0
C      1  0.5243620000000  0.5791090000000  0.5203830000000 1.0
C      1  0.4482490000000  0.4375680000000  0.4795090000000 1.0
C      1  0.5834450000000  0.5277050000000  0.5584660000000 1.0
C      1  0.4392920000000  0.4719380000000  0.4013680000000 1.0
C      1  0.4651240000000  0.4482790000000  0.5496620000000 1.0
C      1  0.4804120000000  0.4208360000000  0.5577860000000 1.0
C      1  0.5124470000000  0.4637900000000  0.5559520000000 1.0
C      1  0.4836000000000  0.4668690000000  0.5705940000000 1.0
C      1  0.4389950000000  0.5697840000000  0.5424650000000 1.0
C      1  0.4603330000000  0.4976820000000  0.4047610000000 1.0
C      1  0.4490350000000  0.5440700000000  0.4579610000000 1.0
C      1  0.5761360000000  0.5601770000000  0.4264920000000 1.0
C      1  0.5081220000000  0.5871290000000  0.4218740000000 1.0
C      1  0.5237690000000  0.5689460000000  0.4737310000000 1.0
C      1  0.5216030000000  0.4493460000000  0.4333810000000 1.0
C      1  0.4864300000000  0.5795960000000  0.4545410000000 1.0
C      1  0.5381240000000  0.4844190000000  0.5192150000000 1.0
C      1  0.5135970000000  0.5923700000000  0.4961010000000 1.0
C      1  0.6067800000000  0.5343120000000  0.4741770000000 1.0
C      1  0.5149050000000  0.5268080000000  0.5447040000000 1.0
C      1  0.5962100000000  0.4982130000000  0.4563420000000 1.0
C      1  0.4858440000000  0.4470260000000  0.5981190000000 1.0
C      1  0.5959430000000  0.5569340000000  0.4907400000000 1.0
C      1  0.4963930000000  0.5041860000000  0.6023190000000 1.0
C      1  0.5482830000000  0.3963930000000  0.5268570000000 1.0
C      1  0.4891280000000  0.5344750000000  0.4251110000000 1.0
C      1  0.5608320000000  0.5068360000000  0.5466720000000 1.0
C      1  0.5792760000000  0.4317170000000  0.5187910000000 1.0
C      1  0.5811930000000  0.4985880000000  0.5043870000000 1.0
C      1  0.5904810000000  0.5233350000000  0.5258480000000 1.0
C      1  0.5561910000000  0.5979930000000  0.4672860000000 1.0
C      1  0.4181150000000  0.5069750000000  0.4331300000000 1.0
END
