TITL C-2847945-6269-599 -0.000960902606330214 125000 -1022.59835097081 0 0 188 (C1) n - 1
REM
REM in /home/bkarasulu/work/CARBON/AIRSS/Generating-Clusters/AIREBO/with-SteepDescent/Only-C1/SD-CG-opt/Try1-1.4A-POS3A/HFTN-CG
REM
REM
REM
REM
REM
REM ./C.cell (11c1c37f851c82e70ff6c80c92926a4b)
REM
REM compiler GCC version 9.2.1 20190827 (Red Hat 9.2.1-1)
REM options -cpp -mtune=generic -march=x86-64 -g -O0 -fpre-include=/usr/include/finclude/math-vector-fortran.h
REM seed -1674344317 656328626 972818292 1437549857 828488537 -1580136377 1231503956 -1007811686 1160633047 -334827230 -1030235690 -128438471 -1542299945 619881226 1060877333 -1274738206 1689049805 -1423428602 1146256701 -321819740 1671717355 1391198841 -1943010552 1721823205 471306757 -295242700 -1488772295 39205375 -830816972 -1923612559 118460564 -173279585 1287653423
REM
CELL 1.54180   50.00000   50.00000   50.00000   90.00000   90.00000   90.00000
LATT -1
SFAC C  
C      1  0.4167040000000  0.5440580000000  0.5525080000000 1.0
C      1  0.5770200000000  0.4071530000000  0.5321720000000 1.0
C      1  0.4914970000000  0.4666700000000  0.4059680000000 1.0
C      1  0.5552260000000  0.4527980000000  0.5548870000000 1.0
C      1  0.5670630000000  0.4723660000000  0.4001970000000 1.0
C      1  0.4647260000000  0.5904620000000  0.4436240000000 1.0
C      1  0.4797960000000  0.4224840000000  0.5161240000000 1.0
C      1  0.5385600000000  0.5035790000000  0.4823180000000 1.0
C      1  0.4482530000000  0.4677840000000  0.5787490000000 1.0
C      1  0.5691210000000  0.5269420000000  0.5715210000000 1.0
C      1  0.5085810000000  0.5853610000000  0.4330680000000 1.0
C      1  0.5272870000000  0.4291790000000  0.4022480000000 1.0
C      1  0.5709430000000  0.5097580000000  0.5422350000000 1.0
C      1  0.4198440000000  0.5322110000000  0.4159660000000 1.0
C      1  0.4928660000000  0.6034530000000  0.5247130000000 1.0
C      1  0.3947190000000  0.4955640000000  0.5230360000000 1.0
C      1  0.5744460000000  0.4981890000000  0.5803340000000 1.0
C      1  0.4388250000000  0.6215370000000  0.5395260000000 1.0
C      1  0.4492430000000  0.4061400000000  0.4678130000000 1.0
C      1  0.4291810000000  0.5025220000000  0.6070310000000 1.0
C      1  0.5025110000000  0.4250730000000  0.4413360000000 1.0
C      1  0.5342820000000  0.4130520000000  0.5004360000000 1.0
C      1  0.5025300000000  0.3972420000000  0.4698850000000 1.0
C      1  0.4973230000000  0.4578780000000  0.4358930000000 1.0
C      1  0.4511880000000  0.5004790000000  0.4375610000000 1.0
C      1  0.4620460000000  0.3989760000000  0.5169810000000 1.0
C      1  0.4315340000000  0.4253110000000  0.4585590000000 1.0
C      1  0.5032100000000  0.6141830000000  0.4764930000000 1.0
C      1  0.4636910000000  0.5553810000000  0.4148130000000 1.0
C      1  0.4126620000000  0.5033230000000  0.4950510000000 1.0
C      1  0.4601580000000  0.5272250000000  0.5303390000000 1.0
C      1  0.5695090000000  0.4981190000000  0.4881200000000 1.0
C      1  0.5244750000000  0.4971360000000  0.5304010000000 1.0
C      1  0.5883350000000  0.4157800000000  0.4730460000000 1.0
C      1  0.5433340000000  0.5729240000000  0.4472660000000 1.0
C      1  0.5186810000000  0.5519760000000  0.4747350000000 1.0
C      1  0.4950340000000  0.5222680000000  0.5114330000000 1.0
C      1  0.5434170000000  0.5279660000000  0.4371990000000 1.0
C      1  0.5512210000000  0.5612230000000  0.4782110000000 1.0
C      1  0.4882940000000  0.5783240000000  0.5022290000000 1.0
C      1  0.6012830000000  0.5236290000000  0.5377500000000 1.0
C      1  0.4085770000000  0.4473740000000  0.5487770000000 1.0
C      1  0.5174110000000  0.4234260000000  0.5899950000000 1.0
C      1  0.4674250000000  0.4440070000000  0.4443370000000 1.0
C      1  0.5006070000000  0.4429930000000  0.6003940000000 1.0
C      1  0.5393240000000  0.4560740000000  0.4084950000000 1.0
C      1  0.5097270000000  0.4649930000000  0.4978220000000 1.0
C      1  0.5941610000000  0.5671580000000  0.4824430000000 1.0
C      1  0.5107360000000  0.6183580000000  0.5026070000000 1.0
C      1  0.4605090000000  0.5719660000000  0.5481790000000 1.0
C      1  0.4313920000000  0.5154520000000  0.5554750000000 1.0
C      1  0.5619740000000  0.3966120000000  0.5118420000000 1.0
C      1  0.5849330000000  0.4844810000000  0.4153110000000 1.0
C      1  0.5254140000000  0.5992760000000  0.4591660000000 1.0
C      1  0.5106120000000  0.5010400000000  0.6103420000000 1.0
C      1  0.3892130000000  0.5387450000000  0.5471270000000 1.0
C      1  0.4709140000000  0.5403920000000  0.4538340000000 1.0
C      1  0.4399260000000  0.4415430000000  0.5596520000000 1.0
C      1  0.5120550000000  0.5919690000000  0.5488250000000 1.0
C      1  0.5520140000000  0.5453810000000  0.5084010000000 1.0
C      1  0.4485300000000  0.3972860000000  0.5413800000000 1.0
C      1  0.5614770000000  0.4277050000000  0.4870990000000 1.0
C      1  0.4651900000000  0.5284180000000  0.6216560000000 1.0
C      1  0.5785740000000  0.5488760000000  0.4621840000000 1.0
C      1  0.4832920000000  0.5773980000000  0.5723010000000 1.0
C      1  0.5849120000000  0.5565140000000  0.4305120000000 1.0
C      1  0.5117980000000  0.5253580000000  0.3954920000000 1.0
C      1  0.5139400000000  0.4973990000000  0.4992170000000 1.0
C      1  0.5260770000000  0.4161260000000  0.4265190000000 1.0
C      1  0.4811870000000  0.5812700000000  0.4715600000000 1.0
C      1  0.5537190000000  0.5951440000000  0.4783620000000 1.0
C      1  0.5104200000000  0.4668950000000  0.6128050000000 1.0
C      1  0.4446780000000  0.5340090000000  0.4332140000000 1.0
C      1  0.5223660000000  0.4978080000000  0.3809920000000 1.0
C      1  0.4704380000000  0.5008260000000  0.5126500000000 1.0
C      1  0.4747380000000  0.5112620000000  0.3961120000000 1.0
C      1  0.4884520000000  0.4712150000000  0.4645700000000 1.0
C      1  0.4232310000000  0.4170460000000  0.5430010000000 1.0
C      1  0.5170150000000  0.5647590000000  0.5034350000000 1.0
C      1  0.4231500000000  0.5456110000000  0.4979550000000 1.0
C      1  0.4717960000000  0.6129070000000  0.4755500000000 1.0
C      1  0.4516020000000  0.4517410000000  0.4952490000000 1.0
C      1  0.4298660000000  0.5507020000000  0.4588960000000 1.0
C      1  0.5217680000000  0.5358250000000  0.5206530000000 1.0
C      1  0.4187300000000  0.4799350000000  0.4710800000000 1.0
C      1  0.4644700000000  0.4493760000000  0.5266340000000 1.0
C      1  0.4009470000000  0.4769240000000  0.5453990000000 1.0
C      1  0.5122060000000  0.5765480000000  0.5791390000000 1.0
C      1  0.5450260000000  0.4261630000000  0.5734610000000 1.0
C      1  0.4818110000000  0.4973990000000  0.4437780000000 1.0
C      1  0.4900700000000  0.5007430000000  0.4765910000000 1.0
C      1  0.4537280000000  0.4550370000000  0.4007280000000 1.0
C      1  0.4976880000000  0.5591060000000  0.4517390000000 1.0
C      1  0.4697630000000  0.6231840000000  0.5330140000000 1.0
C      1  0.5034910000000  0.4295820000000  0.5394690000000 1.0
C      1  0.4575290000000  0.5329690000000  0.3953770000000 1.0
C      1  0.4812790000000  0.6013130000000  0.4266370000000 1.0
C      1  0.5560990000000  0.5544100000000  0.4296300000000 1.0
C      1  0.4490040000000  0.5950650000000  0.4904760000000 1.0
C      1  0.6207840000000  0.5051620000000  0.5273670000000 1.0
C      1  0.4876950000000  0.4871020000000  0.5777490000000 1.0
C      1  0.4236680000000  0.5706120000000  0.5147720000000 1.0
C      1  0.4303450000000  0.5655570000000  0.5409790000000 1.0
C      1  0.4762640000000  0.4111160000000  0.4532710000000 1.0
C      1  0.4282690000000  0.5271000000000  0.5865910000000 1.0
C      1  0.5408660000000  0.4301470000000  0.4529950000000 1.0
C      1  0.4842990000000  0.4492650000000  0.4866650000000 1.0
C      1  0.5845450000000  0.4695030000000  0.4641920000000 1.0
C      1  0.5479230000000  0.4945370000000  0.4335280000000 1.0
C      1  0.4810650000000  0.4427070000000  0.3915140000000 1.0
C      1  0.5199470000000  0.5194430000000  0.5739770000000 1.0
C      1  0.4538260000000  0.5949430000000  0.5240010000000 1.0
C      1  0.5424950000000  0.4740460000000  0.3801320000000 1.0
C      1  0.5345670000000  0.5269330000000  0.4665820000000 1.0
C      1  0.5773480000000  0.5703290000000  0.5261570000000 1.0
C      1  0.4766230000000  0.4491800000000  0.5809950000000 1.0
C      1  0.5062010000000  0.5515890000000  0.3933000000000 1.0
C      1  0.4806450000000  0.5476450000000  0.5028240000000 1.0
C      1  0.4961450000000  0.5119880000000  0.4225680000000 1.0
C      1  0.5241180000000  0.5318010000000  0.6050940000000 1.0
C      1  0.5094580000000  0.3985460000000  0.5281640000000 1.0
C      1  0.5042440000000  0.4604360000000  0.5646680000000 1.0
C      1  0.4502940000000  0.4857180000000  0.4950760000000 1.0
C      1  0.4342160000000  0.4815580000000  0.5507440000000 1.0
C      1  0.4088130000000  0.5291200000000  0.4731960000000 1.0
C      1  0.5286370000000  0.5871130000000  0.5198410000000 1.0
C      1  0.5495360000000  0.3882620000000  0.4828580000000 1.0
C      1  0.5128120000000  0.5347940000000  0.4341310000000 1.0
C      1  0.4903420000000  0.5649640000000  0.4128670000000 1.0
C      1  0.4874570000000  0.4913470000000  0.5472170000000 1.0
C      1  0.6391190000000  0.4926290000000  0.5425060000000 1.0
C      1  0.4655560000000  0.3992710000000  0.5644220000000 1.0
C      1  0.5783570000000  0.4929030000000  0.4454270000000 1.0
C      1  0.4441390000000  0.3966370000000  0.4938790000000 1.0
C      1  0.3906310000000  0.5362690000000  0.5001000000000 1.0
C      1  0.5300080000000  0.4006040000000  0.4628180000000 1.0
C      1  0.4719790000000  0.4310920000000  0.5543080000000 1.0
C      1  0.4936000000000  0.4893130000000  0.3899340000000 1.0
C      1  0.4522330000000  0.4878450000000  0.6010800000000 1.0
C      1  0.4791570000000  0.5085890000000  0.5998630000000 1.0
C      1  0.4430350000000  0.5391910000000  0.6147420000000 1.0
C      1  0.5584090000000  0.4760110000000  0.5795900000000 1.0
C      1  0.5306600000000  0.5557870000000  0.5866790000000 1.0
C      1  0.5766690000000  0.5838900000000  0.4988710000000 1.0
C      1  0.4512060000000  0.5361030000000  0.4997110000000 1.0
C      1  0.5852400000000  0.5180910000000  0.4655330000000 1.0
C      1  0.5985690000000  0.4804750000000  0.4890360000000 1.0
C      1  0.4416960000000  0.4561350000000  0.4630200000000 1.0
C      1  0.5196210000000  0.4077040000000  0.5599200000000 1.0
C      1  0.5991440000000  0.5492510000000  0.5249200000000 1.0
C      1  0.5524570000000  0.5494650000000  0.5694270000000 1.0
C      1  0.5300800000000  0.4662110000000  0.4397320000000 1.0
C      1  0.4890630000000  0.5283990000000  0.5740510000000 1.0
C      1  0.5686700000000  0.5205330000000  0.5110320000000 1.0
C      1  0.3843220000000  0.5231780000000  0.5237400000000 1.0
C      1  0.5306820000000  0.4562250000000  0.4723240000000 1.0
C      1  0.4422470000000  0.5013750000000  0.4682670000000 1.0
C      1  0.5442510000000  0.5048310000000  0.4050610000000 1.0
C      1  0.4287700000000  0.4756370000000  0.5176810000000 1.0
C      1  0.5143060000000  0.5586660000000  0.5436800000000 1.0
C      1  0.5482500000000  0.5587550000000  0.5394800000000 1.0
C      1  0.5316500000000  0.4812380000000  0.5934950000000 1.0
C      1  0.4250910000000  0.4128390000000  0.5112110000000 1.0
C      1  0.5040800000000  0.4268620000000  0.3853290000000 1.0
C      1  0.4208040000000  0.4376640000000  0.4987280000000 1.0
C      1  0.5318800000000  0.4462840000000  0.5308920000000 1.0
C      1  0.4665050000000  0.5212830000000  0.4763160000000 1.0
C      1  0.4517440000000  0.4682690000000  0.4263620000000 1.0
C      1  0.4826330000000  0.5461450000000  0.5475170000000 1.0
C      1  0.4595110000000  0.5361200000000  0.5785700000000 1.0
C      1  0.6115880000000  0.5238730000000  0.4843860000000 1.0
C      1  0.5719320000000  0.4424040000000  0.4594700000000 1.0
C      1  0.5682040000000  0.4778650000000  0.5359120000000 1.0
C      1  0.5795050000000  0.4311880000000  0.5448990000000 1.0
C      1  0.6171480000000  0.5001440000000  0.4991590000000 1.0
C      1  0.5073510000000  0.4685760000000  0.5316370000000 1.0
C      1  0.5466100000000  0.4509040000000  0.5022390000000 1.0
C      1  0.3942200000000  0.4415420000000  0.4922810000000 1.0
C      1  0.5242390000000  0.4876250000000  0.5624400000000 1.0
C      1  0.5641480000000  0.4735520000000  0.5094080000000 1.0
C      1  0.5005400000000  0.3918320000000  0.5004180000000 1.0
C      1  0.4325030000000  0.5091550000000  0.5220750000000 1.0
C      1  0.5388270000000  0.5203940000000  0.5457000000000 1.0
C      1  0.3931160000000  0.4757290000000  0.4550450000000 1.0
C      1  0.4348180000000  0.5757230000000  0.4717930000000 1.0
C      1  0.6103830000000  0.5493380000000  0.4977140000000 1.0
C      1  0.5057600000000  0.4253480000000  0.4979580000000 1.0
C      1  0.4640410000000  0.4777080000000  0.5348800000000 1.0
END
