TITL C-2848509-3138-570 0.00187800725252479 125000 -348.930087451093 0 0 64 (C1) n - 1
REM
REM in /home/bkarasulu/work/CARBON/AIRSS/Generating-Clusters/AIREBO/with-SteepDescent/Only-C1/SD-CG-opt/Try1-1.4A-POS3A/HFTN-CG
REM
REM
REM
REM
REM
REM ./C.cell (11c1c37f851c82e70ff6c80c92926a4b)
REM
REM compiler GCC version 9.2.1 20190827 (Red Hat 9.2.1-1)
REM options -cpp -mtune=generic -march=x86-64 -g -O0 -fpre-include=/usr/include/finclude/math-vector-fortran.h
REM seed -559949490 727057235 669027144 -189936235 -1103599617 -483742147 -32180239 -1749371396 871128799 -1759844125 -544937383 1637119540 183915992 874708534 2129956030 -1812462121 957486425 406642509 -1078333371 -153635239 1832501962 -2010891297 1882927641 -1442186332 -1830460257 -2079163936 683322612 907985830 -1617032857 678105006 -356823452 1264995639 -2132138767
REM
CELL 1.54180   50.00000   50.00000   50.00000   90.00000   90.00000   90.00000
LATT -1
SFAC C  
C      1  0.5628450000000  0.4804010000000  0.5320470000000 1.0
C      1  0.4207500000000  0.4746520000000  0.5607490000000 1.0
C      1  0.4744070000000  0.5095010000000  0.5232070000000 1.0
C      1  0.4466230000000  0.5339120000000  0.4917610000000 1.0
C      1  0.5386130000000  0.5436920000000  0.5382060000000 1.0
C      1  0.5087100000000  0.4645230000000  0.5573440000000 1.0
C      1  0.5450780000000  0.4380930000000  0.4962920000000 1.0
C      1  0.4891090000000  0.5200020000000  0.4233470000000 1.0
C      1  0.5012810000000  0.5384700000000  0.5132860000000 1.0
C      1  0.4272510000000  0.5163090000000  0.4804720000000 1.0
C      1  0.5560260000000  0.4796190000000  0.5593540000000 1.0
C      1  0.5406530000000  0.4753360000000  0.4557400000000 1.0
C      1  0.4833800000000  0.4728130000000  0.5025580000000 1.0
C      1  0.5581210000000  0.4956320000000  0.4650130000000 1.0
C      1  0.4981770000000  0.4888650000000  0.5360720000000 1.0
C      1  0.5226500000000  0.5140630000000  0.5433150000000 1.0
C      1  0.4371710000000  0.4626130000000  0.4954620000000 1.0
C      1  0.5262180000000  0.5247920000000  0.5051070000000 1.0
C      1  0.5458920000000  0.5400930000000  0.4868160000000 1.0
C      1  0.5250100000000  0.5822250000000  0.5105250000000 1.0
C      1  0.4810710000000  0.4564150000000  0.4546820000000 1.0
C      1  0.5214900000000  0.5135390000000  0.4259350000000 1.0
C      1  0.5298850000000  0.4541230000000  0.4737240000000 1.0
C      1  0.4507970000000  0.5565910000000  0.5070050000000 1.0
C      1  0.4769400000000  0.5702390000000  0.5491950000000 1.0
C      1  0.5501780000000  0.5241480000000  0.4628020000000 1.0
C      1  0.5775150000000  0.4901580000000  0.4853970000000 1.0
C      1  0.4856920000000  0.5497940000000  0.4176170000000 1.0
C      1  0.4728650000000  0.5177460000000  0.4944500000000 1.0
C      1  0.4838470000000  0.5471030000000  0.4860040000000 1.0
C      1  0.4301710000000  0.4891120000000  0.5393150000000 1.0
C      1  0.5319960000000  0.5591990000000  0.4307900000000 1.0
C      1  0.4756960000000  0.4612520000000  0.5605340000000 1.0
C      1  0.5373710000000  0.5325990000000  0.4388780000000 1.0
C      1  0.5135120000000  0.4128820000000  0.5534800000000 1.0
C      1  0.4157610000000  0.5110460000000  0.5310360000000 1.0
C      1  0.4804290000000  0.4947640000000  0.4767320000000 1.0
C      1  0.5399250000000  0.4413680000000  0.5205700000000 1.0
C      1  0.5425180000000  0.5018910000000  0.5185390000000 1.0
C      1  0.4790180000000  0.5624810000000  0.5225200000000 1.0
C      1  0.4908880000000  0.4699950000000  0.4323200000000 1.0
C      1  0.4814600000000  0.4921070000000  0.5658450000000 1.0
C      1  0.4588530000000  0.4715690000000  0.4710310000000 1.0
C      1  0.4769180000000  0.4895820000000  0.4179640000000 1.0
C      1  0.5062110000000  0.5670010000000  0.4241770000000 1.0
C      1  0.5421880000000  0.5599680000000  0.5140620000000 1.0
C      1  0.4998080000000  0.4419420000000  0.4697160000000 1.0
C      1  0.4888270000000  0.4433840000000  0.5187580000000 1.0
C      1  0.4589020000000  0.4820140000000  0.5228250000000 1.0
C      1  0.4946370000000  0.5039510000000  0.4528090000000 1.0
C      1  0.5298410000000  0.4874580000000  0.5632330000000 1.0
C      1  0.4908710000000  0.4278530000000  0.4913890000000 1.0
C      1  0.4397860000000  0.4539020000000  0.5235030000000 1.0
C      1  0.4979220000000  0.5801140000000  0.5035500000000 1.0
C      1  0.5143220000000  0.4392930000000  0.5380230000000 1.0
C      1  0.5125980000000  0.4675440000000  0.4976300000000 1.0
C      1  0.4652130000000  0.4460810000000  0.5387800000000 1.0
C      1  0.5733500000000  0.5104320000000  0.5080810000000 1.0
C      1  0.4828780000000  0.5196710000000  0.5742390000000 1.0
C      1  0.4905200000000  0.5726810000000  0.4754320000000 1.0
C      1  0.5789310000000  0.4710250000000  0.5099710000000 1.0
C      1  0.4913850000000  0.5274530000000  0.5438990000000 1.0
C      1  0.5188210000000  0.4844490000000  0.4385510000000 1.0
C      1  0.4302280000000  0.4884770000000  0.4783330000000 1.0
END
