TITL C-2848500-1637-747 0.000451152659192575 125000 -205.412235270334 0 0 35 (C1) n - 1
REM
REM in /home/bkarasulu/work/CARBON/AIRSS/Generating-Clusters/AIREBO/with-SteepDescent/Only-C1/SD-CG-opt/Try1-1.4A-POS3A/HFTN-CG
REM
REM
REM
REM
REM
REM ./C.cell (11c1c37f851c82e70ff6c80c92926a4b)
REM
REM compiler GCC version 9.2.1 20190827 (Red Hat 9.2.1-1)
REM options -cpp -mtune=generic -march=x86-64 -g -O0 -fpre-include=/usr/include/finclude/math-vector-fortran.h
REM seed 30611423 1662078058 1754100741 852371852 -1051474588 -1735870757 -367848736 185854532 -1089606773 -1540333318 634120842 -448388869 -368309948 -1246891379 -836285025 -2058437268 1336180191 -1984891321 -1262008433 -301327872 -557813196 525972781 1295882852 -1144936713 -2091493692 -426611600 -452844368 369198225 -1135034668 -1872588224 -1204273618 -1942985461 125415470
REM
CELL 1.54180   50.00000   50.00000   50.00000   90.00000   90.00000   90.00000
LATT -1
SFAC C  
C      1  0.4806840000000  0.4217700000000  0.4835140000000 1.0
C      1  0.5316570000000  0.4938360000000  0.5398590000000 1.0
C      1  0.4781240000000  0.5274040000000  0.4640760000000 1.0
C      1  0.5155530000000  0.4551730000000  0.4846100000000 1.0
C      1  0.4807880000000  0.4480720000000  0.5226090000000 1.0
C      1  0.5117620000000  0.4567590000000  0.5140310000000 1.0
C      1  0.5539250000000  0.5162170000000  0.4570470000000 1.0
C      1  0.5058330000000  0.4934420000000  0.4336340000000 1.0
C      1  0.4869550000000  0.4731730000000  0.4300810000000 1.0
C      1  0.5583270000000  0.4515210000000  0.5356120000000 1.0
C      1  0.4934670000000  0.5199080000000  0.5872970000000 1.0
C      1  0.5711460000000  0.5172520000000  0.4357800000000 1.0
C      1  0.5299820000000  0.4990550000000  0.4559760000000 1.0
C      1  0.4723530000000  0.5457620000000  0.5147980000000 1.0
C      1  0.5589450000000  0.5281050000000  0.4815950000000 1.0
C      1  0.4703660000000  0.4266700000000  0.5087580000000 1.0
C      1  0.4311690000000  0.6017020000000  0.5585920000000 1.0
C      1  0.4457890000000  0.5821200000000  0.5491130000000 1.0
C      1  0.4920130000000  0.5181670000000  0.5596890000000 1.0
C      1  0.4970850000000  0.5227980000000  0.6130940000000 1.0
C      1  0.5005420000000  0.5146270000000  0.4562600000000 1.0
C      1  0.4969870000000  0.4402420000000  0.4695980000000 1.0
C      1  0.4586080000000  0.5605240000000  0.5395770000000 1.0
C      1  0.4613800000000  0.4818900000000  0.4220290000000 1.0
C      1  0.4923060000000  0.4490320000000  0.4433370000000 1.0
C      1  0.5478380000000  0.5144770000000  0.5305830000000 1.0
C      1  0.4920600000000  0.4728450000000  0.5374600000000 1.0
C      1  0.4469610000000  0.5021450000000  0.4337840000000 1.0
C      1  0.5040280000000  0.4961500000000  0.5465200000000 1.0
C      1  0.4559370000000  0.5245130000000  0.4469300000000 1.0
C      1  0.4806240000000  0.5377740000000  0.5446270000000 1.0
C      1  0.5313900000000  0.4727040000000  0.4719720000000 1.0
C      1  0.5364650000000  0.4670800000000  0.5307310000000 1.0
C      1  0.4764030000000  0.5390820000000  0.4890920000000 1.0
C      1  0.5525500000000  0.5280060000000  0.5077360000000 1.0
END
