TITL C-2848503-6230-655 -0.000186630290221656 125000 -401.915727662821 0 0 75 (C1) n - 1
REM
REM in /home/bkarasulu/work/CARBON/AIRSS/Generating-Clusters/AIREBO/with-SteepDescent/Only-C1/SD-CG-opt/Try1-1.4A-POS3A/HFTN-CG
REM
REM
REM
REM
REM
REM ./C.cell (11c1c37f851c82e70ff6c80c92926a4b)
REM
REM compiler GCC version 9.2.1 20190827 (Red Hat 9.2.1-1)
REM options -cpp -mtune=generic -march=x86-64 -g -O0 -fpre-include=/usr/include/finclude/math-vector-fortran.h
REM seed -839429412 900931434 687834920 -1778905532 826521402 -1383207604 1656381622 -1615839829 1112484356 -301378392 1771817737 581433453 -289724115 -441515276 -1131692149 -1792126040 -753611514 2072507604 2142007248 -853153692 1942313372 -2138689163 -933715600 -1255186792 -879963081 -94403544 -1985062673 178152405 -217012104 -544144758 -1951332717 -434804013 1545108619
REM
CELL 1.54180   50.00000   50.00000   50.00000   90.00000   90.00000   90.00000
LATT -1
SFAC C  
C      1  0.5216990000000  0.4582920000000  0.4442130000000 1.0
C      1  0.5086320000000  0.5494060000000  0.5006910000000 1.0
C      1  0.4417880000000  0.5311970000000  0.5340110000000 1.0
C      1  0.5533670000000  0.4683870000000  0.4492930000000 1.0
C      1  0.5193460000000  0.5326730000000  0.5596930000000 1.0
C      1  0.5313470000000  0.5713330000000  0.4934010000000 1.0
C      1  0.4446360000000  0.4633590000000  0.4700950000000 1.0
C      1  0.4481710000000  0.4994630000000  0.5740860000000 1.0
C      1  0.4289720000000  0.4476300000000  0.5204250000000 1.0
C      1  0.4971170000000  0.5411840000000  0.4500090000000 1.0
C      1  0.4568160000000  0.5482880000000  0.5515780000000 1.0
C      1  0.5010400000000  0.4726740000000  0.4670850000000 1.0
C      1  0.4818050000000  0.4531330000000  0.4469770000000 1.0
C      1  0.4586600000000  0.4340330000000  0.5104640000000 1.0
C      1  0.5505720000000  0.5201790000000  0.5382670000000 1.0
C      1  0.5073580000000  0.5031740000000  0.4567090000000 1.0
C      1  0.5002640000000  0.5204500000000  0.4851290000000 1.0
C      1  0.4562330000000  0.4988100000000  0.4558130000000 1.0
C      1  0.5426680000000  0.5214870000000  0.4581900000000 1.0
C      1  0.4763680000000  0.4879690000000  0.5116030000000 1.0
C      1  0.4122340000000  0.4698170000000  0.5165390000000 1.0
C      1  0.4675250000000  0.5619260000000  0.4669490000000 1.0
C      1  0.5310680000000  0.4642610000000  0.5587430000000 1.0
C      1  0.5710270000000  0.4976060000000  0.4915090000000 1.0
C      1  0.5778830000000  0.5462290000000  0.5057790000000 1.0
C      1  0.5364540000000  0.4455410000000  0.4719460000000 1.0
C      1  0.4617440000000  0.5197100000000  0.4295520000000 1.0
C      1  0.5097490000000  0.4822820000000  0.4232850000000 1.0
C      1  0.5242700000000  0.4781640000000  0.4913040000000 1.0
C      1  0.5447630000000  0.5536370000000  0.5365030000000 1.0
C      1  0.4783870000000  0.5341250000000  0.5696490000000 1.0
C      1  0.5243720000000  0.5450730000000  0.4528410000000 1.0
C      1  0.4921880000000  0.4877060000000  0.5545290000000 1.0
C      1  0.5383710000000  0.4885260000000  0.5405680000000 1.0
C      1  0.5206510000000  0.4311260000000  0.4933910000000 1.0
C      1  0.4990070000000  0.4653030000000  0.5063430000000 1.0
C      1  0.5260340000000  0.4367920000000  0.5398340000000 1.0
C      1  0.4875500000000  0.5449900000000  0.5391340000000 1.0
C      1  0.4626750000000  0.4811090000000  0.5389780000000 1.0
C      1  0.5747860000000  0.5197290000000  0.5147640000000 1.0
C      1  0.4767950000000  0.4306100000000  0.4637460000000 1.0
C      1  0.5363120000000  0.4951010000000  0.4408090000000 1.0
C      1  0.4575650000000  0.4690880000000  0.4392110000000 1.0
C      1  0.4323560000000  0.5117670000000  0.4974470000000 1.0
C      1  0.4545100000000  0.4522650000000  0.5383600000000 1.0
C      1  0.5387120000000  0.5069910000000  0.4887180000000 1.0
C      1  0.5054810000000  0.4621670000000  0.5364410000000 1.0
C      1  0.5463120000000  0.4765770000000  0.5148730000000 1.0
C      1  0.4145190000000  0.4764380000000  0.4702080000000 1.0
C      1  0.4376760000000  0.5013200000000  0.5441340000000 1.0
C      1  0.4863580000000  0.5021700000000  0.4296720000000 1.0
C      1  0.4293620000000  0.5014620000000  0.4720020000000 1.0
C      1  0.4214420000000  0.4967230000000  0.5184410000000 1.0
C      1  0.5620330000000  0.4670240000000  0.4796370000000 1.0
C      1  0.5119630000000  0.5097660000000  0.5378170000000 1.0
C      1  0.4747460000000  0.5072460000000  0.5746850000000 1.0
C      1  0.4759920000000  0.5535070000000  0.4920880000000 1.0
C      1  0.5329350000000  0.5689210000000  0.4631250000000 1.0
C      1  0.4885340000000  0.4371380000000  0.4941720000000 1.0
C      1  0.4713330000000  0.4814620000000  0.4808640000000 1.0
C      1  0.5464250000000  0.5267970000000  0.5713750000000 1.0
C      1  0.5303950000000  0.4223360000000  0.5175890000000 1.0
C      1  0.4514660000000  0.4350410000000  0.4797040000000 1.0
C      1  0.4570480000000  0.5312840000000  0.5062510000000 1.0
C      1  0.5731320000000  0.5274030000000  0.4546300000000 1.0
C      1  0.4872720000000  0.5195560000000  0.5165440000000 1.0
C      1  0.4671860000000  0.5485060000000  0.4379630000000 1.0
C      1  0.5878640000000  0.5127230000000  0.4694260000000 1.0
C      1  0.5221470000000  0.5835450000000  0.5226310000000 1.0
C      1  0.5288190000000  0.5246180000000  0.5122870000000 1.0
C      1  0.5084580000000  0.4735480000000  0.5812540000000 1.0
C      1  0.5726420000000  0.4628350000000  0.5107370000000 1.0
C      1  0.5140920000000  0.5612950000000  0.5442300000000 1.0
C      1  0.4747930000000  0.5227550000000  0.4670330000000 1.0
C      1  0.5557270000000  0.5632400000000  0.5120200000000 1.0
END
