TITL C-2847947-6848-547 0.001308572245803 125000 -309.059791582283 0 0 57 (C1) n - 1
REM
REM in /home/bkarasulu/work/CARBON/AIRSS/Generating-Clusters/AIREBO/with-SteepDescent/Only-C1/SD-CG-opt/Try1-1.4A-POS3A/HFTN-CG
REM
REM
REM
REM
REM
REM ./C.cell (11c1c37f851c82e70ff6c80c92926a4b)
REM
REM compiler GCC version 9.2.1 20190827 (Red Hat 9.2.1-1)
REM options -cpp -mtune=generic -march=x86-64 -g -O0 -fpre-include=/usr/include/finclude/math-vector-fortran.h
REM seed 1185004088 -239886884 1462243286 495997924 542785384 81652390 -106365379 165586786 2113546708 -1898393560 -957306530 1335986282 596728412 -1622343192 202810963 -288892197 2116638122 -1727696518 -1206014018 -689031866 -252837261 -1898688764 1967517828 -308639476 1332344775 589035558 537438649 -471859251 944381466 2064181398 2061044769 -946537700 -1605157738
REM
CELL 1.54180   50.00000   50.00000   50.00000   90.00000   90.00000   90.00000
LATT -1
SFAC C  
C      1  0.4528990000000  0.4576810000000  0.4719570000000 1.0
C      1  0.5657580000000  0.4405490000000  0.5047850000000 1.0
C      1  0.4952410000000  0.4360520000000  0.4826170000000 1.0
C      1  0.5221990000000  0.5050020000000  0.5291830000000 1.0
C      1  0.5550060000000  0.5511880000000  0.4548500000000 1.0
C      1  0.4676810000000  0.5369990000000  0.4878470000000 1.0
C      1  0.5245780000000  0.5079890000000  0.4393070000000 1.0
C      1  0.4626860000000  0.5154610000000  0.5126420000000 1.0
C      1  0.5278990000000  0.4732600000000  0.5280590000000 1.0
C      1  0.4617180000000  0.5210860000000  0.4274970000000 1.0
C      1  0.5557560000000  0.4713960000000  0.5585030000000 1.0
C      1  0.4279600000000  0.4483560000000  0.5150260000000 1.0
C      1  0.4631040000000  0.4932760000000  0.4340700000000 1.0
C      1  0.5004620000000  0.5276880000000  0.4919120000000 1.0
C      1  0.4677500000000  0.5029000000000  0.5572940000000 1.0
C      1  0.5416670000000  0.4553580000000  0.4118150000000 1.0
C      1  0.5250230000000  0.4822210000000  0.4698930000000 1.0
C      1  0.5273950000000  0.5401620000000  0.4499370000000 1.0
C      1  0.4935880000000  0.4813280000000  0.4569390000000 1.0
C      1  0.5718000000000  0.5408720000000  0.4721940000000 1.0
C      1  0.4949330000000  0.4730160000000  0.5201120000000 1.0
C      1  0.3867060000000  0.5723670000000  0.6387930000000 1.0
C      1  0.4664980000000  0.4829200000000  0.5110670000000 1.0
C      1  0.5810560000000  0.4794750000000  0.4648940000000 1.0
C      1  0.4507530000000  0.5270660000000  0.5675900000000 1.0
C      1  0.5133850000000  0.4534080000000  0.5805120000000 1.0
C      1  0.4536160000000  0.4843610000000  0.4595490000000 1.0
C      1  0.4719630000000  0.4371070000000  0.4677220000000 1.0
C      1  0.4544860000000  0.4998420000000  0.4835750000000 1.0
C      1  0.5117390000000  0.4631690000000  0.4928920000000 1.0
C      1  0.5099780000000  0.5270430000000  0.5203780000000 1.0
C      1  0.5895080000000  0.5334770000000  0.4969700000000 1.0
C      1  0.5541510000000  0.4849940000000  0.4847030000000 1.0
C      1  0.5278620000000  0.4558170000000  0.5572610000000 1.0
C      1  0.4334340000000  0.5372370000000  0.5850820000000 1.0
C      1  0.5552620000000  0.4688360000000  0.5096950000000 1.0
C      1  0.4945720000000  0.5799640000000  0.5027310000000 1.0
C      1  0.5228340000000  0.4340290000000  0.5338690000000 1.0
C      1  0.4812830000000  0.4822840000000  0.5482090000000 1.0
C      1  0.4802470000000  0.5373550000000  0.4390970000000 1.0
C      1  0.5660180000000  0.4806630000000  0.5374360000000 1.0
C      1  0.5954150000000  0.4642090000000  0.4506940000000 1.0
C      1  0.4987590000000  0.5523590000000  0.4515610000000 1.0
C      1  0.4916670000000  0.5584220000000  0.4810930000000 1.0
C      1  0.4936070000000  0.5442570000000  0.5356770000000 1.0
C      1  0.5134870000000  0.4690430000000  0.4192430000000 1.0
C      1  0.5763440000000  0.5086320000000  0.4778320000000 1.0
C      1  0.4390620000000  0.5461090000000  0.4825610000000 1.0
C      1  0.4012930000000  0.5600730000000  0.6208170000000 1.0
C      1  0.5178540000000  0.5154320000000  0.4713170000000 1.0
C      1  0.5091830000000  0.4352480000000  0.5113530000000 1.0
C      1  0.4182010000000  0.5483260000000  0.6039110000000 1.0
C      1  0.5362160000000  0.4707590000000  0.4408900000000 1.0
C      1  0.4952430000000  0.5715980000000  0.5290560000000 1.0
C      1  0.4894720000000  0.4805280000000  0.4267220000000 1.0
C      1  0.4672910000000  0.5304280000000  0.5389590000000 1.0
C      1  0.4464520000000  0.4613210000000  0.4998500000000 1.0
END
