TITL C-2847948-6138-678 -0.00205797155003392 125000 -319.148739806712 0 0 58 (C1) n - 1
REM
REM in /home/bkarasulu/work/CARBON/AIRSS/Generating-Clusters/AIREBO/with-SteepDescent/Only-C1/SD-CG-opt/Try1-1.4A-POS3A/HFTN-CG
REM
REM
REM
REM
REM
REM ./C.cell (11c1c37f851c82e70ff6c80c92926a4b)
REM
REM compiler GCC version 9.2.1 20190827 (Red Hat 9.2.1-1)
REM options -cpp -mtune=generic -march=x86-64 -g -O0 -fpre-include=/usr/include/finclude/math-vector-fortran.h
REM seed 1304688377 1257073529 1091653366 115154352 1453688296 25079617 -754518119 259707616 -733556345 1888106284 831755811 850168538 -931081880 -72657095 1822044761 376158430 574141907 594892810 -1635546908 -633025025 -151466461 169567121 1331228751 267431959 -39039453 1082528612 379085534 441007817 609577429 -1766749920 -1835284904 -2144297181 695191135
REM
CELL 1.54180   50.00000   50.00000   50.00000   90.00000   90.00000   90.00000
LATT -1
SFAC C  
C      1  0.5239940000000  0.5410150000000  0.4717710000000 1.0
C      1  0.4210600000000  0.4308080000000  0.5828160000000 1.0
C      1  0.4365380000000  0.4460040000000  0.5674510000000 1.0
C      1  0.4670720000000  0.4887110000000  0.4365790000000 1.0
C      1  0.5016320000000  0.5234450000000  0.4819540000000 1.0
C      1  0.4667630000000  0.4947950000000  0.5642120000000 1.0
C      1  0.5510020000000  0.5253750000000  0.4726850000000 1.0
C      1  0.4362500000000  0.4642640000000  0.5153030000000 1.0
C      1  0.5563720000000  0.5527780000000  0.4914820000000 1.0
C      1  0.4832040000000  0.5180340000000  0.5097240000000 1.0
C      1  0.4566720000000  0.5866740000000  0.5198950000000 1.0
C      1  0.5540230000000  0.4604250000000  0.4788630000000 1.0
C      1  0.5173770000000  0.4461110000000  0.4434230000000 1.0
C      1  0.4749160000000  0.5379610000000  0.4261400000000 1.0
C      1  0.4819840000000  0.4445170000000  0.4781470000000 1.0
C      1  0.4959100000000  0.5762080000000  0.4944350000000 1.0
C      1  0.4654360000000  0.5639250000000  0.5003720000000 1.0
C      1  0.5346610000000  0.5245140000000  0.5246760000000 1.0
C      1  0.4819320000000  0.5509860000000  0.4498520000000 1.0
C      1  0.5009380000000  0.4909120000000  0.4417510000000 1.0
C      1  0.4510400000000  0.4501470000000  0.5380750000000 1.0
C      1  0.4462350000000  0.4738610000000  0.4947030000000 1.0
C      1  0.4659370000000  0.5063280000000  0.4832740000000 1.0
C      1  0.5274960000000  0.4348600000000  0.5182090000000 1.0
C      1  0.4665500000000  0.5269430000000  0.5547260000000 1.0
C      1  0.4958390000000  0.5102130000000  0.5596430000000 1.0
C      1  0.5081840000000  0.4398450000000  0.4697160000000 1.0
C      1  0.4922100000000  0.5477240000000  0.5465960000000 1.0
C      1  0.5465670000000  0.5057090000000  0.4988610000000 1.0
C      1  0.4685660000000  0.5411470000000  0.5241330000000 1.0
C      1  0.5196740000000  0.4575220000000  0.5408360000000 1.0
C      1  0.5233000000000  0.4727880000000  0.4345680000000 1.0
C      1  0.5555380000000  0.5096000000000  0.4461790000000 1.0
C      1  0.5356100000000  0.5084590000000  0.5546350000000 1.0
C      1  0.5216710000000  0.4829050000000  0.5460550000000 1.0
C      1  0.5742660000000  0.4952020000000  0.5081640000000 1.0
C      1  0.5165610000000  0.5517150000000  0.5341310000000 1.0
C      1  0.5293820000000  0.4819270000000  0.4881740000000 1.0
C      1  0.4730450000000  0.4339350000000  0.5260380000000 1.0
C      1  0.5602090000000  0.5459070000000  0.5191600000000 1.0
C      1  0.4557000000000  0.4707380000000  0.5641160000000 1.0
C      1  0.4719880000000  0.5393970000000  0.4777480000000 1.0
C      1  0.5274420000000  0.4479460000000  0.4915050000000 1.0
C      1  0.4758520000000  0.4739250000000  0.4806800000000 1.0
C      1  0.4505030000000  0.4943320000000  0.4575840000000 1.0
C      1  0.5176940000000  0.5737600000000  0.5177250000000 1.0
C      1  0.5053290000000  0.5077540000000  0.5285930000000 1.0
C      1  0.5078280000000  0.5599680000000  0.4519830000000 1.0
C      1  0.5286350000000  0.5699630000000  0.4871670000000 1.0
C      1  0.5214250000000  0.5205260000000  0.5774160000000 1.0
C      1  0.4705840000000  0.4285150000000  0.4984320000000 1.0
C      1  0.5497030000000  0.4825980000000  0.4391430000000 1.0
C      1  0.4823300000000  0.5115450000000  0.4224120000000 1.0
C      1  0.5441700000000  0.4130830000000  0.5217850000000 1.0
C      1  0.5026020000000  0.4929240000000  0.4734420000000 1.0
C      1  0.4394760000000  0.5684930000000  0.4830890000000 1.0
C      1  0.5648210000000  0.4643400000000  0.4547690000000 1.0
C      1  0.4982980000000  0.4359930000000  0.5350020000000 1.0
END
