TITL C-2847949-8115-113 0.000396098110299014 125000 -234.100359455505 0 0 44 (C1) n - 1
REM
REM in /home/bkarasulu/work/CARBON/AIRSS/Generating-Clusters/AIREBO/with-SteepDescent/Only-C1/SD-CG-opt/Try1-1.4A-POS3A/HFTN-CG
REM
REM
REM
REM
REM
REM ./C.cell (11c1c37f851c82e70ff6c80c92926a4b)
REM
REM compiler GCC version 9.2.1 20190827 (Red Hat 9.2.1-1)
REM options -cpp -mtune=generic -march=x86-64 -g -O0 -fpre-include=/usr/include/finclude/math-vector-fortran.h
REM seed -152265293 -1239625681 1537195578 2035512814 -2071291862 570167685 -1998968404 2024400777 -1765242026 -286673711 292587025 -502539941 1878481329 1281279494 -1416338496 1815090918 -1706600955 -1009749300 -197851952 1237750259 -669707222 1281097439 -1086823615 1735254579 -166744968 1537912327 -1745448460 1766740438 1329846022 1374301315 849358539 -2135511435 -1999874143
REM
CELL 1.54180   50.00000   50.00000   50.00000   90.00000   90.00000   90.00000
LATT -1
SFAC C  
C      1  0.4697730000000  0.4983920000000  0.5065180000000 1.0
C      1  0.4440080000000  0.4965470000000  0.4940690000000 1.0
C      1  0.4921400000000  0.4445330000000  0.5324770000000 1.0
C      1  0.4933250000000  0.5667410000000  0.4945920000000 1.0
C      1  0.5412430000000  0.5200540000000  0.5200890000000 1.0
C      1  0.5404480000000  0.5045590000000  0.4975270000000 1.0
C      1  0.4508430000000  0.5186410000000  0.5806530000000 1.0
C      1  0.4690520000000  0.4409070000000  0.4823990000000 1.0
C      1  0.4489360000000  0.4838560000000  0.4689780000000 1.0
C      1  0.5235800000000  0.4768130000000  0.4331570000000 1.0
C      1  0.4888400000000  0.5118870000000  0.4528030000000 1.0
C      1  0.4712490000000  0.4903920000000  0.5338120000000 1.0
C      1  0.4606940000000  0.4565590000000  0.5657580000000 1.0
C      1  0.5113030000000  0.4644600000000  0.4773380000000 1.0
C      1  0.4793670000000  0.5391830000000  0.4541590000000 1.0
C      1  0.5284240000000  0.5452100000000  0.5312330000000 1.0
C      1  0.5546530000000  0.4744080000000  0.5009020000000 1.0
C      1  0.4606220000000  0.4192140000000  0.4928720000000 1.0
C      1  0.5161520000000  0.4417080000000  0.5188580000000 1.0
C      1  0.4792510000000  0.4684630000000  0.4685870000000 1.0
C      1  0.4205500000000  0.5053750000000  0.5033820000000 1.0
C      1  0.5307020000000  0.4606940000000  0.4554080000000 1.0
C      1  0.4574000000000  0.5401750000000  0.5575930000000 1.0
C      1  0.5154890000000  0.5694930000000  0.5204310000000 1.0
C      1  0.4640670000000  0.5615980000000  0.5422670000000 1.0
C      1  0.5298660000000  0.5931700000000  0.5222830000000 1.0
C      1  0.5217420000000  0.4660960000000  0.5029760000000 1.0
C      1  0.5369460000000  0.5296130000000  0.5583110000000 1.0
C      1  0.4817580000000  0.4637300000000  0.4390300000000 1.0
C      1  0.4750550000000  0.4637560000000  0.5438560000000 1.0
C      1  0.5554300000000  0.4769870000000  0.5348020000000 1.0
C      1  0.4972960000000  0.5547130000000  0.4705060000000 1.0
C      1  0.5838490000000  0.4774710000000  0.4951950000000 1.0
C      1  0.5490260000000  0.5030030000000  0.5445420000000 1.0
C      1  0.4574800000000  0.5485990000000  0.4418430000000 1.0
C      1  0.5484350000000  0.4496440000000  0.4784240000000 1.0
C      1  0.5218450000000  0.5420220000000  0.4675320000000 1.0
C      1  0.5328220000000  0.5205780000000  0.4475970000000 1.0
C      1  0.5361890000000  0.4293690000000  0.4972790000000 1.0
C      1  0.4635950000000  0.5090230000000  0.5523950000000 1.0
C      1  0.5038280000000  0.4966510000000  0.4339390000000 1.0
C      1  0.4827100000000  0.5672310000000  0.5237760000000 1.0
C      1  0.4898890000000  0.4977730000000  0.4821870000000 1.0
C      1  0.5201280000000  0.5107090000000  0.4776660000000 1.0
END
