TITL C-2847953-8112-29 0.00167515087104641 125000 -622.206157586128 0 0 112 (C1) n - 1
REM
REM in /home/bkarasulu/work/CARBON/AIRSS/Generating-Clusters/AIREBO/with-SteepDescent/Only-C1/SD-CG-opt/Try1-1.4A-POS3A/HFTN-CG
REM
REM
REM
REM
REM
REM ./C.cell (11c1c37f851c82e70ff6c80c92926a4b)
REM
REM compiler GCC version 9.2.1 20190827 (Red Hat 9.2.1-1)
REM options -cpp -mtune=generic -march=x86-64 -g -O0 -fpre-include=/usr/include/finclude/math-vector-fortran.h
REM seed 1689263045 -1566558291 -2007659823 -388397904 -427371766 417015534 412459095 91970169 650675610 857417114 1113729490 1626939432 1140165334 -2053739719 -2016723302 -1415868035 -2042394995 -777175904 1687146437 1240741345 683007015 -1829696448 -534853034 -1747947013 -1262974727 2049139439 -1596974325 1766828301 1290767883 -101470299 668538429 195514899 1278202769
REM
CELL 1.54180   50.00000   50.00000   50.00000   90.00000   90.00000   90.00000
LATT -1
SFAC C  
C      1  0.4417770000000  0.4457770000000  0.4569810000000 1.0
C      1  0.5498980000000  0.5331900000000  0.5010550000000 1.0
C      1  0.5058650000000  0.5363740000000  0.4465470000000 1.0
C      1  0.5007030000000  0.4053800000000  0.5242110000000 1.0
C      1  0.4081760000000  0.4628570000000  0.4862300000000 1.0
C      1  0.5763960000000  0.4925070000000  0.5472240000000 1.0
C      1  0.4806650000000  0.4728690000000  0.4618480000000 1.0
C      1  0.5471490000000  0.5473490000000  0.5666310000000 1.0
C      1  0.5085750000000  0.5943550000000  0.4876020000000 1.0
C      1  0.5278630000000  0.4680910000000  0.4262330000000 1.0
C      1  0.5023900000000  0.5151320000000  0.5366380000000 1.0
C      1  0.4990830000000  0.4944820000000  0.4475110000000 1.0
C      1  0.4283200000000  0.5044460000000  0.4446090000000 1.0
C      1  0.5310770000000  0.5212000000000  0.4298340000000 1.0
C      1  0.4800860000000  0.5712630000000  0.4552680000000 1.0
C      1  0.5936980000000  0.4664480000000  0.4815660000000 1.0
C      1  0.4901680000000  0.4785480000000  0.4188200000000 1.0
C      1  0.4270610000000  0.5296960000000  0.4801080000000 1.0
C      1  0.5092530000000  0.5686330000000  0.4409280000000 1.0
C      1  0.4345270000000  0.5565160000000  0.4820180000000 1.0
C      1  0.4277700000000  0.5511310000000  0.5309560000000 1.0
C      1  0.3998260000000  0.4877720000000  0.4957700000000 1.0
C      1  0.5580840000000  0.4619250000000  0.4310040000000 1.0
C      1  0.5188230000000  0.4824220000000  0.5031560000000 1.0
C      1  0.5135350000000  0.4749240000000  0.5861730000000 1.0
C      1  0.4612630000000  0.4740350000000  0.5349290000000 1.0
C      1  0.4593950000000  0.4271410000000  0.5380340000000 1.0
C      1  0.5498820000000  0.5122920000000  0.4567320000000 1.0
C      1  0.4881550000000  0.5762620000000  0.4841580000000 1.0
C      1  0.5231930000000  0.4646170000000  0.4584370000000 1.0
C      1  0.4919880000000  0.5179660000000  0.4239640000000 1.0
C      1  0.4896580000000  0.5462820000000  0.5753480000000 1.0
C      1  0.5138660000000  0.5258520000000  0.5645110000000 1.0
C      1  0.4833130000000  0.5191270000000  0.5889870000000 1.0
C      1  0.4928180000000  0.5495730000000  0.5007350000000 1.0
C      1  0.4186570000000  0.5214830000000  0.5258430000000 1.0
C      1  0.4121560000000  0.4687350000000  0.5388610000000 1.0
C      1  0.5177610000000  0.4976170000000  0.4127320000000 1.0
C      1  0.5831260000000  0.5090490000000  0.4969410000000 1.0
C      1  0.4584140000000  0.4479400000000  0.5650460000000 1.0
C      1  0.5332180000000  0.5353640000000  0.4753410000000 1.0
C      1  0.4299770000000  0.4454770000000  0.4824190000000 1.0
C      1  0.5494860000000  0.4523600000000  0.5057630000000 1.0
C      1  0.4449530000000  0.5340230000000  0.4447260000000 1.0
C      1  0.4482830000000  0.4384160000000  0.5077310000000 1.0
C      1  0.5145660000000  0.4201120000000  0.4699610000000 1.0
C      1  0.5011670000000  0.4195230000000  0.5693900000000 1.0
C      1  0.5147410000000  0.4401480000000  0.5380670000000 1.0
C      1  0.5438940000000  0.4288360000000  0.5244290000000 1.0
C      1  0.4587410000000  0.4767350000000  0.4153290000000 1.0
C      1  0.5224920000000  0.4460070000000  0.5706650000000 1.0
C      1  0.4375200000000  0.5663180000000  0.5084410000000 1.0
C      1  0.4099630000000  0.5165320000000  0.4961880000000 1.0
C      1  0.4809140000000  0.5737260000000  0.5302900000000 1.0
C      1  0.4590290000000  0.4740690000000  0.5774700000000 1.0
C      1  0.4501880000000  0.4617150000000  0.3933380000000 1.0
C      1  0.4028080000000  0.4917510000000  0.5261820000000 1.0
C      1  0.5021110000000  0.4337180000000  0.5071500000000 1.0
C      1  0.5433450000000  0.5703920000000  0.5133300000000 1.0
C      1  0.5655640000000  0.5398360000000  0.4189970000000 1.0
C      1  0.4711360000000  0.5533450000000  0.5517600000000 1.0
C      1  0.5506070000000  0.4642330000000  0.5767630000000 1.0
C      1  0.5004570000000  0.5263620000000  0.4781410000000 1.0
C      1  0.4466630000000  0.5653780000000  0.4541810000000 1.0
C      1  0.4773450000000  0.4501850000000  0.4957610000000 1.0
C      1  0.5333970000000  0.5829540000000  0.4865510000000 1.0
C      1  0.5041390000000  0.4512440000000  0.4101420000000 1.0
C      1  0.4535870000000  0.4982120000000  0.5558510000000 1.0
C      1  0.5451500000000  0.5432990000000  0.5338090000000 1.0
C      1  0.4652940000000  0.5620810000000  0.4259220000000 1.0
C      1  0.5512130000000  0.4643810000000  0.4777100000000 1.0
C      1  0.4506970000000  0.5116530000000  0.4693820000000 1.0
C      1  0.4513110000000  0.5188210000000  0.5310940000000 1.0
C      1  0.4974190000000  0.4875210000000  0.5249920000000 1.0
C      1  0.4653690000000  0.5291570000000  0.4187190000000 1.0
C      1  0.5347800000000  0.5638820000000  0.4632960000000 1.0
C      1  0.4988170000000  0.4467600000000  0.4695820000000 1.0
C      1  0.5317990000000  0.4679170000000  0.5302970000000 1.0
C      1  0.5872520000000  0.5202380000000  0.5443440000000 1.0
C      1  0.5562790000000  0.4428770000000  0.4534470000000 1.0
C      1  0.5374480000000  0.5171020000000  0.5829400000000 1.0
C      1  0.5686260000000  0.5217200000000  0.5727830000000 1.0
C      1  0.4769430000000  0.5016260000000  0.4797180000000 1.0
C      1  0.5629010000000  0.4880890000000  0.5725810000000 1.0
C      1  0.5238690000000  0.4951850000000  0.4675210000000 1.0
C      1  0.4352560000000  0.4578950000000  0.5306280000000 1.0
C      1  0.4750930000000  0.4806670000000  0.5045700000000 1.0
C      1  0.5862180000000  0.5288160000000  0.5169670000000 1.0
C      1  0.5431800000000  0.5020310000000  0.4946740000000 1.0
C      1  0.5161990000000  0.5582490000000  0.5567550000000 1.0
C      1  0.4380560000000  0.5247360000000  0.5683190000000 1.0
C      1  0.5746250000000  0.4845210000000  0.4364020000000 1.0
C      1  0.5311120000000  0.4941800000000  0.5983420000000 1.0
C      1  0.5831990000000  0.4787740000000  0.5063950000000 1.0
C      1  0.5563890000000  0.4903950000000  0.5237830000000 1.0
C      1  0.4865260000000  0.4104380000000  0.5474850000000 1.0
C      1  0.4420940000000  0.5490460000000  0.5555290000000 1.0
C      1  0.5337760000000  0.5144000000000  0.5320640000000 1.0
C      1  0.5121080000000  0.5637930000000  0.5250340000000 1.0
C      1  0.4865720000000  0.4900570000000  0.5767070000000 1.0
C      1  0.5390010000000  0.4205650000000  0.4557140000000 1.0
C      1  0.5384640000000  0.5541040000000  0.4313370000000 1.0
C      1  0.4606970000000  0.5821670000000  0.5142570000000 1.0
C      1  0.4803990000000  0.5339880000000  0.5265070000000 1.0
C      1  0.4583470000000  0.4627180000000  0.4442910000000 1.0
C      1  0.5706750000000  0.5153410000000  0.4300020000000 1.0
C      1  0.5092970000000  0.4794800000000  0.5532850000000 1.0
C      1  0.4454760000000  0.5040140000000  0.4184690000000 1.0
C      1  0.5721440000000  0.4900170000000  0.4698630000000 1.0
C      1  0.5738180000000  0.5557040000000  0.5098400000000 1.0
C      1  0.5074350000000  0.4032920000000  0.4929880000000 1.0
C      1  0.4839720000000  0.4500790000000  0.5431230000000 1.0
END
