TITL C-2847948-6138-673 -0.000400864341034832 125000 -196.717734454784 0 0 35 (C1) n - 1
REM
REM in /home/bkarasulu/work/CARBON/AIRSS/Generating-Clusters/AIREBO/with-SteepDescent/Only-C1/SD-CG-opt/Try1-1.4A-POS3A/HFTN-CG
REM
REM
REM
REM
REM
REM ./C.cell (11c1c37f851c82e70ff6c80c92926a4b)
REM
REM compiler GCC version 9.2.1 20190827 (Red Hat 9.2.1-1)
REM options -cpp -mtune=generic -march=x86-64 -g -O0 -fpre-include=/usr/include/finclude/math-vector-fortran.h
REM seed 538352848 -154042435 -1519133921 -854159072 598879549 1185004138 -768453494 757250961 138029475 834050775 342217550 1671468689 -1790133094 -1255877807 -537796616 1450627674 -1019678055 256298095 419346785 683740911 -799940809 1624406079 -578471249 -552285359 381928054 1976807204 -442935925 1890565676 -790582313 1523215782 -377603837 1076145775 902382551
REM
CELL 1.54180   50.00000   50.00000   50.00000   90.00000   90.00000   90.00000
LATT -1
SFAC C  
C      1  0.5734480000000  0.4846220000000  0.4823870000000 1.0
C      1  0.5483820000000  0.4959250000000  0.4727120000000 1.0
C      1  0.4523970000000  0.4893680000000  0.5343830000000 1.0
C      1  0.4911990000000  0.5780430000000  0.5380890000000 1.0
C      1  0.4766880000000  0.5077930000000  0.5316270000000 1.0
C      1  0.5523740000000  0.5073510000000  0.5172780000000 1.0
C      1  0.4765540000000  0.4685740000000  0.4640470000000 1.0
C      1  0.4532390000000  0.4260080000000  0.4709640000000 1.0
C      1  0.4910390000000  0.4536590000000  0.5133590000000 1.0
C      1  0.5102440000000  0.4730590000000  0.5304760000000 1.0
C      1  0.5047350000000  0.6132450000000  0.4726600000000 1.0
C      1  0.5092790000000  0.4347550000000  0.4975420000000 1.0
C      1  0.5241040000000  0.4779100000000  0.4728870000000 1.0
C      1  0.5011330000000  0.4289350000000  0.4671800000000 1.0
C      1  0.4756120000000  0.4401510000000  0.4606900000000 1.0
C      1  0.4605760000000  0.4392730000000  0.5179540000000 1.0
C      1  0.4541550000000  0.4684670000000  0.5171260000000 1.0
C      1  0.4501940000000  0.4222010000000  0.4982720000000 1.0
C      1  0.4906360000000  0.5306270000000  0.5507950000000 1.0
C      1  0.4863950000000  0.5062720000000  0.5014910000000 1.0
C      1  0.5038060000000  0.5001270000000  0.5502340000000 1.0
C      1  0.4908810000000  0.5828590000000  0.5124310000000 1.0
C      1  0.5270210000000  0.4473810000000  0.4739430000000 1.0
C      1  0.4642590000000  0.5889390000000  0.4670910000000 1.0
C      1  0.4875070000000  0.5562500000000  0.5539490000000 1.0
C      1  0.5036630000000  0.5637690000000  0.4891720000000 1.0
C      1  0.5245640000000  0.5387720000000  0.4897730000000 1.0
C      1  0.4730230000000  0.4762840000000  0.4928510000000 1.0
C      1  0.4886590000000  0.5917150000000  0.4802900000000 1.0
C      1  0.5327310000000  0.4983360000000  0.5338500000000 1.0
C      1  0.5108980000000  0.4855750000000  0.4999570000000 1.0
C      1  0.4928440000000  0.5324400000000  0.4902240000000 1.0
C      1  0.4990210000000  0.4809580000000  0.4534480000000 1.0
C      1  0.5760070000000  0.4916390000000  0.5099110000000 1.0
C      1  0.5427330000000  0.5187180000000  0.4909550000000 1.0
END
