TITL C-2848505-4874-394 -0.00311080757984637 125000 -781.667046501676 0 0 146 (C1) n - 1
REM
REM in /home/bkarasulu/work/CARBON/AIRSS/Generating-Clusters/AIREBO/with-SteepDescent/Only-C1/SD-CG-opt/Try1-1.4A-POS3A/HFTN-CG
REM
REM
REM
REM
REM
REM ./C.cell (11c1c37f851c82e70ff6c80c92926a4b)
REM
REM compiler GCC version 9.2.1 20190827 (Red Hat 9.2.1-1)
REM options -cpp -mtune=generic -march=x86-64 -g -O0 -fpre-include=/usr/include/finclude/math-vector-fortran.h
REM seed -589956922 1525951948 498924675 977353676 165605477 133621939 -166357459 404343895 1006819631 -1646965620 -129551829 1135655690 1347846302 515861164 64512433 -242895298 294863299 1479511185 1177430377 1803415476 1962780027 -1083986228 -930144742 -1270187796 794051626 2016232042 844462067 1594835349 2041014966 -823235745 1675485077 -2129395269 -1024286085
REM
CELL 1.54180   50.00000   50.00000   50.00000   90.00000   90.00000   90.00000
LATT -1
SFAC C  
C      1  0.5088030000000  0.5916360000000  0.5352340000000 1.0
C      1  0.4982210000000  0.5039050000000  0.4799770000000 1.0
C      1  0.5659450000000  0.5138350000000  0.5765140000000 1.0
C      1  0.5172130000000  0.5999250000000  0.5065460000000 1.0
C      1  0.5182680000000  0.5798830000000  0.5583510000000 1.0
C      1  0.4574220000000  0.4429120000000  0.4274810000000 1.0
C      1  0.5821930000000  0.4435530000000  0.5105630000000 1.0
C      1  0.4409490000000  0.5476650000000  0.4606510000000 1.0
C      1  0.4531690000000  0.5351030000000  0.4966040000000 1.0
C      1  0.5612430000000  0.5009610000000  0.4676040000000 1.0
C      1  0.5121650000000  0.5430580000000  0.5890280000000 1.0
C      1  0.4707000000000  0.5026470000000  0.5376550000000 1.0
C      1  0.4200520000000  0.5133480000000  0.5599130000000 1.0
C      1  0.4733480000000  0.4946970000000  0.4500600000000 1.0
C      1  0.5766400000000  0.4950840000000  0.5584800000000 1.0
C      1  0.4899430000000  0.5193650000000  0.5962570000000 1.0
C      1  0.5193950000000  0.5370930000000  0.4292630000000 1.0
C      1  0.4709760000000  0.5526720000000  0.4764410000000 1.0
C      1  0.4475710000000  0.4115570000000  0.4726530000000 1.0
C      1  0.4455820000000  0.5037030000000  0.5687740000000 1.0
C      1  0.4436770000000  0.5490960000000  0.5575400000000 1.0
C      1  0.5477830000000  0.4292040000000  0.4392090000000 1.0
C      1  0.4999990000000  0.5770400000000  0.4878320000000 1.0
C      1  0.4824050000000  0.4396050000000  0.5555600000000 1.0
C      1  0.4942070000000  0.4792380000000  0.4045060000000 1.0
C      1  0.4326450000000  0.4737810000000  0.4248080000000 1.0
C      1  0.5124540000000  0.5328880000000  0.5175990000000 1.0
C      1  0.5194220000000  0.4199390000000  0.5714200000000 1.0
C      1  0.5882110000000  0.4885330000000  0.4408070000000 1.0
C      1  0.5733650000000  0.4516690000000  0.5398230000000 1.0
C      1  0.5019320000000  0.5430990000000  0.4868120000000 1.0
C      1  0.5050870000000  0.4084410000000  0.4748630000000 1.0
C      1  0.4650800000000  0.4498260000000  0.5783320000000 1.0
C      1  0.4432680000000  0.4178360000000  0.4456680000000 1.0
C      1  0.5396180000000  0.4149070000000  0.5287290000000 1.0
C      1  0.4746240000000  0.5720640000000  0.5701730000000 1.0
C      1  0.5491430000000  0.4777720000000  0.5218890000000 1.0
C      1  0.5223200000000  0.5139620000000  0.6039330000000 1.0
C      1  0.5245420000000  0.4362070000000  0.4709290000000 1.0
C      1  0.5776610000000  0.5366870000000  0.4747140000000 1.0
C      1  0.5239000000000  0.4821390000000  0.5444960000000 1.0
C      1  0.4908010000000  0.5201780000000  0.3946230000000 1.0
C      1  0.4553450000000  0.5778670000000  0.4629550000000 1.0
C      1  0.5606670000000  0.4501300000000  0.4850540000000 1.0
C      1  0.5303290000000  0.5443910000000  0.4005380000000 1.0
C      1  0.5665930000000  0.5704260000000  0.5651180000000 1.0
C      1  0.3968940000000  0.4834750000000  0.4645540000000 1.0
C      1  0.5685210000000  0.4679670000000  0.5622200000000 1.0
C      1  0.4534950000000  0.4772850000000  0.5522120000000 1.0
C      1  0.4486640000000  0.5243850000000  0.5347130000000 1.0
C      1  0.6259830000000  0.5401330000000  0.4962360000000 1.0
C      1  0.4577640000000  0.5604770000000  0.5131980000000 1.0
C      1  0.4967930000000  0.4880020000000  0.5880820000000 1.0
C      1  0.4131710000000  0.5465180000000  0.4728260000000 1.0
C      1  0.5735560000000  0.4975410000000  0.5293960000000 1.0
C      1  0.3926610000000  0.5374500000000  0.5216060000000 1.0
C      1  0.4057900000000  0.5249810000000  0.4940390000000 1.0
C      1  0.4656010000000  0.4561330000000  0.4755280000000 1.0
C      1  0.4198530000000  0.5079100000000  0.5272950000000 1.0
C      1  0.5419920000000  0.5598530000000  0.5567760000000 1.0
C      1  0.4359910000000  0.4215960000000  0.5031680000000 1.0
C      1  0.4965970000000  0.5581250000000  0.4307640000000 1.0
C      1  0.4930280000000  0.5345680000000  0.5454840000000 1.0
C      1  0.4834040000000  0.4851270000000  0.5041550000000 1.0
C      1  0.5210910000000  0.4816990000000  0.4401300000000 1.0
C      1  0.4461720000000  0.5385450000000  0.5877400000000 1.0
C      1  0.4512340000000  0.4809720000000  0.4939360000000 1.0
C      1  0.5481050000000  0.5481500000000  0.4749640000000 1.0
C      1  0.4517990000000  0.5897600000000  0.5294150000000 1.0
C      1  0.4941350000000  0.4147190000000  0.5596310000000 1.0
C      1  0.5181840000000  0.4295180000000  0.4382040000000 1.0
C      1  0.4997730000000  0.4598990000000  0.5383840000000 1.0
C      1  0.5459520000000  0.5524340000000  0.4414780000000 1.0
C      1  0.5620570000000  0.4765900000000  0.4298870000000 1.0
C      1  0.4937660000000  0.4603460000000  0.5877160000000 1.0
C      1  0.5913740000000  0.5043990000000  0.5026780000000 1.0
C      1  0.5329980000000  0.5771090000000  0.4654600000000 1.0
C      1  0.5389340000000  0.5245120000000  0.4976280000000 1.0
C      1  0.5401750000000  0.5071680000000  0.4453700000000 1.0
C      1  0.4349740000000  0.5095570000000  0.5002340000000 1.0
C      1  0.4667220000000  0.5579630000000  0.4237820000000 1.0
C      1  0.4866440000000  0.4671510000000  0.4542830000000 1.0
C      1  0.4444430000000  0.4944510000000  0.4646520000000 1.0
C      1  0.5027260000000  0.5809330000000  0.4544230000000 1.0
C      1  0.3903960000000  0.5247770000000  0.5478240000000 1.0
C      1  0.4934590000000  0.3992640000000  0.5364040000000 1.0
C      1  0.5381100000000  0.4696810000000  0.5727850000000 1.0
C      1  0.5291930000000  0.4059590000000  0.4987190000000 1.0
C      1  0.5524930000000  0.4179930000000  0.4775230000000 1.0
C      1  0.5881090000000  0.5377860000000  0.4273470000000 1.0
C      1  0.4897410000000  0.4455400000000  0.4306940000000 1.0
C      1  0.4103030000000  0.4087870000000  0.5204680000000 1.0
C      1  0.4718290000000  0.5560130000000  0.5418450000000 1.0
C      1  0.5367080000000  0.5192730000000  0.5371620000000 1.0
C      1  0.5608420000000  0.4509370000000  0.4509110000000 1.0
C      1  0.5121390000000  0.5050130000000  0.5663280000000 1.0
C      1  0.5348080000000  0.5571780000000  0.5258510000000 1.0
C      1  0.5700600000000  0.5555780000000  0.4255150000000 1.0
C      1  0.5151680000000  0.4687550000000  0.4677310000000 1.0
C      1  0.5162130000000  0.5257370000000  0.4611720000000 1.0
C      1  0.5107820000000  0.5059520000000  0.4186350000000 1.0
C      1  0.5294930000000  0.4508430000000  0.5002640000000 1.0
C      1  0.5108540000000  0.4495900000000  0.4046840000000 1.0
C      1  0.5003490000000  0.4119570000000  0.5138480000000 1.0
C      1  0.4678170000000  0.5132230000000  0.4777220000000 1.0
C      1  0.4721590000000  0.5245070000000  0.5708860000000 1.0
C      1  0.4721850000000  0.5870610000000  0.4405090000000 1.0
C      1  0.5787650000000  0.5596680000000  0.5071670000000 1.0
C      1  0.4586500000000  0.4390210000000  0.5151750000000 1.0
C      1  0.5191770000000  0.4465730000000  0.5822210000000 1.0
C      1  0.4482660000000  0.5036300000000  0.4202190000000 1.0
C      1  0.5392390000000  0.4075700000000  0.5549870000000 1.0
C      1  0.3944550000000  0.5627630000000  0.4640840000000 1.0
C      1  0.5989020000000  0.5341370000000  0.4971950000000 1.0
C      1  0.4471140000000  0.5830300000000  0.5571760000000 1.0
C      1  0.4690320000000  0.4644230000000  0.5273400000000 1.0
C      1  0.5012000000000  0.5704190000000  0.5786550000000 1.0
C      1  0.5530820000000  0.5698690000000  0.5081630000000 1.0
C      1  0.5874030000000  0.5461640000000  0.5333470000000 1.0
C      1  0.5310290000000  0.4952390000000  0.4821770000000 1.0
C      1  0.5433290000000  0.4988800000000  0.4117580000000 1.0
C      1  0.5853320000000  0.5183300000000  0.4510270000000 1.0
C      1  0.4278760000000  0.4282140000000  0.5372790000000 1.0
C      1  0.5398620000000  0.5884040000000  0.4920630000000 1.0
C      1  0.3869400000000  0.5029750000000  0.4817660000000 1.0
C      1  0.5395120000000  0.4928070000000  0.5977080000000 1.0
C      1  0.3939070000000  0.4923460000000  0.5433820000000 1.0
C      1  0.4656020000000  0.4744730000000  0.4164750000000 1.0
C      1  0.4476180000000  0.5359760000000  0.4308260000000 1.0
C      1  0.5240140000000  0.4836430000000  0.3887350000000 1.0
C      1  0.5361640000000  0.5288700000000  0.5695330000000 1.0
C      1  0.5672130000000  0.4824970000000  0.4931520000000 1.0
C      1  0.5456030000000  0.4441620000000  0.5258430000000 1.0
C      1  0.4398180000000  0.4564920000000  0.4532090000000 1.0
C      1  0.4429670000000  0.4449590000000  0.5529520000000 1.0
C      1  0.5018920000000  0.4574380000000  0.5056940000000 1.0
C      1  0.4755050000000  0.4100590000000  0.4759590000000 1.0
C      1  0.4820510000000  0.5843240000000  0.5155630000000 1.0
C      1  0.4205020000000  0.4910910000000  0.4485670000000 1.0
C      1  0.5675680000000  0.5020740000000  0.6043660000000 1.0
C      1  0.4098220000000  0.4562630000000  0.4647930000000 1.0
C      1  0.5633490000000  0.5257200000000  0.5212630000000 1.0
C      1  0.5337580000000  0.4613840000000  0.4202570000000 1.0
C      1  0.4829150000000  0.4346240000000  0.4954120000000 1.0
C      1  0.5027010000000  0.5014390000000  0.5261760000000 1.0
C      1  0.4787620000000  0.5117220000000  0.4252860000000 1.0
END
