TITL C-2848499-1157-424 -8.9877919093526e-05 125000 -229.008859085131 0 0 41 (C1) n - 1
REM
REM in /home/bkarasulu/work/CARBON/AIRSS/Generating-Clusters/AIREBO/with-SteepDescent/Only-C1/SD-CG-opt/Try1-1.4A-POS3A/HFTN-CG
REM
REM
REM
REM
REM
REM ./C.cell (11c1c37f851c82e70ff6c80c92926a4b)
REM
REM compiler GCC version 9.2.1 20190827 (Red Hat 9.2.1-1)
REM options -cpp -mtune=generic -march=x86-64 -g -O0 -fpre-include=/usr/include/finclude/math-vector-fortran.h
REM seed 101934392 -2096546742 1122934869 1786720654 2105465698 1653503061 -651683785 1605401660 -2127499816 -345387372 133927697 1330597579 -1784662098 667446969 -775913914 825998497 -2022119973 -295332569 1639377968 1379621925 -736569148 -1945549805 -1686952004 669910290 1708229947 1369898027 -1100571764 -1478366268 625892856 -1374449242 743163322 -1596759424 -2000188702
REM
CELL 1.54180   50.00000   50.00000   50.00000   90.00000   90.00000   90.00000
LATT -1
SFAC C  
C      1  0.4280680000000  0.4928350000000  0.4823380000000 1.0
C      1  0.5460860000000  0.4976080000000  0.5209090000000 1.0
C      1  0.5644780000000  0.5403350000000  0.4525120000000 1.0
C      1  0.5017170000000  0.5596560000000  0.4946990000000 1.0
C      1  0.5167850000000  0.4486590000000  0.5086240000000 1.0
C      1  0.5180010000000  0.5811860000000  0.5005110000000 1.0
C      1  0.4483430000000  0.4771910000000  0.4618390000000 1.0
C      1  0.4699840000000  0.4599520000000  0.5733140000000 1.0
C      1  0.5381820000000  0.5336450000000  0.5393440000000 1.0
C      1  0.4646080000000  0.5366640000000  0.5249450000000 1.0
C      1  0.4835210000000  0.5041480000000  0.5590160000000 1.0
C      1  0.4653310000000  0.4651640000000  0.5265560000000 1.0
C      1  0.5521670000000  0.5197060000000  0.4608760000000 1.0
C      1  0.4432290000000  0.5192400000000  0.5238780000000 1.0
C      1  0.4477320000000  0.5091840000000  0.4629610000000 1.0
C      1  0.5643360000000  0.4829480000000  0.4841630000000 1.0
C      1  0.4658480000000  0.5280310000000  0.4637080000000 1.0
C      1  0.5134370000000  0.4620840000000  0.5365840000000 1.0
C      1  0.5156500000000  0.5229650000000  0.5263370000000 1.0
C      1  0.5156240000000  0.5290200000000  0.4951210000000 1.0
C      1  0.5586150000000  0.4511950000000  0.4843870000000 1.0
C      1  0.5146600000000  0.5283050000000  0.4405620000000 1.0
C      1  0.4995980000000  0.4629000000000  0.4869920000000 1.0
C      1  0.5410260000000  0.4887670000000  0.4522310000000 1.0
C      1  0.4262530000000  0.4964300000000  0.5093690000000 1.0
C      1  0.4773800000000  0.5577330000000  0.4710300000000 1.0
C      1  0.4860620000000  0.5287950000000  0.5408980000000 1.0
C      1  0.5415590000000  0.4791780000000  0.5371730000000 1.0
C      1  0.5273980000000  0.5087840000000  0.4314890000000 1.0
C      1  0.5389470000000  0.5051280000000  0.4886050000000 1.0
C      1  0.4456340000000  0.4875810000000  0.5348320000000 1.0
C      1  0.5629000000000  0.4661410000000  0.4559680000000 1.0
C      1  0.4702840000000  0.4581490000000  0.5015110000000 1.0
C      1  0.4694380000000  0.4622610000000  0.4710270000000 1.0
C      1  0.4704620000000  0.5570500000000  0.5071020000000 1.0
C      1  0.5400370000000  0.4377090000000  0.4999590000000 1.0
C      1  0.5047340000000  0.4941740000000  0.5392230000000 1.0
C      1  0.4989090000000  0.5320400000000  0.4661790000000 1.0
C      1  0.5181290000000  0.4819890000000  0.4745720000000 1.0
C      1  0.4835620000000  0.4582110000000  0.5463240000000 1.0
C      1  0.4612900000000  0.4872550000000  0.5623300000000 1.0
END
