TITL C-2848509-3138-493 -0.000549179679949341 125000 -607.248007269361 0 0 114 (C1) n - 1
REM
REM in /home/bkarasulu/work/CARBON/AIRSS/Generating-Clusters/AIREBO/with-SteepDescent/Only-C1/SD-CG-opt/Try1-1.4A-POS3A/HFTN-CG
REM
REM
REM
REM
REM
REM ./C.cell (11c1c37f851c82e70ff6c80c92926a4b)
REM
REM compiler GCC version 9.2.1 20190827 (Red Hat 9.2.1-1)
REM options -cpp -mtune=generic -march=x86-64 -g -O0 -fpre-include=/usr/include/finclude/math-vector-fortran.h
REM seed -224795849 -542975539 -24387722 391674049 -526093952 911647810 -80471227 1951572212 -1942899002 -392742652 -148947199 -1225763572 1816140762 960245626 -1139299593 1031964266 -1408725655 -304188895 640231507 -2020225184 1577108314 2045955656 1245050390 -290160120 1822063422 257447217 -321098889 971145771 469184475 315928559 937467117 -87165386 432561821
REM
CELL 1.54180   50.00000   50.00000   50.00000   90.00000   90.00000   90.00000
LATT -1
SFAC C  
C      1  0.4741510000000  0.4238760000000  0.5216580000000 1.0
C      1  0.5215330000000  0.4478850000000  0.5552760000000 1.0
C      1  0.5168850000000  0.5302800000000  0.4592170000000 1.0
C      1  0.4382450000000  0.5463860000000  0.5537110000000 1.0
C      1  0.5447800000000  0.4821870000000  0.4823460000000 1.0
C      1  0.4148640000000  0.5302800000000  0.5072770000000 1.0
C      1  0.4816540000000  0.4915860000000  0.4197530000000 1.0
C      1  0.5759860000000  0.5107600000000  0.5411870000000 1.0
C      1  0.5671750000000  0.4530410000000  0.5401310000000 1.0
C      1  0.4948790000000  0.5653400000000  0.5769490000000 1.0
C      1  0.4394050000000  0.4297040000000  0.4874510000000 1.0
C      1  0.5399590000000  0.4690980000000  0.5415300000000 1.0
C      1  0.5126200000000  0.5611240000000  0.5145500000000 1.0
C      1  0.4690640000000  0.5068250000000  0.5965760000000 1.0
C      1  0.4045480000000  0.4899460000000  0.4823770000000 1.0
C      1  0.5478860000000  0.4155970000000  0.4661110000000 1.0
C      1  0.5113030000000  0.5908150000000  0.5255430000000 1.0
C      1  0.4909750000000  0.4263830000000  0.4759570000000 1.0
C      1  0.5729160000000  0.4819360000000  0.5008510000000 1.0
C      1  0.5517520000000  0.4682750000000  0.4205500000000 1.0
C      1  0.4807390000000  0.4587050000000  0.4733950000000 1.0
C      1  0.5553550000000  0.5836250000000  0.5393550000000 1.0
C      1  0.4598720000000  0.5456660000000  0.5274730000000 1.0
C      1  0.5481860000000  0.5131270000000  0.4403970000000 1.0
C      1  0.5946430000000  0.4999080000000  0.4648320000000 1.0
C      1  0.4663340000000  0.5800480000000  0.4904270000000 1.0
C      1  0.4210680000000  0.5586690000000  0.4958710000000 1.0
C      1  0.4093340000000  0.4778510000000  0.4568420000000 1.0
C      1  0.5698340000000  0.5355660000000  0.4462690000000 1.0
C      1  0.4963450000000  0.4765430000000  0.5681960000000 1.0
C      1  0.5200050000000  0.4090750000000  0.5325150000000 1.0
C      1  0.5213350000000  0.5739510000000  0.5700680000000 1.0
C      1  0.5764250000000  0.4801240000000  0.5305220000000 1.0
C      1  0.5908550000000  0.5037620000000  0.4922790000000 1.0
C      1  0.4437400000000  0.4702450000000  0.5630580000000 1.0
C      1  0.4370080000000  0.5740640000000  0.5433140000000 1.0
C      1  0.5211690000000  0.3971970000000  0.5077890000000 1.0
C      1  0.4965780000000  0.4693900000000  0.4074980000000 1.0
C      1  0.4550460000000  0.5375010000000  0.4286090000000 1.0
C      1  0.4581180000000  0.4268280000000  0.4671380000000 1.0
C      1  0.4159630000000  0.5171880000000  0.4554170000000 1.0
C      1  0.5692610000000  0.4522130000000  0.4909350000000 1.0
C      1  0.5892540000000  0.5232140000000  0.5123790000000 1.0
C      1  0.5477780000000  0.4876800000000  0.5757950000000 1.0
C      1  0.4884790000000  0.5567120000000  0.4483580000000 1.0
C      1  0.4398690000000  0.5179940000000  0.5257280000000 1.0
C      1  0.5092330000000  0.5127880000000  0.5214790000000 1.0
C      1  0.4257420000000  0.4557460000000  0.5023930000000 1.0
C      1  0.4934170000000  0.5413390000000  0.5310700000000 1.0
C      1  0.5380680000000  0.5500890000000  0.5662890000000 1.0
C      1  0.5433500000000  0.5021260000000  0.5453170000000 1.0
C      1  0.5580310000000  0.5564170000000  0.5478120000000 1.0
C      1  0.5383160000000  0.5455560000000  0.4376720000000 1.0
C      1  0.4327940000000  0.4863140000000  0.5155720000000 1.0
C      1  0.4385470000000  0.4909950000000  0.4823870000000 1.0
C      1  0.4876400000000  0.4878310000000  0.5980090000000 1.0
C      1  0.5000230000000  0.4754080000000  0.4540080000000 1.0
C      1  0.5018760000000  0.5159210000000  0.4322580000000 1.0
C      1  0.5225150000000  0.4164890000000  0.4840060000000 1.0
C      1  0.4916520000000  0.5593170000000  0.4911480000000 1.0
C      1  0.5809260000000  0.4689120000000  0.4617710000000 1.0
C      1  0.4494000000000  0.4655390000000  0.5324990000000 1.0
C      1  0.4403700000000  0.4735010000000  0.4525890000000 1.0
C      1  0.4904210000000  0.5376580000000  0.5628610000000 1.0
C      1  0.4714860000000  0.5079710000000  0.5332520000000 1.0
C      1  0.5244710000000  0.4912990000000  0.4385360000000 1.0
C      1  0.5050450000000  0.4870400000000  0.4855640000000 1.0
C      1  0.4827300000000  0.4541590000000  0.4337590000000 1.0
C      1  0.4613190000000  0.4474230000000  0.5660290000000 1.0
C      1  0.3939430000000  0.5083890000000  0.4989830000000 1.0
C      1  0.4552640000000  0.4886450000000  0.4280320000000 1.0
C      1  0.5619790000000  0.4406810000000  0.4627000000000 1.0
C      1  0.4409460000000  0.4961820000000  0.5710170000000 1.0
C      1  0.4712120000000  0.4862970000000  0.4907230000000 1.0
C      1  0.4472170000000  0.4351230000000  0.5191000000000 1.0
C      1  0.4699100000000  0.5065640000000  0.4632850000000 1.0
C      1  0.5615620000000  0.5859840000000  0.5100530000000 1.0
C      1  0.5282540000000  0.5928700000000  0.5478620000000 1.0
C      1  0.5140790000000  0.5679240000000  0.4462220000000 1.0
C      1  0.5269130000000  0.4375170000000  0.4401890000000 1.0
C      1  0.5940190000000  0.5238920000000  0.4494010000000 1.0
C      1  0.5008210000000  0.4318670000000  0.4444040000000 1.0
C      1  0.4954860000000  0.4180910000000  0.5421340000000 1.0
C      1  0.5417660000000  0.4653260000000  0.4529280000000 1.0
C      1  0.4594230000000  0.5584970000000  0.4467430000000 1.0
C      1  0.4979190000000  0.5925120000000  0.4946590000000 1.0
C      1  0.5392740000000  0.4426670000000  0.5038860000000 1.0
C      1  0.4862850000000  0.5339920000000  0.4735730000000 1.0
C      1  0.5324250000000  0.4649800000000  0.5805770000000 1.0
C      1  0.4455990000000  0.5714790000000  0.5118330000000 1.0
C      1  0.4469700000000  0.5564000000000  0.4748550000000 1.0
C      1  0.4273670000000  0.5188890000000  0.5573340000000 1.0
C      1  0.4993680000000  0.5005050000000  0.5512330000000 1.0
C      1  0.5216610000000  0.5254700000000  0.5572230000000 1.0
C      1  0.4886970000000  0.4510640000000  0.5470130000000 1.0
C      1  0.4967690000000  0.4418490000000  0.5056870000000 1.0
C      1  0.5695400000000  0.4881310000000  0.4361490000000 1.0
C      1  0.4551870000000  0.4468180000000  0.4453760000000 1.0
C      1  0.5096700000000  0.4668370000000  0.5992900000000 1.0
C      1  0.4793510000000  0.4681720000000  0.5183690000000 1.0
C      1  0.5448650000000  0.5570150000000  0.5076250000000 1.0
C      1  0.5192750000000  0.5812500000000  0.4723620000000 1.0
C      1  0.5603230000000  0.5354010000000  0.5239170000000 1.0
C      1  0.5370980000000  0.4961540000000  0.5124150000000 1.0
C      1  0.5244830000000  0.4750740000000  0.4086550000000 1.0
C      1  0.4831780000000  0.5159690000000  0.5022440000000 1.0
C      1  0.5176350000000  0.4685500000000  0.5084920000000 1.0
C      1  0.5306090000000  0.5538160000000  0.4795960000000 1.0
C      1  0.4781430000000  0.5310490000000  0.4147730000000 1.0
C      1  0.5266300000000  0.5072540000000  0.4756310000000 1.0
C      1  0.4451780000000  0.5136530000000  0.4434060000000 1.0
C      1  0.4346540000000  0.5247370000000  0.4803480000000 1.0
C      1  0.4663790000000  0.5180460000000  0.5653500000000 1.0
C      1  0.5421330000000  0.4304090000000  0.5346140000000 1.0
END
