TITL C-2847950-6905-724 -0.000159547177897865 125000 -196.099189084769 0 0 37 (C1) n - 1
REM
REM in /home/bkarasulu/work/CARBON/AIRSS/Generating-Clusters/AIREBO/with-SteepDescent/Only-C1/SD-CG-opt/Try1-1.4A-POS3A/HFTN-CG
REM
REM
REM
REM
REM
REM ./C.cell (11c1c37f851c82e70ff6c80c92926a4b)
REM
REM compiler GCC version 9.2.1 20190827 (Red Hat 9.2.1-1)
REM options -cpp -mtune=generic -march=x86-64 -g -O0 -fpre-include=/usr/include/finclude/math-vector-fortran.h
REM seed 1974846925 -216592872 -664228244 1792746876 -30429072 8021786 -178803352 1800977406 1222766203 209795483 -1236641691 1779451549 905098146 666838882 1900555447 1786680412 -2091516336 1837522147 -1653651703 1811086615 1717172194 1277270534 1883997938 952752182 -1258056666 -77090835 -255888116 1411552026 702239871 1829981355 741588180 -1337609542 2382827
REM
CELL 1.54180   50.00000   50.00000   50.00000   90.00000   90.00000   90.00000
LATT -1
SFAC C  
C      1  0.5259270000000  0.5526020000000  0.5333200000000 1.0
C      1  0.5713070000000  0.5329960000000  0.4673050000000 1.0
C      1  0.4377080000000  0.5104720000000  0.5026540000000 1.0
C      1  0.5412750000000  0.5469750000000  0.5049490000000 1.0
C      1  0.4980080000000  0.5289860000000  0.4767580000000 1.0
C      1  0.4552760000000  0.4847510000000  0.4969590000000 1.0
C      1  0.4947350000000  0.5492890000000  0.5219780000000 1.0
C      1  0.5304980000000  0.4406810000000  0.5066570000000 1.0
C      1  0.4888660000000  0.5515490000000  0.4547250000000 1.0
C      1  0.4758960000000  0.4988470000000  0.5383540000000 1.0
C      1  0.5300760000000  0.5052080000000  0.4782580000000 1.0
C      1  0.5200350000000  0.5033550000000  0.4256240000000 1.0
C      1  0.4914980000000  0.4428700000000  0.4812820000000 1.0
C      1  0.5344330000000  0.5380640000000  0.5567250000000 1.0
C      1  0.4824280000000  0.4511260000000  0.5464880000000 1.0
C      1  0.5061410000000  0.5000800000000  0.5371570000000 1.0
C      1  0.5369160000000  0.4743260000000  0.4660720000000 1.0
C      1  0.4742920000000  0.4551310000000  0.4553600000000 1.0
C      1  0.5494960000000  0.5287900000000  0.4832770000000 1.0
C      1  0.4747650000000  0.5062870000000  0.4537860000000 1.0
C      1  0.4929600000000  0.4719680000000  0.4985420000000 1.0
C      1  0.5149400000000  0.4820830000000  0.5619360000000 1.0
C      1  0.4628900000000  0.5218810000000  0.5424700000000 1.0
C      1  0.4674210000000  0.5416670000000  0.5224160000000 1.0
C      1  0.5078250000000  0.4982610000000  0.4532950000000 1.0
C      1  0.5051420000000  0.4661870000000  0.4609690000000 1.0
C      1  0.5122060000000  0.4256050000000  0.4964010000000 1.0
C      1  0.5244470000000  0.5125540000000  0.5613540000000 1.0
C      1  0.5179750000000  0.5010410000000  0.5098320000000 1.0
C      1  0.4835470000000  0.4993050000000  0.4849070000000 1.0
C      1  0.5264150000000  0.4707560000000  0.4979830000000 1.0
C      1  0.5127100000000  0.5320320000000  0.5020610000000 1.0
C      1  0.4521290000000  0.5340080000000  0.4989530000000 1.0
C      1  0.4653190000000  0.5338580000000  0.4720280000000 1.0
C      1  0.4571000000000  0.4788750000000  0.4634370000000 1.0
C      1  0.5053530000000  0.4560980000000  0.5621650000000 1.0
C      1  0.4720450000000  0.4714360000000  0.5235620000000 1.0
END
