TITL C-2848494-1720-470 -0.00142793199679868 125000 -782.924194509162 0 0 147 (C1) n - 1
REM
REM in /home/bkarasulu/work/CARBON/AIRSS/Generating-Clusters/AIREBO/with-SteepDescent/Only-C1/SD-CG-opt/Try1-1.4A-POS3A/HFTN-CG
REM
REM
REM
REM
REM
REM ./C.cell (11c1c37f851c82e70ff6c80c92926a4b)
REM
REM compiler GCC version 9.2.1 20190827 (Red Hat 9.2.1-1)
REM options -cpp -mtune=generic -march=x86-64 -g -O0 -fpre-include=/usr/include/finclude/math-vector-fortran.h
REM seed -1577568226 -1552912717 406943563 843859101 1236676943 -1405307827 -489284706 2027846851 1964483544 225691464 -1304756645 -1941923039 -1771543468 1186598564 1840925228 -1828207808 1195032598 141032028 669544306 1661389482 -334508922 -489455084 1094340352 -679697411 -260480835 -81089354 -1458637618 542996125 -650039987 -495340412 -597653124 1109451936 1158191471
REM
CELL 1.54180   50.00000   50.00000   50.00000   90.00000   90.00000   90.00000
LATT -1
SFAC C  
C      1  0.4276660000000  0.5335370000000  0.5631070000000 1.0
C      1  0.3960170000000  0.5177320000000  0.4964600000000 1.0
C      1  0.4076500000000  0.4868440000000  0.4341110000000 1.0
C      1  0.4941650000000  0.4309400000000  0.4575860000000 1.0
C      1  0.5642120000000  0.5018910000000  0.5855900000000 1.0
C      1  0.5501940000000  0.4079170000000  0.4442160000000 1.0
C      1  0.4648930000000  0.5966490000000  0.4830370000000 1.0
C      1  0.4274840000000  0.5615070000000  0.4795620000000 1.0
C      1  0.5387600000000  0.5120320000000  0.4075350000000 1.0
C      1  0.4995440000000  0.5221430000000  0.4754110000000 1.0
C      1  0.4778930000000  0.4687480000000  0.4869380000000 1.0
C      1  0.4458500000000  0.5260660000000  0.5093110000000 1.0
C      1  0.5213620000000  0.5510310000000  0.5829350000000 1.0
C      1  0.5339930000000  0.5558610000000  0.4112860000000 1.0
C      1  0.4763870000000  0.5354750000000  0.6046990000000 1.0
C      1  0.4537330000000  0.4572280000000  0.5165280000000 1.0
C      1  0.5322630000000  0.4868230000000  0.4776900000000 1.0
C      1  0.5677360000000  0.5334300000000  0.5779420000000 1.0
C      1  0.4474990000000  0.5273240000000  0.4754610000000 1.0
C      1  0.5644540000000  0.4735500000000  0.5084240000000 1.0
C      1  0.4150550000000  0.5340900000000  0.4831030000000 1.0
C      1  0.5363860000000  0.4960810000000  0.5475410000000 1.0
C      1  0.4795180000000  0.5307930000000  0.5089130000000 1.0
C      1  0.5779210000000  0.5708810000000  0.4406240000000 1.0
C      1  0.4479680000000  0.4549620000000  0.5664660000000 1.0
C      1  0.6120400000000  0.5214170000000  0.4886440000000 1.0
C      1  0.4398560000000  0.4956380000000  0.4952930000000 1.0
C      1  0.5895260000000  0.5111450000000  0.4768180000000 1.0
C      1  0.5605960000000  0.5411380000000  0.5105240000000 1.0
C      1  0.4240260000000  0.4493420000000  0.5549830000000 1.0
C      1  0.4313760000000  0.5148050000000  0.4496640000000 1.0
C      1  0.5966830000000  0.4530880000000  0.5198230000000 1.0
C      1  0.4593380000000  0.5231520000000  0.4228530000000 1.0
C      1  0.5558200000000  0.5263670000000  0.4476360000000 1.0
C      1  0.3928350000000  0.5188910000000  0.5253690000000 1.0
C      1  0.5552530000000  0.4696780000000  0.5790570000000 1.0
C      1  0.4416070000000  0.5079610000000  0.5455690000000 1.0
C      1  0.4451090000000  0.5796110000000  0.5288090000000 1.0
C      1  0.4936820000000  0.3970900000000  0.5564150000000 1.0
C      1  0.4634830000000  0.5569740000000  0.5581930000000 1.0
C      1  0.5101830000000  0.5094160000000  0.3955630000000 1.0
C      1  0.5740700000000  0.4869490000000  0.4337860000000 1.0
C      1  0.5042570000000  0.4794790000000  0.3941220000000 1.0
C      1  0.5747090000000  0.4090730000000  0.4639960000000 1.0
C      1  0.5407100000000  0.5652490000000  0.4856840000000 1.0
C      1  0.4076790000000  0.5047700000000  0.5440400000000 1.0
C      1  0.4598210000000  0.5552070000000  0.4353880000000 1.0
C      1  0.5848220000000  0.4777210000000  0.5331160000000 1.0
C      1  0.4641340000000  0.4900510000000  0.5178550000000 1.0
C      1  0.5318040000000  0.5692040000000  0.4570020000000 1.0
C      1  0.4054290000000  0.4812800000000  0.4600520000000 1.0
C      1  0.5305280000000  0.5053030000000  0.4556450000000 1.0
C      1  0.4238200000000  0.4247720000000  0.5417620000000 1.0
C      1  0.5891540000000  0.5724660000000  0.4667460000000 1.0
C      1  0.5494130000000  0.4983010000000  0.5014870000000 1.0
C      1  0.4815160000000  0.4720640000000  0.4168090000000 1.0
C      1  0.4421040000000  0.5145020000000  0.5849450000000 1.0
C      1  0.5180240000000  0.4379870000000  0.4962820000000 1.0
C      1  0.4637870000000  0.4303580000000  0.4468250000000 1.0
C      1  0.5582270000000  0.5236120000000  0.4814610000000 1.0
C      1  0.4918310000000  0.4445870000000  0.5893110000000 1.0
C      1  0.5262520000000  0.4976270000000  0.5970660000000 1.0
C      1  0.5753940000000  0.4292370000000  0.4388260000000 1.0
C      1  0.4853190000000  0.5004230000000  0.4947630000000 1.0
C      1  0.4790640000000  0.4750970000000  0.5811750000000 1.0
C      1  0.4939690000000  0.5760350000000  0.5243070000000 1.0
C      1  0.6138820000000  0.5821970000000  0.4710230000000 1.0
C      1  0.4865290000000  0.4360390000000  0.4903400000000 1.0
C      1  0.5809130000000  0.5421470000000  0.5507970000000 1.0
C      1  0.4274680000000  0.4226250000000  0.5099670000000 1.0
C      1  0.5562620000000  0.5221940000000  0.5385240000000 1.0
C      1  0.6037560000000  0.4574230000000  0.4902130000000 1.0
C      1  0.5097330000000  0.4554460000000  0.5646450000000 1.0
C      1  0.4888700000000  0.5814110000000  0.4704480000000 1.0
C      1  0.4627990000000  0.5891510000000  0.5625990000000 1.0
C      1  0.4345010000000  0.4792540000000  0.5305800000000 1.0
C      1  0.4897020000000  0.4810680000000  0.4456820000000 1.0
C      1  0.4347120000000  0.4340600000000  0.4858560000000 1.0
C      1  0.5431220000000  0.5694950000000  0.5174010000000 1.0
C      1  0.4785630000000  0.4371990000000  0.5247220000000 1.0
C      1  0.5234430000000  0.4159040000000  0.5187200000000 1.0
C      1  0.5739530000000  0.4351360000000  0.5148170000000 1.0
C      1  0.5077650000000  0.5398960000000  0.4109360000000 1.0
C      1  0.4911090000000  0.5856370000000  0.5554020000000 1.0
C      1  0.4056760000000  0.4709040000000  0.5415360000000 1.0
C      1  0.5254480000000  0.4665960000000  0.5041720000000 1.0
C      1  0.4466710000000  0.5661180000000  0.5013190000000 1.0
C      1  0.5731220000000  0.5620410000000  0.4865440000000 1.0
C      1  0.4904610000000  0.5412290000000  0.4401970000000 1.0
C      1  0.5129290000000  0.4063600000000  0.4868660000000 1.0
C      1  0.4357220000000  0.4987610000000  0.4199970000000 1.0
C      1  0.4759620000000  0.5029490000000  0.5466030000000 1.0
C      1  0.4268690000000  0.4670370000000  0.4822760000000 1.0
C      1  0.4550110000000  0.4193450000000  0.4723370000000 1.0
C      1  0.5213290000000  0.5055220000000  0.5121890000000 1.0
C      1  0.5094040000000  0.4295210000000  0.4272180000000 1.0
C      1  0.4787970000000  0.4031210000000  0.4867000000000 1.0
C      1  0.5506800000000  0.5559020000000  0.4379110000000 1.0
C      1  0.3947450000000  0.4902500000000  0.4871560000000 1.0
C      1  0.5652850000000  0.5915280000000  0.5309100000000 1.0
C      1  0.5908050000000  0.4877820000000  0.4615110000000 1.0
C      1  0.4626150000000  0.5013750000000  0.4490440000000 1.0
C      1  0.5685430000000  0.4879430000000  0.5550300000000 1.0
C      1  0.4549120000000  0.4940270000000  0.5890850000000 1.0
C      1  0.4789320000000  0.5617430000000  0.4963470000000 1.0
C      1  0.5418730000000  0.5458870000000  0.5582140000000 1.0
C      1  0.4783740000000  0.5357430000000  0.5404630000000 1.0
C      1  0.5741110000000  0.4223580000000  0.4881350000000 1.0
C      1  0.4882880000000  0.5446820000000  0.5781450000000 1.0
C      1  0.4938990000000  0.5050690000000  0.5749660000000 1.0
C      1  0.5463810000000  0.4483690000000  0.5224030000000 1.0
C      1  0.4403590000000  0.5466000000000  0.5355140000000 1.0
C      1  0.5705880000000  0.5171790000000  0.4183420000000 1.0
C      1  0.5080020000000  0.5793840000000  0.5755960000000 1.0
C      1  0.5053100000000  0.4907150000000  0.5345000000000 1.0
C      1  0.4981290000000  0.4129910000000  0.5364490000000 1.0
C      1  0.5219600000000  0.4116070000000  0.4543160000000 1.0
C      1  0.4954100000000  0.4654020000000  0.5158990000000 1.0
C      1  0.4786590000000  0.4556200000000  0.5533070000000 1.0
C      1  0.5047270000000  0.5689800000000  0.4523230000000 1.0
C      1  0.5060720000000  0.5288890000000  0.5538430000000 1.0
C      1  0.4803100000000  0.5238480000000  0.4016000000000 1.0
C      1  0.5268830000000  0.5367400000000  0.4828550000000 1.0
C      1  0.4539880000000  0.4551300000000  0.4402860000000 1.0
C      1  0.4035470000000  0.4695500000000  0.5076140000000 1.0
C      1  0.5394730000000  0.5245140000000  0.5930690000000 1.0
C      1  0.5741860000000  0.5661020000000  0.5415310000000 1.0
C      1  0.5806740000000  0.4578590000000  0.4481380000000 1.0
C      1  0.4300090000000  0.5442560000000  0.4436080000000 1.0
C      1  0.5470700000000  0.4443520000000  0.5735480000000 1.0
C      1  0.5712210000000  0.4553760000000  0.4804940000000 1.0
C      1  0.4006640000000  0.5442260000000  0.5705910000000 1.0
C      1  0.4553490000000  0.4734520000000  0.4648330000000 1.0
C      1  0.4739470000000  0.5409180000000  0.4699280000000 1.0
C      1  0.4520610000000  0.4164050000000  0.5293610000000 1.0
C      1  0.5070600000000  0.4518350000000  0.4118740000000 1.0
C      1  0.5432500000000  0.4925110000000  0.4306470000000 1.0
C      1  0.5107930000000  0.4598830000000  0.4574120000000 1.0
C      1  0.5123620000000  0.5338130000000  0.5112480000000 1.0
C      1  0.4506790000000  0.4717610000000  0.4156260000000 1.0
C      1  0.5186440000000  0.4835470000000  0.5713340000000 1.0
C      1  0.4690600000000  0.5965730000000  0.5131800000000 1.0
C      1  0.5182890000000  0.5547180000000  0.5353410000000 1.0
C      1  0.5298800000000  0.4353070000000  0.5460560000000 1.0
C      1  0.4505660000000  0.5737070000000  0.4623970000000 1.0
C      1  0.5395210000000  0.4574310000000  0.4681740000000 1.0
C      1  0.5015160000000  0.5097730000000  0.4470760000000 1.0
END
