TITL C-2847950-6905-161 0.0412472770545553 125000 -191.64996662115 0 0 35 (C1) n - 1
REM
REM in /home/bkarasulu/work/CARBON/AIRSS/Generating-Clusters/AIREBO/with-SteepDescent/Only-C1/SD-CG-opt/Try1-1.4A-POS3A/HFTN-CG
REM
REM
REM
REM
REM
REM ./C.cell (11c1c37f851c82e70ff6c80c92926a4b)
REM
REM compiler GCC version 9.2.1 20190827 (Red Hat 9.2.1-1)
REM options -cpp -mtune=generic -march=x86-64 -g -O0 -fpre-include=/usr/include/finclude/math-vector-fortran.h
REM seed 84250201 -35537870 318191140 500579853 -1424646880 879487247 -1310585192 -1334628995 -1869307630 -1059056767 -288096839 1019337001 -1684799920 -533933669 1348232345 -315144302 -1908667910 509984466 -1961110067 270707182 807608553 -1604142174 450054485 -1822792131 -1751025190 1746377716 1204371065 89872767 105781348 1600910499 -1022063815 -1147984743 481618558
REM
CELL 1.54180   50.00000   50.00000   50.00000   90.00000   90.00000   90.00000
LATT -1
SFAC C  
C      1  0.5302980000000  0.4677700000000  0.4422840000000 1.0
C      1  0.4629500000000  0.5299310000000  0.5761270000000 1.0
C      1  0.5173890000000  0.5559460000000  0.4679700000000 1.0
C      1  0.4616470000000  0.5078160000000  0.5051210000000 1.0
C      1  0.5336290000000  0.4191220000000  0.5074370000000 1.0
C      1  0.5328630000000  0.5108010000000  0.4741980000000 1.0
C      1  0.4821290000000  0.4901460000000  0.5595860000000 1.0
C      1  0.5403010000000  0.5139810000000  0.5013050000000 1.0
C      1  0.4976270000000  0.4673210000000  0.5618870000000 1.0
C      1  0.4417390000000  0.5471660000000  0.4671800000000 1.0
C      1  0.5143540000000  0.4472180000000  0.5636370000000 1.0
C      1  0.4556400000000  0.5335140000000  0.5268140000000 1.0
C      1  0.4516440000000  0.5360550000000  0.5521890000000 1.0
C      1  0.5563930000000  0.4962120000000  0.5150060000000 1.0
C      1  0.5277430000000  0.4573570000000  0.4715120000000 1.0
C      1  0.4713670000000  0.4977870000000  0.5349980000000 1.0
C      1  0.4881000000000  0.5481750000000  0.4812130000000 1.0
C      1  0.4597130000000  0.5397580000000  0.4951070000000 1.0
C      1  0.5143730000000  0.5557530000000  0.4995000000000 1.0
C      1  0.4752940000000  0.5054220000000  0.5822290000000 1.0
C      1  0.5848850000000  0.4612260000000  0.5423960000000 1.0
C      1  0.4746560000000  0.4779570000000  0.4337530000000 1.0
C      1  0.4743490000000  0.5162100000000  0.4439410000000 1.0
C      1  0.5164220000000  0.4879140000000  0.4648250000000 1.0
C      1  0.5697030000000  0.4778450000000  0.5289670000000 1.0
C      1  0.5295300000000  0.4376200000000  0.4893260000000 1.0
C      1  0.5389530000000  0.4647070000000  0.4173430000000 1.0
C      1  0.5330430000000  0.5344470000000  0.4584470000000 1.0
C      1  0.4866360000000  0.4910480000000  0.4626450000000 1.0
C      1  0.4610730000000  0.4612290000000  0.4914570000000 1.0
C      1  0.4663360000000  0.5021100000000  0.4174810000000 1.0
C      1  0.4689440000000  0.5396500000000  0.4565180000000 1.0
C      1  0.4695230000000  0.4856510000000  0.4867370000000 1.0
C      1  0.4800580000000  0.4972660000000  0.6074320000000 1.0
C      1  0.5306960000000  0.5378720000000  0.5134330000000 1.0
END
