TITL C-2848500-1637-360 -0.000315800686038262 125000 -848.724722219953 0 0 154 (C1) n - 1
REM
REM in /home/bkarasulu/work/CARBON/AIRSS/Generating-Clusters/AIREBO/with-SteepDescent/Only-C1/SD-CG-opt/Try1-1.4A-POS3A/HFTN-CG
REM
REM
REM
REM
REM
REM ./C.cell (11c1c37f851c82e70ff6c80c92926a4b)
REM
REM compiler GCC version 9.2.1 20190827 (Red Hat 9.2.1-1)
REM options -cpp -mtune=generic -march=x86-64 -g -O0 -fpre-include=/usr/include/finclude/math-vector-fortran.h
REM seed -1501602221 -1681904682 -1100073867 -86657929 1010459341 -1072027344 -1118027550 -128112811 808881336 481341025 -1038222311 2030890779 -821496831 744946825 1127434601 -1541285749 -1412617276 1642913500 1639917918 -124081490 1271729081 -913483534 -1257251764 1410038952 -229547260 1474060940 -1759057424 -2058336830 -163044479 -906062367 2005560770 338719325 921997286
REM
CELL 1.54180   50.00000   50.00000   50.00000   90.00000   90.00000   90.00000
LATT -1
SFAC C  
C      1  0.4165970000000  0.5450460000000  0.4515850000000 1.0
C      1  0.4432690000000  0.5091560000000  0.4857990000000 1.0
C      1  0.4546930000000  0.5777880000000  0.4210170000000 1.0
C      1  0.4413180000000  0.5877840000000  0.4739810000000 1.0
C      1  0.5557230000000  0.5493250000000  0.4299580000000 1.0
C      1  0.5102560000000  0.4168790000000  0.4786210000000 1.0
C      1  0.4133570000000  0.5420370000000  0.5307750000000 1.0
C      1  0.4804410000000  0.3928710000000  0.4478920000000 1.0
C      1  0.5680610000000  0.6087520000000  0.5166970000000 1.0
C      1  0.6102600000000  0.5545330000000  0.5229890000000 1.0
C      1  0.4774010000000  0.4045060000000  0.5083620000000 1.0
C      1  0.4908930000000  0.5546740000000  0.5375480000000 1.0
C      1  0.5595280000000  0.4879220000000  0.5326410000000 1.0
C      1  0.4748640000000  0.5746290000000  0.5163790000000 1.0
C      1  0.4988900000000  0.4228030000000  0.5519520000000 1.0
C      1  0.4166190000000  0.4546230000000  0.4329790000000 1.0
C      1  0.4123620000000  0.5117950000000  0.4961150000000 1.0
C      1  0.4885860000000  0.4307210000000  0.4212860000000 1.0
C      1  0.6054970000000  0.4733930000000  0.5300520000000 1.0
C      1  0.5687560000000  0.4632110000000  0.5187210000000 1.0
C      1  0.5528500000000  0.4679500000000  0.4099440000000 1.0
C      1  0.4006360000000  0.4744100000000  0.4896500000000 1.0
C      1  0.5206400000000  0.5476260000000  0.5524590000000 1.0
C      1  0.5439750000000  0.4479600000000  0.4320700000000 1.0
C      1  0.5265520000000  0.4683400000000  0.6079230000000 1.0
C      1  0.4757300000000  0.5263020000000  0.5306350000000 1.0
C      1  0.5779240000000  0.5443890000000  0.4454450000000 1.0
C      1  0.4481810000000  0.4745190000000  0.5160140000000 1.0
C      1  0.5967500000000  0.4504690000000  0.5441940000000 1.0
C      1  0.5061900000000  0.4000260000000  0.5068200000000 1.0
C      1  0.5979770000000  0.4915880000000  0.4756930000000 1.0
C      1  0.5430480000000  0.4442440000000  0.6253390000000 1.0
C      1  0.4072880000000  0.4474800000000  0.5555480000000 1.0
C      1  0.5082780000000  0.5682910000000  0.4702070000000 1.0
C      1  0.5143480000000  0.5280860000000  0.6086490000000 1.0
C      1  0.5258470000000  0.5496460000000  0.5189050000000 1.0
C      1  0.3966510000000  0.4916770000000  0.5363500000000 1.0
C      1  0.4416220000000  0.5572260000000  0.4385390000000 1.0
C      1  0.5205720000000  0.4076300000000  0.5305910000000 1.0
C      1  0.5038650000000  0.3906770000000  0.4622200000000 1.0
C      1  0.4918120000000  0.4795900000000  0.5904920000000 1.0
C      1  0.5826750000000  0.5611490000000  0.4707360000000 1.0
C      1  0.4130460000000  0.5165310000000  0.4433460000000 1.0
C      1  0.5251070000000  0.5904520000000  0.5928460000000 1.0
C      1  0.4616380000000  0.4821970000000  0.5848320000000 1.0
C      1  0.4865030000000  0.4737820000000  0.5376670000000 1.0
C      1  0.4877740000000  0.4763890000000  0.5049480000000 1.0
C      1  0.6025300000000  0.5483790000000  0.4913220000000 1.0
C      1  0.4870630000000  0.4230040000000  0.3950710000000 1.0
C      1  0.5750410000000  0.5361470000000  0.5649950000000 1.0
C      1  0.5246550000000  0.5838490000000  0.4508150000000 1.0
C      1  0.5418730000000  0.5740960000000  0.4312100000000 1.0
C      1  0.5329080000000  0.4798560000000  0.5034900000000 1.0
C      1  0.5023600000000  0.5523080000000  0.4407690000000 1.0
C      1  0.5532940000000  0.5470870000000  0.4767890000000 1.0
C      1  0.5016770000000  0.4391420000000  0.5012120000000 1.0
C      1  0.4551000000000  0.5016840000000  0.5353820000000 1.0
C      1  0.4121100000000  0.4789400000000  0.5573040000000 1.0
C      1  0.5736590000000  0.5153520000000  0.5203410000000 1.0
C      1  0.4786390000000  0.4814730000000  0.3991060000000 1.0
C      1  0.4839490000000  0.4798220000000  0.3732700000000 1.0
C      1  0.4552540000000  0.5377150000000  0.4812340000000 1.0
C      1  0.4281270000000  0.4598960000000  0.4110680000000 1.0
C      1  0.4607520000000  0.4761670000000  0.5538600000000 1.0
C      1  0.4734910000000  0.4195580000000  0.4418380000000 1.0
C      1  0.4579780000000  0.4677700000000  0.4546240000000 1.0
C      1  0.5131110000000  0.5161870000000  0.4726310000000 1.0
C      1  0.4337890000000  0.4787400000000  0.4900970000000 1.0
C      1  0.5339140000000  0.4488700000000  0.4753810000000 1.0
C      1  0.5944960000000  0.4690910000000  0.5005950000000 1.0
C      1  0.5285000000000  0.5371960000000  0.4564110000000 1.0
C      1  0.4972930000000  0.5088870000000  0.5018310000000 1.0
C      1  0.6125630000000  0.5218610000000  0.4790490000000 1.0
C      1  0.4085870000000  0.4971740000000  0.4656520000000 1.0
C      1  0.4525560000000  0.4365880000000  0.5796630000000 1.0
C      1  0.3960170000000  0.5640610000000  0.4713280000000 1.0
C      1  0.5784850000000  0.5451070000000  0.5151360000000 1.0
C      1  0.4043400000000  0.5168920000000  0.5221970000000 1.0
C      1  0.4950540000000  0.5528390000000  0.3893090000000 1.0
C      1  0.5062750000000  0.5839320000000  0.5455340000000 1.0
C      1  0.4715300000000  0.5022450000000  0.4720940000000 1.0
C      1  0.4640040000000  0.4940540000000  0.4337440000000 1.0
C      1  0.5000990000000  0.5031100000000  0.5355880000000 1.0
C      1  0.4248580000000  0.5068780000000  0.4201850000000 1.0
C      1  0.5594090000000  0.5150840000000  0.4688690000000 1.0
C      1  0.5063990000000  0.4464780000000  0.4622950000000 1.0
C      1  0.4830790000000  0.5174710000000  0.4468350000000 1.0
C      1  0.4765390000000  0.4243170000000  0.5775490000000 1.0
C      1  0.5292980000000  0.4903260000000  0.5341910000000 1.0
C      1  0.5042520000000  0.6109490000000  0.5056840000000 1.0
C      1  0.5219280000000  0.4533360000000  0.5186490000000 1.0
C      1  0.4767240000000  0.5738230000000  0.4467670000000 1.0
C      1  0.5066830000000  0.4220330000000  0.5868460000000 1.0
C      1  0.5001150000000  0.5598090000000  0.4990430000000 1.0
C      1  0.4719550000000  0.4476350000000  0.4984380000000 1.0
C      1  0.5522710000000  0.5073730000000  0.4985960000000 1.0
C      1  0.4831250000000  0.5955330000000  0.4940560000000 1.0
C      1  0.5212840000000  0.4347150000000  0.6050060000000 1.0
C      1  0.5144990000000  0.4618720000000  0.5767820000000 1.0
C      1  0.5494980000000  0.4405820000000  0.5033570000000 1.0
C      1  0.5368540000000  0.5237260000000  0.4263250000000 1.0
C      1  0.4496580000000  0.4413400000000  0.5233220000000 1.0
C      1  0.4407880000000  0.4518520000000  0.5516510000000 1.0
C      1  0.4477650000000  0.5242550000000  0.5597340000000 1.0
C      1  0.4319060000000  0.4646750000000  0.5818680000000 1.0
C      1  0.5134500000000  0.5713790000000  0.5763120000000 1.0
C      1  0.4873410000000  0.4721560000000  0.4712090000000 1.0
C      1  0.5470500000000  0.4166900000000  0.5275170000000 1.0
C      1  0.4547660000000  0.5113940000000  0.5889810000000 1.0
C      1  0.5494290000000  0.5009880000000  0.4098490000000 1.0
C      1  0.5108980000000  0.5007610000000  0.5799250000000 1.0
C      1  0.4723520000000  0.4189560000000  0.5323380000000 1.0
C      1  0.5103150000000  0.4494340000000  0.4310520000000 1.0
C      1  0.4985270000000  0.5468330000000  0.5931910000000 1.0
C      1  0.4780700000000  0.5369110000000  0.5007290000000 1.0
C      1  0.5708840000000  0.4343180000000  0.4776530000000 1.0
C      1  0.4257610000000  0.4684600000000  0.4591490000000 1.0
C      1  0.4751000000000  0.5342900000000  0.5755620000000 1.0
C      1  0.5481310000000  0.5344360000000  0.5675340000000 1.0
C      1  0.4659840000000  0.5422240000000  0.4532820000000 1.0
C      1  0.5708830000000  0.4345030000000  0.5365030000000 1.0
C      1  0.5474810000000  0.5906420000000  0.5180210000000 1.0
C      1  0.5271580000000  0.4820850000000  0.3984000000000 1.0
C      1  0.5985740000000  0.5010550000000  0.5382920000000 1.0
C      1  0.4458950000000  0.5756170000000  0.5247710000000 1.0
C      1  0.6025840000000  0.5345200000000  0.5451230000000 1.0
C      1  0.4686910000000  0.5183900000000  0.4104070000000 1.0
C      1  0.4877550000000  0.5398420000000  0.4126820000000 1.0
C      1  0.4248660000000  0.5606290000000  0.5118010000000 1.0
C      1  0.5135390000000  0.5034680000000  0.4410970000000 1.0
C      1  0.4403270000000  0.5721810000000  0.5531460000000 1.0
C      1  0.5208280000000  0.5983950000000  0.5258000000000 1.0
C      1  0.4284260000000  0.5456570000000  0.5547680000000 1.0
C      1  0.5542340000000  0.4649050000000  0.4580990000000 1.0
C      1  0.5003510000000  0.5221480000000  0.5618790000000 1.0
C      1  0.4469530000000  0.4849760000000  0.4074410000000 1.0
C      1  0.5973970000000  0.5124060000000  0.5703210000000 1.0
C      1  0.4322400000000  0.4200160000000  0.5033720000000 1.0
C      1  0.5085760000000  0.4537180000000  0.5482920000000 1.0
C      1  0.4567090000000  0.4121910000000  0.4889770000000 1.0
C      1  0.5272330000000  0.5214260000000  0.5094470000000 1.0
C      1  0.5180240000000  0.4854650000000  0.4769230000000 1.0
C      1  0.5384730000000  0.5161220000000  0.5888040000000 1.0
C      1  0.5520370000000  0.5617760000000  0.5074740000000 1.0
C      1  0.3877750000000  0.4746700000000  0.5137580000000 1.0
C      1  0.4684890000000  0.5906430000000  0.4706040000000 1.0
C      1  0.5038440000000  0.4790350000000  0.4193760000000 1.0
C      1  0.4650430000000  0.4368010000000  0.4668420000000 1.0
C      1  0.5286170000000  0.4977040000000  0.6149450000000 1.0
C      1  0.5890070000000  0.5162430000000  0.4556390000000 1.0
C      1  0.4282150000000  0.5583230000000  0.4806700000000 1.0
C      1  0.5591520000000  0.4256040000000  0.4527760000000 1.0
C      1  0.5423580000000  0.4930720000000  0.4562780000000 1.0
C      1  0.5853990000000  0.4623350000000  0.4695910000000 1.0
END
