TITL C-2847952-8118-99 -2079.43075483311 125000 -822.775928728757 0 0 147 (C1) n - 1
REM
REM in /home/bkarasulu/work/CARBON/AIRSS/Generating-Clusters/AIREBO/with-SteepDescent/Only-C1/SD-CG-opt/Try1-1.4A-POS3A/HFTN-CG
REM
REM
REM
REM
REM
REM ./C.cell (11c1c37f851c82e70ff6c80c92926a4b)
REM
REM compiler GCC version 9.2.1 20190827 (Red Hat 9.2.1-1)
REM options -cpp -mtune=generic -march=x86-64 -g -O0 -fpre-include=/usr/include/finclude/math-vector-fortran.h
REM seed 320146382 821139316 652651618 -301786508 -1331888075 1992567789 966059789 1974190964 1820680004 -1432234541 -1208212998 -55452936 -1821119163 452924297 928464051 365138982 -217490916 -199039191 -1339142760 -803061158 -1729593708 1809326275 -825632754 1863637524 665137596 -1846549700 146603437 750952526 1561067704 -940607230 1340541472 1230098560 450587262
REM
CELL 1.54180   50.00000   50.00000   50.00000   90.00000   90.00000   90.00000
LATT -1
SFAC C  
C      1  0.5718840000000  0.5443430000000  0.4511390000000 1.0
C      1  0.4927320000000  0.5114340000000  0.5235720000000 1.0
C      1  0.4681080000000  0.4136880000000  0.4534650000000 1.0
C      1  0.5603410000000  0.5003550000000  0.5701490000000 1.0
C      1  0.5591160000000  0.4910860000000  0.5234760000000 1.0
C      1  0.4928600000000  0.4599220000000  0.4128270000000 1.0
C      1  0.4547240000000  0.5486760000000  0.4898290000000 1.0
C      1  0.5649560000000  0.4358880000000  0.4740090000000 1.0
C      1  0.5297440000000  0.5932070000000  0.4929110000000 1.0
C      1  0.5300610000000  0.5770770000000  0.4491010000000 1.0
C      1  0.4752850000000  0.4758690000000  0.4449580000000 1.0
C      1  0.5334940000000  0.5330680000000  0.5465580000000 1.0
C      1  0.5605470000000  0.4617140000000  0.4570710000000 1.0
C      1  0.5101800000000  0.4348590000000  0.5250000000000 1.0
C      1  0.4831670000000  0.5652520000000  0.4922700000000 1.0
C      1  0.4919260000000  0.5670100000000  0.5628310000000 1.0
C      1  0.4443700000000  0.4897970000000  0.5526780000000 1.0
C      1  0.5186130000000  0.5684630000000  0.4252780000000 1.0
C      1  0.4806510000000  0.4899710000000  0.4082860000000 1.0
C      1  0.4821260000000  0.4618420000000  0.5898050000000 1.0
C      1  0.5365010000000  0.5476690000000  0.4896130000000 1.0
C      1  0.5012650000000  0.5593480000000  0.5157330000000 1.0
C      1  0.5155620000000  0.5127540000000  0.4517870000000 1.0
C      1  0.5196190000000  0.5203640000000  0.4188510000000 1.0
C      1  0.4993890000000  0.4843630000000  0.4616280000000 1.0
C      1  0.5249980000000  0.5591820000000  0.5666160000000 1.0
C      1  0.4480020000000  0.5074210000000  0.4508690000000 1.0
C      1  0.5882300000000  0.5231260000000  0.4678520000000 1.0
C      1  0.5381370000000  0.3644080000000  0.5293400000000 1.0
C      1  0.4630490000000  0.5035640000000  0.5966440000000 1.0
C      1  0.4371090000000  0.4711840000000  0.4830880000000 1.0
C      1  0.5133340000000  0.4616990000000  0.5076050000000 1.0
C      1  0.4536330000000  0.4492690000000  0.5820170000000 1.0
C      1  0.4859960000000  0.4363970000000  0.5436570000000 1.0
C      1  0.5240500000000  0.5309290000000  0.5923120000000 1.0
C      1  0.6111470000000  0.4088520000000  0.4770780000000 1.0
C      1  0.4662750000000  0.4624060000000  0.5337010000000 1.0
C      1  0.4446830000000  0.5640990000000  0.5184660000000 1.0
C      1  0.3978660000000  0.5043860000000  0.4959310000000 1.0
C      1  0.4877400000000  0.5853020000000  0.4733560000000 1.0
C      1  0.4308290000000  0.5002090000000  0.4741140000000 1.0
C      1  0.4867730000000  0.4732070000000  0.5586340000000 1.0
C      1  0.5213940000000  0.4719520000000  0.4237490000000 1.0
C      1  0.3885560000000  0.4864670000000  0.5415120000000 1.0
C      1  0.5672510000000  0.5301410000000  0.4236270000000 1.0
C      1  0.4558100000000  0.4279330000000  0.4966210000000 1.0
C      1  0.4435280000000  0.5691340000000  0.4650790000000 1.0
C      1  0.4886490000000  0.4774410000000  0.4903090000000 1.0
C      1  0.4985480000000  0.4362090000000  0.5752890000000 1.0
C      1  0.5267770000000  0.4652830000000  0.4551530000000 1.0
C      1  0.5584170000000  0.4574950000000  0.4253260000000 1.0
C      1  0.4936760000000  0.5237810000000  0.4942200000000 1.0
C      1  0.5216040000000  0.3950330000000  0.4959500000000 1.0
C      1  0.5553450000000  0.5669160000000  0.5541010000000 1.0
C      1  0.4002890000000  0.5118150000000  0.4659160000000 1.0
C      1  0.4232530000000  0.5069480000000  0.5679680000000 1.0
C      1  0.5260450000000  0.5389420000000  0.5182200000000 1.0
C      1  0.3999420000000  0.4638240000000  0.5229570000000 1.0
C      1  0.5318250000000  0.5490190000000  0.4115750000000 1.0
C      1  0.5972780000000  0.4496340000000  0.5091040000000 1.0
C      1  0.5376590000000  0.4300950000000  0.5054420000000 1.0
C      1  0.4017630000000  0.5378210000000  0.5426340000000 1.0
C      1  0.5642220000000  0.5191800000000  0.5420980000000 1.0
C      1  0.5157380000000  0.5918330000000  0.4685060000000 1.0
C      1  0.5563330000000  0.5741170000000  0.4975650000000 1.0
C      1  0.4310380000000  0.5504450000000  0.4429460000000 1.0
C      1  0.4372540000000  0.5079400000000  0.4202440000000 1.0
C      1  0.5113060000000  0.4334830000000  0.4215260000000 1.0
C      1  0.5391250000000  0.4149320000000  0.4750280000000 1.0
C      1  0.6037350000000  0.4734710000000  0.5325390000000 1.0
C      1  0.5936460000000  0.5015730000000  0.5063550000000 1.0
C      1  0.5492730000000  0.5115820000000  0.4148450000000 1.0
C      1  0.4921550000000  0.5406140000000  0.5413970000000 1.0
C      1  0.4769810000000  0.5070230000000  0.4375000000000 1.0
C      1  0.5188630000000  0.4239750000000  0.4524520000000 1.0
C      1  0.5951300000000  0.4276070000000  0.4846760000000 1.0
C      1  0.5319550000000  0.4934490000000  0.5527010000000 1.0
C      1  0.4895180000000  0.5344480000000  0.4490900000000 1.0
C      1  0.4898470000000  0.5608390000000  0.4276440000000 1.0
C      1  0.5432950000000  0.4362330000000  0.4161230000000 1.0
C      1  0.5010530000000  0.4151210000000  0.4870670000000 1.0
C      1  0.4465110000000  0.5361970000000  0.4231920000000 1.0
C      1  0.4634010000000  0.4579190000000  0.5000980000000 1.0
C      1  0.5747090000000  0.5369370000000  0.5150500000000 1.0
C      1  0.4288500000000  0.4243330000000  0.4995350000000 1.0
C      1  0.4388840000000  0.5223690000000  0.5862300000000 1.0
C      1  0.5161270000000  0.4906520000000  0.5252280000000 1.0
C      1  0.5242590000000  0.5108420000000  0.4991330000000 1.0
C      1  0.5742960000000  0.4921580000000  0.4635680000000 1.0
C      1  0.5418490000000  0.5209420000000  0.4718460000000 1.0
C      1  0.4735390000000  0.4128400000000  0.4812340000000 1.0
C      1  0.5165630000000  0.4661810000000  0.5565290000000 1.0
C      1  0.4928260000000  0.5187150000000  0.4032100000000 1.0
C      1  0.4641680000000  0.4536560000000  0.4306160000000 1.0
C      1  0.5296660000000  0.3888650000000  0.5220430000000 1.0
C      1  0.6106070000000  0.4778910000000  0.4993620000000 1.0
C      1  0.4906730000000  0.5910760000000  0.5390220000000 1.0
C      1  0.4685880000000  0.5222450000000  0.4735170000000 1.0
C      1  0.4466740000000  0.4779020000000  0.5814700000000 1.0
C      1  0.5662480000000  0.4451130000000  0.5052740000000 1.0
C      1  0.4695030000000  0.5078390000000  0.5449170000000 1.0
C      1  0.4503500000000  0.4350320000000  0.4463530000000 1.0
C      1  0.5126770000000  0.4446240000000  0.4782010000000 1.0
C      1  0.5465210000000  0.4689900000000  0.5061230000000 1.0
C      1  0.5120050000000  0.5896630000000  0.5137800000000 1.0
C      1  0.4053870000000  0.5389340000000  0.4558210000000 1.0
C      1  0.4001090000000  0.5107680000000  0.5525980000000 1.0
C      1  0.5670590000000  0.4746460000000  0.5515950000000 1.0
C      1  0.4660280000000  0.5639090000000  0.5805120000000 1.0
C      1  0.5491510000000  0.5842320000000  0.5292530000000 1.0
C      1  0.5289550000000  0.4106000000000  0.5388340000000 1.0
C      1  0.5477990000000  0.5594210000000  0.4613880000000 1.0
C      1  0.5073390000000  0.5234540000000  0.5660760000000 1.0
C      1  0.4879140000000  0.4856970000000  0.6103270000000 1.0
C      1  0.5163150000000  0.4788590000000  0.6016240000000 1.0
C      1  0.5336870000000  0.4834190000000  0.4813680000000 1.0
C      1  0.4655680000000  0.5879010000000  0.4564440000000 1.0
C      1  0.5741960000000  0.5476020000000  0.5578710000000 1.0
C      1  0.4634920000000  0.5910920000000  0.5255500000000 1.0
C      1  0.4303300000000  0.4439310000000  0.4648740000000 1.0
C      1  0.4341130000000  0.5943140000000  0.5100470000000 1.0
C      1  0.5637050000000  0.5054980000000  0.4930050000000 1.0
C      1  0.4590030000000  0.5371230000000  0.5414290000000 1.0
C      1  0.4268920000000  0.5308430000000  0.4884680000000 1.0
C      1  0.5317360000000  0.4992580000000  0.5862020000000 1.0
C      1  0.4638730000000  0.4975980000000  0.4964830000000 1.0
C      1  0.4301800000000  0.5516210000000  0.5459510000000 1.0
C      1  0.4494700000000  0.4909910000000  0.4028450000000 1.0
C      1  0.4094680000000  0.5563420000000  0.4816570000000 1.0
C      1  0.5203130000000  0.4521450000000  0.5959980000000 1.0
C      1  0.5483410000000  0.4837000000000  0.4135340000000 1.0
C      1  0.4914040000000  0.4115390000000  0.4376490000000 1.0
C      1  0.5572230000000  0.4507970000000  0.5610950000000 1.0
C      1  0.4222140000000  0.5831470000000  0.4857820000000 1.0
C      1  0.4116840000000  0.4518650000000  0.4933690000000 1.0
C      1  0.5760790000000  0.5484650000000  0.4870110000000 1.0
C      1  0.4847580000000  0.5026560000000  0.5726310000000 1.0
C      1  0.4736760000000  0.5391290000000  0.4127270000000 1.0
C      1  0.4456540000000  0.4864520000000  0.5210680000000 1.0
C      1  0.6062560000000  0.4983380000000  0.4579480000000 1.0
C      1  0.5289370000000  0.4357000000000  0.5600410000000 1.0
C      1  0.4724050000000  0.5854220000000  0.4305570000000 1.0
C      1  0.4438780000000  0.5483300000000  0.5764400000000 1.0
C      1  0.4151120000000  0.4878130000000  0.5117930000000 1.0
C      1  0.5943740000000  0.5043740000000  0.5367830000000 1.0
C      1  0.4566250000000  0.4328980000000  0.5602150000000 1.0
C      1  0.5226580000000  0.5887880000000  0.5504430000000 1.0
END
