TITL C-2847946-5639-345 0.000381864252516075 125000 -759.939168015709 0 0 143 (C1) n - 1
REM
REM in /home/bkarasulu/work/CARBON/AIRSS/Generating-Clusters/AIREBO/with-SteepDescent/Only-C1/SD-CG-opt/Try1-1.4A-POS3A/HFTN-CG
REM
REM
REM
REM
REM
REM ./C.cell (11c1c37f851c82e70ff6c80c92926a4b)
REM
REM compiler GCC version 9.2.1 20190827 (Red Hat 9.2.1-1)
REM options -cpp -mtune=generic -march=x86-64 -g -O0 -fpre-include=/usr/include/finclude/math-vector-fortran.h
REM seed 1107695809 1379619332 743245002 857353785 -402547530 692099337 -1564053956 -905953764 841866533 -1004987166 -2050425885 -921423139 915141885 558581547 -1365227754 1684850076 711428277 -806808130 -954115378 2069271801 -582073536 1924138569 -66807070 -2105691283 1116994515 1458650382 51552841 -323202832 1984750543 -1365898521 1920258464 -369972193 2052158279
REM
CELL 1.54180   50.00000   50.00000   50.00000   90.00000   90.00000   90.00000
LATT -1
SFAC C  
C      1  0.5835560000000  0.5199680000000  0.4716940000000 1.0
C      1  0.5608540000000  0.5176150000000  0.5552710000000 1.0
C      1  0.5176580000000  0.5684450000000  0.4343660000000 1.0
C      1  0.5184010000000  0.5447970000000  0.4951950000000 1.0
C      1  0.5525590000000  0.4991700000000  0.4578750000000 1.0
C      1  0.4820740000000  0.5705780000000  0.5021960000000 1.0
C      1  0.4471990000000  0.4474620000000  0.4928710000000 1.0
C      1  0.4513810000000  0.5114380000000  0.5894280000000 1.0
C      1  0.5414670000000  0.4763690000000  0.5313970000000 1.0
C      1  0.4627970000000  0.5697980000000  0.4339490000000 1.0
C      1  0.4550670000000  0.5900690000000  0.4963200000000 1.0
C      1  0.4087150000000  0.4879810000000  0.5109270000000 1.0
C      1  0.4716870000000  0.5280320000000  0.4084900000000 1.0
C      1  0.5610060000000  0.4352190000000  0.4731710000000 1.0
C      1  0.5865420000000  0.5335750000000  0.5291180000000 1.0
C      1  0.4449150000000  0.4916290000000  0.4949740000000 1.0
C      1  0.5678090000000  0.4610080000000  0.5596030000000 1.0
C      1  0.4545620000000  0.5509850000000  0.4794790000000 1.0
C      1  0.5372930000000  0.5671310000000  0.4584750000000 1.0
C      1  0.4752660000000  0.4774990000000  0.5534200000000 1.0
C      1  0.4221930000000  0.4651390000000  0.5548190000000 1.0
C      1  0.5353490000000  0.4669350000000  0.4208740000000 1.0
C      1  0.5299020000000  0.5482200000000  0.5330410000000 1.0
C      1  0.5350430000000  0.5705900000000  0.5079460000000 1.0
C      1  0.5270070000000  0.5033050000000  0.3888630000000 1.0
C      1  0.4901310000000  0.5859740000000  0.5449720000000 1.0
C      1  0.4848700000000  0.4561540000000  0.4122980000000 1.0
C      1  0.5052270000000  0.4726750000000  0.4067950000000 1.0
C      1  0.4720350000000  0.4551330000000  0.5132040000000 1.0
C      1  0.4835170000000  0.5316120000000  0.4579410000000 1.0
C      1  0.4719770000000  0.4303040000000  0.4533810000000 1.0
C      1  0.5375570000000  0.3972060000000  0.5221490000000 1.0
C      1  0.4890270000000  0.5502100000000  0.4368800000000 1.0
C      1  0.4738370000000  0.4766880000000  0.4869350000000 1.0
C      1  0.6018800000000  0.4343210000000  0.5009240000000 1.0
C      1  0.5165990000000  0.4054840000000  0.4381630000000 1.0
C      1  0.5001710000000  0.5993400000000  0.5034230000000 1.0
C      1  0.4660430000000  0.5779360000000  0.4665000000000 1.0
C      1  0.5437910000000  0.4547040000000  0.4510700000000 1.0
C      1  0.4320550000000  0.4698630000000  0.4722360000000 1.0
C      1  0.5071580000000  0.5124270000000  0.5737000000000 1.0
C      1  0.4428810000000  0.4931840000000  0.4499720000000 1.0
C      1  0.4276790000000  0.5613540000000  0.4920160000000 1.0
C      1  0.5448240000000  0.4685360000000  0.4822020000000 1.0
C      1  0.4178830000000  0.5332140000000  0.4455130000000 1.0
C      1  0.4896930000000  0.5414650000000  0.4972070000000 1.0
C      1  0.5533130000000  0.4764070000000  0.5782980000000 1.0
C      1  0.4297790000000  0.4922050000000  0.4227210000000 1.0
C      1  0.6022440000000  0.5124510000000  0.4484520000000 1.0
C      1  0.5639580000000  0.5463030000000  0.4625040000000 1.0
C      1  0.4603710000000  0.5379970000000  0.5103620000000 1.0
C      1  0.5176490000000  0.4379180000000  0.5735860000000 1.0
C      1  0.4084700000000  0.4832810000000  0.5714670000000 1.0
C      1  0.5552670000000  0.5324610000000  0.5157970000000 1.0
C      1  0.5321940000000  0.5693710000000  0.5696220000000 1.0
C      1  0.4501390000000  0.4608170000000  0.5642300000000 1.0
C      1  0.5172170000000  0.4781520000000  0.4694970000000 1.0
C      1  0.5632630000000  0.5086060000000  0.4185950000000 1.0
C      1  0.4345320000000  0.5602610000000  0.5460250000000 1.0
C      1  0.5735910000000  0.5458650000000  0.5580610000000 1.0
C      1  0.6069680000000  0.4606670000000  0.5050280000000 1.0
C      1  0.5452290000000  0.4211900000000  0.4478190000000 1.0
C      1  0.5258210000000  0.5804780000000  0.4792950000000 1.0
C      1  0.5192930000000  0.5172830000000  0.5239850000000 1.0
C      1  0.5234120000000  0.4760460000000  0.5717160000000 1.0
C      1  0.5967150000000  0.5044120000000  0.5434640000000 1.0
C      1  0.4298970000000  0.5167870000000  0.4111770000000 1.0
C      1  0.4750810000000  0.4553720000000  0.4370850000000 1.0
C      1  0.4939630000000  0.4973140000000  0.4374490000000 1.0
C      1  0.5689860000000  0.4923710000000  0.4853070000000 1.0
C      1  0.6010770000000  0.5260500000000  0.4993110000000 1.0
C      1  0.4902230000000  0.4073580000000  0.4402540000000 1.0
C      1  0.4539980000000  0.5237310000000  0.4591550000000 1.0
C      1  0.5029100000000  0.4934660000000  0.6007620000000 1.0
C      1  0.4061970000000  0.5379890000000  0.4943560000000 1.0
C      1  0.4473800000000  0.5393460000000  0.4296730000000 1.0
C      1  0.4716950000000  0.4932290000000  0.5241580000000 1.0
C      1  0.4088530000000  0.5192370000000  0.4687920000000 1.0
C      1  0.5583350000000  0.5773790000000  0.5287370000000 1.0
C      1  0.4640760000000  0.5806430000000  0.5288360000000 1.0
C      1  0.4885290000000  0.5357030000000  0.5573460000000 1.0
C      1  0.4743070000000  0.4057800000000  0.4845980000000 1.0
C      1  0.4617480000000  0.4299870000000  0.5677730000000 1.0
C      1  0.5344970000000  0.3915560000000  0.4605730000000 1.0
C      1  0.5341450000000  0.5180170000000  0.4934080000000 1.0
C      1  0.5820100000000  0.5665580000000  0.5168060000000 1.0
C      1  0.5491550000000  0.4462030000000  0.5274960000000 1.0
C      1  0.4137400000000  0.4519720000000  0.4968980000000 1.0
C      1  0.5030470000000  0.5084660000000  0.4681240000000 1.0
C      1  0.4656280000000  0.4339560000000  0.5390200000000 1.0
C      1  0.4969510000000  0.5055890000000  0.4046040000000 1.0
C      1  0.4842910000000  0.4135100000000  0.5224810000000 1.0
C      1  0.5851270000000  0.4822460000000  0.5115040000000 1.0
C      1  0.5017290000000  0.4429890000000  0.5244980000000 1.0
C      1  0.5563740000000  0.5681600000000  0.5553410000000 1.0
C      1  0.4929840000000  0.3879350000000  0.5266560000000 1.0
C      1  0.4594500000000  0.5393300000000  0.5400050000000 1.0
C      1  0.5496840000000  0.4228630000000  0.5027600000000 1.0
C      1  0.4834380000000  0.5080680000000  0.4958980000000 1.0
C      1  0.4271620000000  0.4436760000000  0.4289420000000 1.0
C      1  0.4714850000000  0.4806110000000  0.4530760000000 1.0
C      1  0.4697850000000  0.5074970000000  0.5613870000000 1.0
C      1  0.4377290000000  0.4946030000000  0.5274630000000 1.0
C      1  0.4910130000000  0.5890110000000  0.4391800000000 1.0
C      1  0.5307500000000  0.5022770000000  0.5514100000000 1.0
C      1  0.4728630000000  0.4520230000000  0.5882940000000 1.0
C      1  0.4995100000000  0.4553930000000  0.4821830000000 1.0
C      1  0.4317640000000  0.5787430000000  0.5184220000000 1.0
C      1  0.5466240000000  0.4920680000000  0.4048120000000 1.0
C      1  0.5206270000000  0.4651860000000  0.5069700000000 1.0
C      1  0.4965080000000  0.5920650000000  0.4718540000000 1.0
C      1  0.5042450000000  0.4896900000000  0.5239220000000 1.0
C      1  0.5633710000000  0.5012230000000  0.5819390000000 1.0
C      1  0.5015340000000  0.4608560000000  0.5928550000000 1.0
C      1  0.4977410000000  0.4254560000000  0.4750930000000 1.0
C      1  0.4226640000000  0.5390060000000  0.5243220000000 1.0
C      1  0.5860930000000  0.4759660000000  0.5449150000000 1.0
C      1  0.5827450000000  0.4155970000000  0.5059680000000 1.0
C      1  0.4223260000000  0.4666100000000  0.4143640000000 1.0
C      1  0.4077440000000  0.4921680000000  0.4805180000000 1.0
C      1  0.5066020000000  0.5611230000000  0.5530630000000 1.0
C      1  0.5343140000000  0.5488850000000  0.4148890000000 1.0
C      1  0.4567530000000  0.4194770000000  0.5034420000000 1.0
C      1  0.4356390000000  0.5214310000000  0.4982620000000 1.0
C      1  0.4405420000000  0.4432680000000  0.4528050000000 1.0
C      1  0.5251920000000  0.4130220000000  0.4813070000000 1.0
C      1  0.5710420000000  0.5514030000000  0.4923740000000 1.0
C      1  0.5258200000000  0.4895640000000  0.4412290000000 1.0
C      1  0.4395660000000  0.5151760000000  0.5514930000000 1.0
C      1  0.5295120000000  0.5763110000000  0.5959560000000 1.0
C      1  0.5312940000000  0.5237320000000  0.4613510000000 1.0
C      1  0.4833000000000  0.5211110000000  0.5963250000000 1.0
C      1  0.5267810000000  0.4228030000000  0.5355160000000 1.0
C      1  0.4433800000000  0.5623030000000  0.5762590000000 1.0
C      1  0.5612660000000  0.5005420000000  0.5258610000000 1.0
C      1  0.4178130000000  0.4599360000000  0.5277600000000 1.0
C      1  0.5508580000000  0.5316910000000  0.4347290000000 1.0
C      1  0.4219550000000  0.5061480000000  0.5765040000000 1.0
C      1  0.5482870000000  0.4342960000000  0.5593320000000 1.0
C      1  0.4600270000000  0.5430520000000  0.5852980000000 1.0
C      1  0.5047480000000  0.5376810000000  0.4126940000000 1.0
C      1  0.5027150000000  0.6058350000000  0.5298580000000 1.0
C      1  0.5002420000000  0.4594150000000  0.5531990000000 1.0
END
