TITL C-2847945-6269-252 -0.00289872664708087 125000 -538.273391500745 0 0 96 (C1) n - 1
REM
REM in /home/bkarasulu/work/CARBON/AIRSS/Generating-Clusters/AIREBO/with-SteepDescent/Only-C1/SD-CG-opt/Try1-1.4A-POS3A/HFTN-CG
REM
REM
REM
REM
REM
REM ./C.cell (11c1c37f851c82e70ff6c80c92926a4b)
REM
REM compiler GCC version 9.2.1 20190827 (Red Hat 9.2.1-1)
REM options -cpp -mtune=generic -march=x86-64 -g -O0 -fpre-include=/usr/include/finclude/math-vector-fortran.h
REM seed -327499496 -1872072975 1366413750 806126598 -873923095 1307313452 1442212259 2111291677 -812565238 652816818 -587442615 -518239868 -2100370479 1902741638 -1891581067 -1519900551 -1365404356 -2019514415 1172082731 -1504019076 -1239133726 1156423945 734477127 334739670 91559753 1877519297 -131688644 1244720038 -601110898 -1474535015 1733328129 505001570 -2071641687
REM
CELL 1.54180   50.00000   50.00000   50.00000   90.00000   90.00000   90.00000
LATT -1
SFAC C  
C      1  0.4447430000000  0.5565050000000  0.4941190000000 1.0
C      1  0.4998380000000  0.4316170000000  0.4475520000000 1.0
C      1  0.5069670000000  0.4424280000000  0.5624610000000 1.0
C      1  0.5189080000000  0.5219870000000  0.4776910000000 1.0
C      1  0.4823290000000  0.4755200000000  0.5041210000000 1.0
C      1  0.4952260000000  0.5195250000000  0.5657290000000 1.0
C      1  0.4242500000000  0.4876290000000  0.5360270000000 1.0
C      1  0.5395940000000  0.5612920000000  0.5179080000000 1.0
C      1  0.4750130000000  0.5451580000000  0.4984540000000 1.0
C      1  0.5200530000000  0.5372160000000  0.5296280000000 1.0
C      1  0.4972430000000  0.5238130000000  0.4150070000000 1.0
C      1  0.5227180000000  0.5792220000000  0.4745260000000 1.0
C      1  0.4251080000000  0.4759350000000  0.4559520000000 1.0
C      1  0.5430240000000  0.5589620000000  0.4865090000000 1.0
C      1  0.5452040000000  0.4685790000000  0.4604390000000 1.0
C      1  0.5519210000000  0.4265900000000  0.5044360000000 1.0
C      1  0.4543700000000  0.4485470000000  0.5392870000000 1.0
C      1  0.4662340000000  0.4326660000000  0.4792130000000 1.0
C      1  0.5590870000000  0.5285970000000  0.5297450000000 1.0
C      1  0.5069130000000  0.4847500000000  0.4417200000000 1.0
C      1  0.4952260000000  0.5467290000000  0.5490750000000 1.0
C      1  0.4592380000000  0.4847570000000  0.4192270000000 1.0
C      1  0.4514090000000  0.4615750000000  0.5017300000000 1.0
C      1  0.4280650000000  0.4608440000000  0.5227260000000 1.0
C      1  0.4683260000000  0.5585650000000  0.5354840000000 1.0
C      1  0.5737950000000  0.5214430000000  0.4639500000000 1.0
C      1  0.4550380000000  0.4971440000000  0.5926300000000 1.0
C      1  0.5603740000000  0.5583930000000  0.5446520000000 1.0
C      1  0.4433240000000  0.5541520000000  0.5241490000000 1.0
C      1  0.4185050000000  0.5025550000000  0.4520410000000 1.0
C      1  0.5343000000000  0.4761780000000  0.5832780000000 1.0
C      1  0.5546360000000  0.4400840000000  0.4747930000000 1.0
C      1  0.4769090000000  0.5146020000000  0.5100200000000 1.0
C      1  0.5606110000000  0.4834970000000  0.5047550000000 1.0
C      1  0.4868940000000  0.4627820000000  0.5733600000000 1.0
C      1  0.4636720000000  0.4655750000000  0.4709980000000 1.0
C      1  0.4772090000000  0.4417230000000  0.5248420000000 1.0
C      1  0.4759660000000  0.5211150000000  0.5880860000000 1.0
C      1  0.5556620000000  0.4979300000000  0.5323160000000 1.0
C      1  0.4819750000000  0.4277580000000  0.5013630000000 1.0
C      1  0.4368020000000  0.5119220000000  0.4861850000000 1.0
C      1  0.5152420000000  0.4709440000000  0.4699650000000 1.0
C      1  0.4607130000000  0.4641120000000  0.5617950000000 1.0
C      1  0.5016530000000  0.4919590000000  0.5468380000000 1.0
C      1  0.5643140000000  0.5356590000000  0.4999540000000 1.0
C      1  0.5148500000000  0.5768050000000  0.5296280000000 1.0
C      1  0.4923770000000  0.4631490000000  0.4241070000000 1.0
C      1  0.5610430000000  0.4941780000000  0.4662180000000 1.0
C      1  0.5396010000000  0.5593920000000  0.5676870000000 1.0
C      1  0.4631080000000  0.4962640000000  0.4868740000000 1.0
C      1  0.5437210000000  0.4590300000000  0.5082290000000 1.0
C      1  0.5311510000000  0.4017040000000  0.5052870000000 1.0
C      1  0.4324630000000  0.5257660000000  0.5590200000000 1.0
C      1  0.5342890000000  0.4980670000000  0.4298090000000 1.0
C      1  0.4591720000000  0.5808000000000  0.4755960000000 1.0
C      1  0.4720450000000  0.4495180000000  0.4437070000000 1.0
C      1  0.5370410000000  0.4551440000000  0.5573680000000 1.0
C      1  0.4732020000000  0.5024390000000  0.5373380000000 1.0
C      1  0.5089460000000  0.5433460000000  0.4330190000000 1.0
C      1  0.5070880000000  0.5228750000000  0.5066840000000 1.0
C      1  0.5931920000000  0.5248010000000  0.4865470000000 1.0
C      1  0.4891190000000  0.5370340000000  0.4714960000000 1.0
C      1  0.5382820000000  0.5275640000000  0.5566870000000 1.0
C      1  0.4091380000000  0.4937120000000  0.4904380000000 1.0
C      1  0.5244850000000  0.5074850000000  0.5756790000000 1.0
C      1  0.4265350000000  0.5349650000000  0.5342470000000 1.0
C      1  0.5297760000000  0.5259830000000  0.4471690000000 1.0
C      1  0.5326360000000  0.4841260000000  0.5444740000000 1.0
C      1  0.5183720000000  0.5090660000000  0.4030730000000 1.0
C      1  0.5208220000000  0.4380310000000  0.4679900000000 1.0
C      1  0.5460120000000  0.5106250000000  0.4905310000000 1.0
C      1  0.4431930000000  0.4661830000000  0.4369340000000 1.0
C      1  0.5824020000000  0.4582920000000  0.4703110000000 1.0
C      1  0.5026490000000  0.4833970000000  0.5858450000000 1.0
C      1  0.5578740000000  0.4769970000000  0.4307000000000 1.0
C      1  0.4385470000000  0.5283760000000  0.4589430000000 1.0
C      1  0.5530110000000  0.5400900000000  0.4618520000000 1.0
C      1  0.4800840000000  0.5041920000000  0.4325950000000 1.0
C      1  0.4688900000000  0.5212990000000  0.4545620000000 1.0
C      1  0.5025530000000  0.4601260000000  0.5346170000000 1.0
C      1  0.4364000000000  0.5592910000000  0.4623670000000 1.0
C      1  0.5010180000000  0.5632040000000  0.4550660000000 1.0
C      1  0.4217050000000  0.4643020000000  0.4877500000000 1.0
C      1  0.4445400000000  0.5270570000000  0.5855220000000 1.0
C      1  0.5868660000000  0.4769280000000  0.4912530000000 1.0
C      1  0.4479800000000  0.4955080000000  0.5590720000000 1.0
C      1  0.4203160000000  0.5119390000000  0.5158870000000 1.0
C      1  0.6046440000000  0.4993330000000  0.4930510000000 1.0
C      1  0.5826310000000  0.4667860000000  0.4426360000000 1.0
C      1  0.5113070000000  0.4245750000000  0.4950660000000 1.0
C      1  0.4783430000000  0.4704320000000  0.3990860000000 1.0
C      1  0.4905020000000  0.5708610000000  0.5144520000000 1.0
C      1  0.5147450000000  0.5708450000000  0.5596210000000 1.0
C      1  0.5118080000000  0.4597130000000  0.5018850000000 1.0
C      1  0.5515890000000  0.4411450000000  0.5350160000000 1.0
C      1  0.4893400000000  0.5787310000000  0.4822730000000 1.0
END
