TITL C-2847958-8115-472 -0.000622142924778014 125000 -171.780659679577 0 0 32 (C1) n - 1
REM
REM in /home/bkarasulu/work/CARBON/AIRSS/Generating-Clusters/AIREBO/with-SteepDescent/Only-C1/SD-CG-opt/Try1-1.4A-POS3A/HFTN-CG
REM
REM
REM
REM
REM
REM ./C.cell (11c1c37f851c82e70ff6c80c92926a4b)
REM
REM compiler GCC version 9.2.1 20190827 (Red Hat 9.2.1-1)
REM options -cpp -mtune=generic -march=x86-64 -g -O0 -fpre-include=/usr/include/finclude/math-vector-fortran.h
REM seed -737872327 -1874554408 -1731763411 91230474 -403313269 -772562300 -531591083 -2060394888 -34288325 -772902542 -70583900 1942514855 -749977471 -768036695 122719445 -449033159 1767733917 1925784320 391743463 401209358 290476730 -1772359403 -1108184593 -34805186 -142696019 -1001817324 1727151741 -2144861080 -99969307 384794420 -1330372571 -172602566 -1801597516
REM
CELL 1.54180   50.00000   50.00000   50.00000   90.00000   90.00000   90.00000
LATT -1
SFAC C  
C      1  0.5444480000000  0.4812800000000  0.4633080000000 1.0
C      1  0.4676310000000  0.4528570000000  0.4557530000000 1.0
C      1  0.5205780000000  0.4733260000000  0.5456890000000 1.0
C      1  0.4795080000000  0.5434490000000  0.5413840000000 1.0
C      1  0.5425000000000  0.5026270000000  0.5072970000000 1.0
C      1  0.5137860000000  0.5350450000000  0.4815470000000 1.0
C      1  0.5215350000000  0.4978290000000  0.4519580000000 1.0
C      1  0.5417750000000  0.4527520000000  0.5046770000000 1.0
C      1  0.5060500000000  0.4781600000000  0.4735070000000 1.0
C      1  0.4993180000000  0.5585460000000  0.5302610000000 1.0
C      1  0.5111060000000  0.4930610000000  0.5010110000000 1.0
C      1  0.4851500000000  0.4999900000000  0.5626460000000 1.0
C      1  0.4661920000000  0.5034040000000  0.5132530000000 1.0
C      1  0.4631510000000  0.4772880000000  0.4986000000000 1.0
C      1  0.4751760000000  0.4762940000000  0.4698410000000 1.0
C      1  0.5083200000000  0.4857530000000  0.5676000000000 1.0
C      1  0.5449270000000  0.5491570000000  0.4830310000000 1.0
C      1  0.4270820000000  0.4416270000000  0.5128660000000 1.0
C      1  0.4667690000000  0.5025530000000  0.4537360000000 1.0
C      1  0.5020520000000  0.4723100000000  0.5222660000000 1.0
C      1  0.4742410000000  0.5158940000000  0.5424160000000 1.0
C      1  0.5418080000000  0.4745630000000  0.5237110000000 1.0
C      1  0.5175280000000  0.5509820000000  0.5113520000000 1.0
C      1  0.5323790000000  0.4571990000000  0.4780730000000 1.0
C      1  0.5428610000000  0.5324590000000  0.5092800000000 1.0
C      1  0.5099740000000  0.5233030000000  0.4538920000000 1.0
C      1  0.4683880000000  0.5417460000000  0.5030220000000 1.0
C      1  0.5604990000000  0.4957350000000  0.4820730000000 1.0
C      1  0.4440850000000  0.4600170000000  0.5051440000000 1.0
C      1  0.4830820000000  0.5229650000000  0.4448120000000 1.0
C      1  0.4939150000000  0.5199510000000  0.5025730000000 1.0
C      1  0.4441880000000  0.5278770000000  0.5034230000000 1.0
END
