TITL C-2848504-8560-476 0.00221213306479706 125000 -625.738442479797 0 0 117 (C1) n - 1
REM
REM in /home/bkarasulu/work/CARBON/AIRSS/Generating-Clusters/AIREBO/with-SteepDescent/Only-C1/SD-CG-opt/Try1-1.4A-POS3A/HFTN-CG
REM
REM
REM
REM
REM
REM ./C.cell (11c1c37f851c82e70ff6c80c92926a4b)
REM
REM compiler GCC version 9.2.1 20190827 (Red Hat 9.2.1-1)
REM options -cpp -mtune=generic -march=x86-64 -g -O0 -fpre-include=/usr/include/finclude/math-vector-fortran.h
REM seed 173961759 616736884 438462432 1569106246 -589441516 1134343504 783362432 1223538273 923759754 107342707 -1027946914 -715400180 -241895787 1118480036 2094434797 -2048782142 443674612 953163493 1702439418 -218963122 791249165 211692331 -365519913 -48203426 -1067856712 -809828711 -637871877 1399757820 -2084929909 -621189052 -1174709620 -899748716 -1537553007
REM
CELL 1.54180   50.00000   50.00000   50.00000   90.00000   90.00000   90.00000
LATT -1
SFAC C  
C      1  0.4498540000000  0.5455560000000  0.4621560000000 1.0
C      1  0.5566980000000  0.4293220000000  0.5268500000000 1.0
C      1  0.4725680000000  0.4365380000000  0.4958850000000 1.0
C      1  0.5807930000000  0.4551570000000  0.4912500000000 1.0
C      1  0.5700270000000  0.4906910000000  0.3975590000000 1.0
C      1  0.5254090000000  0.4441780000000  0.4260470000000 1.0
C      1  0.5308990000000  0.4641910000000  0.4666840000000 1.0
C      1  0.5061730000000  0.5776690000000  0.5640180000000 1.0
C      1  0.5101520000000  0.4464000000000  0.5045850000000 1.0
C      1  0.4074960000000  0.5130530000000  0.5431770000000 1.0
C      1  0.4703100000000  0.5446010000000  0.5887400000000 1.0
C      1  0.5090310000000  0.5409810000000  0.4676360000000 1.0
C      1  0.5403220000000  0.5041450000000  0.5532110000000 1.0
C      1  0.5196740000000  0.4150610000000  0.4983310000000 1.0
C      1  0.5242060000000  0.5085000000000  0.4379830000000 1.0
C      1  0.5012220000000  0.5186540000000  0.4150580000000 1.0
C      1  0.4045560000000  0.4736330000000  0.5056910000000 1.0
C      1  0.5302810000000  0.5331290000000  0.5429540000000 1.0
C      1  0.4724860000000  0.5476020000000  0.5116260000000 1.0
C      1  0.4102170000000  0.4808260000000  0.4782660000000 1.0
C      1  0.5486500000000  0.4938600000000  0.4194290000000 1.0
C      1  0.4094210000000  0.5274680000000  0.5189320000000 1.0
C      1  0.4565350000000  0.5437010000000  0.4304950000000 1.0
C      1  0.4683310000000  0.4548770000000  0.5502850000000 1.0
C      1  0.5712820000000  0.5370860000000  0.4709310000000 1.0
C      1  0.4507210000000  0.5257030000000  0.5683190000000 1.0
C      1  0.5023230000000  0.4251640000000  0.4717470000000 1.0
C      1  0.5644490000000  0.4340490000000  0.4966370000000 1.0
C      1  0.4539530000000  0.5823120000000  0.4989990000000 1.0
C      1  0.5698010000000  0.4800470000000  0.4928040000000 1.0
C      1  0.5147200000000  0.5126150000000  0.5207120000000 1.0
C      1  0.4946160000000  0.5718910000000  0.4668390000000 1.0
C      1  0.4399610000000  0.5376770000000  0.5116880000000 1.0
C      1  0.4093240000000  0.5288550000000  0.4868520000000 1.0
C      1  0.4985060000000  0.4588260000000  0.4746830000000 1.0
C      1  0.5068470000000  0.5588130000000  0.4387690000000 1.0
C      1  0.5451920000000  0.5183960000000  0.4628520000000 1.0
C      1  0.4404010000000  0.4743050000000  0.5517080000000 1.0
C      1  0.5761340000000  0.5503410000000  0.5617720000000 1.0
C      1  0.4534090000000  0.4455930000000  0.4228460000000 1.0
C      1  0.5837050000000  0.5315950000000  0.4967840000000 1.0
C      1  0.5635750000000  0.4620320000000  0.5330870000000 1.0
C      1  0.4636910000000  0.5065730000000  0.5444250000000 1.0
C      1  0.4718490000000  0.4286290000000  0.4357200000000 1.0
C      1  0.5171850000000  0.4752000000000  0.4372880000000 1.0
C      1  0.4819280000000  0.4335790000000  0.5693140000000 1.0
C      1  0.5461620000000  0.5170700000000  0.5085300000000 1.0
C      1  0.4705970000000  0.5148110000000  0.4271310000000 1.0
C      1  0.5598320000000  0.5598510000000  0.5411980000000 1.0
C      1  0.4737210000000  0.4127260000000  0.5183150000000 1.0
C      1  0.5784660000000  0.5237910000000  0.5804440000000 1.0
C      1  0.4356270000000  0.4415410000000  0.5101380000000 1.0
C      1  0.5630030000000  0.5450660000000  0.5179520000000 1.0
C      1  0.5139560000000  0.5384890000000  0.5723090000000 1.0
C      1  0.4854360000000  0.5251710000000  0.5288050000000 1.0
C      1  0.5030620000000  0.4809590000000  0.5250960000000 1.0
C      1  0.5342250000000  0.4128330000000  0.5379320000000 1.0
C      1  0.4171570000000  0.4763270000000  0.4529530000000 1.0
C      1  0.4561430000000  0.5592470000000  0.5630810000000 1.0
C      1  0.4607930000000  0.4762360000000  0.4241520000000 1.0
C      1  0.4969580000000  0.5482120000000  0.5925190000000 1.0
C      1  0.5320460000000  0.4634390000000  0.5220900000000 1.0
C      1  0.5297890000000  0.5660690000000  0.5459200000000 1.0
C      1  0.4864330000000  0.5494800000000  0.4178450000000 1.0
C      1  0.4852450000000  0.4679990000000  0.4447480000000 1.0
C      1  0.4398470000000  0.4933090000000  0.4407600000000 1.0
C      1  0.4279040000000  0.5016830000000  0.5605640000000 1.0
C      1  0.4706070000000  0.4707490000000  0.5932150000000 1.0
C      1  0.5346280000000  0.5403490000000  0.4865730000000 1.0
C      1  0.5107490000000  0.4982310000000  0.4901440000000 1.0
C      1  0.5113870000000  0.4859060000000  0.5638940000000 1.0
C      1  0.4854300000000  0.5920010000000  0.4926880000000 1.0
C      1  0.5835690000000  0.5013140000000  0.5094250000000 1.0
C      1  0.5578090000000  0.4930110000000  0.5296620000000 1.0
C      1  0.5375940000000  0.5715370000000  0.4931730000000 1.0
C      1  0.5389770000000  0.4795940000000  0.4936810000000 1.0
C      1  0.5667900000000  0.4615540000000  0.3882180000000 1.0
C      1  0.4357190000000  0.5735790000000  0.5444900000000 1.0
C      1  0.5022490000000  0.4138390000000  0.5263580000000 1.0
C      1  0.4447990000000  0.4170820000000  0.5169680000000 1.0
C      1  0.5266880000000  0.4240380000000  0.4496860000000 1.0
C      1  0.4343370000000  0.4742160000000  0.5194480000000 1.0
C      1  0.5554810000000  0.5079100000000  0.5823000000000 1.0
C      1  0.4298830000000  0.5231980000000  0.4363630000000 1.0
C      1  0.6009700000000  0.5239640000000  0.5254030000000 1.0
C      1  0.4279020000000  0.5034070000000  0.4928800000000 1.0
C      1  0.4581920000000  0.4649860000000  0.4970340000000 1.0
C      1  0.4811220000000  0.5758080000000  0.5514200000000 1.0
C      1  0.5405030000000  0.4335180000000  0.4786880000000 1.0
C      1  0.5445640000000  0.4632930000000  0.4107350000000 1.0
C      1  0.5807450000000  0.4396580000000  0.5487130000000 1.0
C      1  0.4810550000000  0.4930190000000  0.4040140000000 1.0
C      1  0.5298830000000  0.6030910000000  0.5033980000000 1.0
C      1  0.5585470000000  0.5677140000000  0.4701330000000 1.0
C      1  0.4986490000000  0.5165360000000  0.5590070000000 1.0
C      1  0.4677100000000  0.5593370000000  0.4798760000000 1.0
C      1  0.5179740000000  0.5778490000000  0.5197120000000 1.0
C      1  0.4721730000000  0.4252070000000  0.4638070000000 1.0
C      1  0.4770140000000  0.4435440000000  0.5946010000000 1.0
C      1  0.5910990000000  0.5241690000000  0.5510620000000 1.0
C      1  0.5314850000000  0.4927300000000  0.5904600000000 1.0
C      1  0.4795830000000  0.4847680000000  0.4858820000000 1.0
C      1  0.5320790000000  0.5412530000000  0.4332150000000 1.0
C      1  0.4973980000000  0.4268800000000  0.4228330000000 1.0
C      1  0.4774730000000  0.4833550000000  0.5634390000000 1.0
C      1  0.4431810000000  0.5062370000000  0.5210580000000 1.0
C      1  0.5569620000000  0.5507770000000  0.4426540000000 1.0
C      1  0.4843350000000  0.4523410000000  0.5236580000000 1.0
C      1  0.4167760000000  0.5395050000000  0.4623780000000 1.0
C      1  0.4475790000000  0.5162820000000  0.4725480000000 1.0
C      1  0.5088720000000  0.4806190000000  0.4057030000000 1.0
C      1  0.5192260000000  0.4573160000000  0.5526170000000 1.0
C      1  0.5005770000000  0.5112740000000  0.4622930000000 1.0
C      1  0.4392600000000  0.5688400000000  0.5180840000000 1.0
C      1  0.4697270000000  0.4982690000000  0.4562710000000 1.0
C      1  0.5091970000000  0.4283960000000  0.5548920000000 1.0
C      1  0.4862080000000  0.5745650000000  0.5211410000000 1.0
END
