TITL C-2848509-3138-450 -0.00148653595927769 125000 -839.635782039055 0 0 157 (C1) n - 1
REM
REM in /home/bkarasulu/work/CARBON/AIRSS/Generating-Clusters/AIREBO/with-SteepDescent/Only-C1/SD-CG-opt/Try1-1.4A-POS3A/HFTN-CG
REM
REM
REM
REM
REM
REM ./C.cell (11c1c37f851c82e70ff6c80c92926a4b)
REM
REM compiler GCC version 9.2.1 20190827 (Red Hat 9.2.1-1)
REM options -cpp -mtune=generic -march=x86-64 -g -O0 -fpre-include=/usr/include/finclude/math-vector-fortran.h
REM seed -1617589279 1524778849 560763912 1445486123 -1809278335 1253607911 2058951991 296786264 -2081363225 780154068 -485674020 -1736747435 -2098507879 -325430781 -621430330 990448882 -450223793 -347011112 1554137238 83102006 -1963328205 2015706784 -1262428498 1578885157 -198957061 466381825 601550216 -457275076 -1281955708 758236136 1473535423 1639087981 -1547922039
REM
CELL 1.54180   50.00000   50.00000   50.00000   90.00000   90.00000   90.00000
LATT -1
SFAC C  
C      1  0.4594410000000  0.5138810000000  0.5161010000000 1.0
C      1  0.5381820000000  0.5465800000000  0.4109350000000 1.0
C      1  0.6014890000000  0.5036360000000  0.5257430000000 1.0
C      1  0.4986590000000  0.4288480000000  0.5538370000000 1.0
C      1  0.5143550000000  0.5280400000000  0.5911360000000 1.0
C      1  0.4298010000000  0.4992320000000  0.5080990000000 1.0
C      1  0.5178820000000  0.5311250000000  0.5574430000000 1.0
C      1  0.4507770000000  0.5598800000000  0.4656220000000 1.0
C      1  0.4210490000000  0.5001520000000  0.4544690000000 1.0
C      1  0.5333590000000  0.4771490000000  0.5923000000000 1.0
C      1  0.5255760000000  0.4542180000000  0.5372410000000 1.0
C      1  0.4346980000000  0.4770430000000  0.5559720000000 1.0
C      1  0.4462990000000  0.4559410000000  0.5013530000000 1.0
C      1  0.5551980000000  0.4304760000000  0.5109360000000 1.0
C      1  0.5588490000000  0.5215270000000  0.4188500000000 1.0
C      1  0.5168650000000  0.4384800000000  0.4774930000000 1.0
C      1  0.4600050000000  0.4837060000000  0.4872280000000 1.0
C      1  0.4879460000000  0.4157280000000  0.4923690000000 1.0
C      1  0.5482720000000  0.4796640000000  0.5618360000000 1.0
C      1  0.4584550000000  0.4739270000000  0.4347190000000 1.0
C      1  0.5125900000000  0.5209380000000  0.4672330000000 1.0
C      1  0.5539460000000  0.5578060000000  0.5782030000000 1.0
C      1  0.5718720000000  0.4993150000000  0.4377830000000 1.0
C      1  0.5738180000000  0.5058070000000  0.5440120000000 1.0
C      1  0.4150980000000  0.4319890000000  0.5287640000000 1.0
C      1  0.5764410000000  0.4664140000000  0.5538690000000 1.0
C      1  0.4039610000000  0.5269890000000  0.4563160000000 1.0
C      1  0.4769190000000  0.5920720000000  0.5177550000000 1.0
C      1  0.5465250000000  0.4245410000000  0.5561750000000 1.0
C      1  0.5010570000000  0.4782680000000  0.5170160000000 1.0
C      1  0.4709230000000  0.4330170000000  0.5398180000000 1.0
C      1  0.4915730000000  0.4356360000000  0.4580980000000 1.0
C      1  0.5297430000000  0.4797550000000  0.4994280000000 1.0
C      1  0.4117990000000  0.4586510000000  0.5731760000000 1.0
C      1  0.4839370000000  0.4962560000000  0.4317700000000 1.0
C      1  0.4650370000000  0.4982900000000  0.4041790000000 1.0
C      1  0.4259860000000  0.5220870000000  0.5325670000000 1.0
C      1  0.5083390000000  0.5860250000000  0.5212650000000 1.0
C      1  0.5317940000000  0.5563720000000  0.5950860000000 1.0
C      1  0.4652270000000  0.5319390000000  0.4526660000000 1.0
C      1  0.5661180000000  0.4379640000000  0.4858300000000 1.0
C      1  0.5170020000000  0.5627790000000  0.5449350000000 1.0
C      1  0.5253630000000  0.4193940000000  0.4311270000000 1.0
C      1  0.4760120000000  0.5425070000000  0.5147900000000 1.0
C      1  0.4460090000000  0.5333390000000  0.5647480000000 1.0
C      1  0.4771900000000  0.4929910000000  0.5864490000000 1.0
C      1  0.4737040000000  0.5327640000000  0.5844680000000 1.0
C      1  0.4469020000000  0.5389280000000  0.4266420000000 1.0
C      1  0.4371550000000  0.4427290000000  0.5761090000000 1.0
C      1  0.5542860000000  0.4775910000000  0.4183940000000 1.0
C      1  0.5373770000000  0.6026370000000  0.5169350000000 1.0
C      1  0.4422610000000  0.5344710000000  0.4951870000000 1.0
C      1  0.5010290000000  0.5363540000000  0.4923250000000 1.0
C      1  0.5467680000000  0.5136090000000  0.5630880000000 1.0
C      1  0.4667400000000  0.5885190000000  0.4593110000000 1.0
C      1  0.6037460000000  0.4777390000000  0.5447170000000 1.0
C      1  0.4334340000000  0.5669450000000  0.4940050000000 1.0
C      1  0.6128660000000  0.5117030000000  0.4746210000000 1.0
C      1  0.5496230000000  0.5126160000000  0.5211550000000 1.0
C      1  0.5406690000000  0.4487310000000  0.5737870000000 1.0
C      1  0.4027320000000  0.5077030000000  0.5527760000000 1.0
C      1  0.5372450000000  0.5409390000000  0.4637010000000 1.0
C      1  0.4022640000000  0.4196350000000  0.4463230000000 1.0
C      1  0.5600640000000  0.4714290000000  0.4864460000000 1.0
C      1  0.4565790000000  0.5137150000000  0.4763030000000 1.0
C      1  0.4448080000000  0.4933830000000  0.5927320000000 1.0
C      1  0.3964730000000  0.4470840000000  0.5166360000000 1.0
C      1  0.4822460000000  0.5572740000000  0.4786360000000 1.0
C      1  0.5075520000000  0.5405290000000  0.4213290000000 1.0
C      1  0.4398810000000  0.4251420000000  0.5512440000000 1.0
C      1  0.4734030000000  0.5377650000000  0.5451010000000 1.0
C      1  0.5922310000000  0.4761060000000  0.4434980000000 1.0
C      1  0.4963760000000  0.4744840000000  0.4648880000000 1.0
C      1  0.5201870000000  0.4925020000000  0.4718630000000 1.0
C      1  0.4269750000000  0.5683570000000  0.4446630000000 1.0
C      1  0.4305880000000  0.5077680000000  0.5691020000000 1.0
C      1  0.5216630000000  0.4136670000000  0.5456260000000 1.0
C      1  0.4938410000000  0.5227160000000  0.4433790000000 1.0
C      1  0.5368810000000  0.4567930000000  0.4663040000000 1.0
C      1  0.5383890000000  0.4819130000000  0.5304950000000 1.0
C      1  0.4944410000000  0.5554130000000  0.5910030000000 1.0
C      1  0.4289400000000  0.4851400000000  0.4803780000000 1.0
C      1  0.5089540000000  0.4586440000000  0.5665760000000 1.0
C      1  0.4942660000000  0.5675520000000  0.4226660000000 1.0
C      1  0.5202750000000  0.5951270000000  0.4904390000000 1.0
C      1  0.5871150000000  0.5486320000000  0.4846460000000 1.0
C      1  0.5844530000000  0.5540920000000  0.4515010000000 1.0
C      1  0.5214080000000  0.4339840000000  0.5112250000000 1.0
C      1  0.5559600000000  0.5465920000000  0.5253930000000 1.0
C      1  0.5242310000000  0.5653260000000  0.4776980000000 1.0
C      1  0.5832570000000  0.4712520000000  0.5113150000000 1.0
C      1  0.5225720000000  0.4838930000000  0.4076580000000 1.0
C      1  0.5195490000000  0.4006120000000  0.5174760000000 1.0
C      1  0.5370420000000  0.4116160000000  0.4559320000000 1.0
C      1  0.4562320000000  0.5772930000000  0.5404050000000 1.0
C      1  0.4694910000000  0.6039740000000  0.4867220000000 1.0
C      1  0.5913600000000  0.5215160000000  0.4546560000000 1.0
C      1  0.4937190000000  0.4816920000000  0.5487050000000 1.0
C      1  0.4927260000000  0.5072160000000  0.5182960000000 1.0
C      1  0.5083380000000  0.4990600000000  0.5954150000000 1.0
C      1  0.3842640000000  0.5411270000000  0.5155830000000 1.0
C      1  0.6038370000000  0.4919710000000  0.4938930000000 1.0
C      1  0.4495910000000  0.4581030000000  0.5313290000000 1.0
C      1  0.5619240000000  0.4263310000000  0.4605870000000 1.0
C      1  0.5921460000000  0.5318400000000  0.5600520000000 1.0
C      1  0.4842950000000  0.4659210000000  0.4941900000000 1.0
C      1  0.4865490000000  0.4470120000000  0.4086830000000 1.0
C      1  0.4895050000000  0.5128340000000  0.5617100000000 1.0
C      1  0.4401210000000  0.4142220000000  0.5190440000000 1.0
C      1  0.5129830000000  0.5897210000000  0.4355290000000 1.0
C      1  0.4636410000000  0.5679140000000  0.5025300000000 1.0
C      1  0.4450720000000  0.5051560000000  0.4309000000000 1.0
C      1  0.5887040000000  0.5408990000000  0.5325800000000 1.0
C      1  0.4903400000000  0.5599590000000  0.5605320000000 1.0
C      1  0.3873790000000  0.5133120000000  0.5031710000000 1.0
C      1  0.6028060000000  0.5322470000000  0.5073950000000 1.0
C      1  0.5532880000000  0.4495020000000  0.4375340000000 1.0
C      1  0.6006810000000  0.4478520000000  0.5287790000000 1.0
C      1  0.4564250000000  0.4239450000000  0.4951490000000 1.0
C      1  0.5597610000000  0.5050000000000  0.4918890000000 1.0
C      1  0.5484240000000  0.5683410000000  0.5504230000000 1.0
C      1  0.4588650000000  0.4639670000000  0.5863060000000 1.0
C      1  0.4962820000000  0.4260150000000  0.4319820000000 1.0
C      1  0.5240600000000  0.4522840000000  0.4213600000000 1.0
C      1  0.5912540000000  0.4685730000000  0.4726720000000 1.0
C      1  0.5729240000000  0.5681390000000  0.5047000000000 1.0
C      1  0.5174630000000  0.5225580000000  0.5259630000000 1.0
C      1  0.5268690000000  0.5140630000000  0.4114640000000 1.0
C      1  0.4192170000000  0.4345040000000  0.4608740000000 1.0
C      1  0.4105390000000  0.5352250000000  0.4865720000000 1.0
C      1  0.5437170000000  0.4856690000000  0.4511020000000 1.0
C      1  0.3942100000000  0.4746080000000  0.4967220000000 1.0
C      1  0.5277580000000  0.5484580000000  0.5064900000000 1.0
C      1  0.3923720000000  0.4989490000000  0.4727200000000 1.0
C      1  0.5676040000000  0.5332160000000  0.5757600000000 1.0
C      1  0.4977530000000  0.5779760000000  0.4610550000000 1.0
C      1  0.4680330000000  0.4566710000000  0.4588990000000 1.0
C      1  0.4881030000000  0.4407000000000  0.5126830000000 1.0
C      1  0.4372220000000  0.5535800000000  0.5388400000000 1.0
C      1  0.6079170000000  0.4515100000000  0.4964270000000 1.0
C      1  0.4007770000000  0.4928680000000  0.5246430000000 1.0
C      1  0.4176240000000  0.4548380000000  0.4838370000000 1.0
C      1  0.4667290000000  0.5664370000000  0.4299550000000 1.0
C      1  0.5639640000000  0.5275660000000  0.4731260000000 1.0
C      1  0.5307840000000  0.5997610000000  0.4583590000000 1.0
C      1  0.5023160000000  0.4654610000000  0.5992220000000 1.0
C      1  0.4674740000000  0.4695190000000  0.5556380000000 1.0
C      1  0.5565830000000  0.5476910000000  0.4393610000000 1.0
C      1  0.5589180000000  0.5863650000000  0.5249890000000 1.0
C      1  0.5698260000000  0.4368580000000  0.5380390000000 1.0
C      1  0.4977810000000  0.4668470000000  0.4339160000000 1.0
C      1  0.4141990000000  0.5444160000000  0.4342210000000 1.0
C      1  0.4481810000000  0.4352010000000  0.4672990000000 1.0
C      1  0.4553750000000  0.4561450000000  0.4111780000000 1.0
C      1  0.4915340000000  0.4783940000000  0.3964740000000 1.0
C      1  0.4127180000000  0.5534110000000  0.5152510000000 1.0
C      1  0.5186130000000  0.4051080000000  0.4837820000000 1.0
END
