TITL C-2847959-7740-562 0.00167179713253497 125000 -727.631116747616 0 0 137 (C1) n - 1
REM
REM in /home/bkarasulu/work/CARBON/AIRSS/Generating-Clusters/AIREBO/with-SteepDescent/Only-C1/SD-CG-opt/Try1-1.4A-POS3A/HFTN-CG
REM
REM
REM
REM
REM
REM ./C.cell (11c1c37f851c82e70ff6c80c92926a4b)
REM
REM compiler GCC version 9.2.1 20190827 (Red Hat 9.2.1-1)
REM options -cpp -mtune=generic -march=x86-64 -g -O0 -fpre-include=/usr/include/finclude/math-vector-fortran.h
REM seed -882452070 -359349013 -1317057810 -2111747958 -1626185645 -503655472 602327010 -345469626 1136909137 -1368528417 423649444 -264909185 -215884488 2034220690 -367296558 -1433464573 1069541941 -262344823 -338695665 610822651 67615628 1601372916 2028402990 -2042002825 -654831238 -1206490168 1285271490 323646353 -982991150 -906974291 -2059090347 1807258326 114609456
REM
CELL 1.54180   50.00000   50.00000   50.00000   90.00000   90.00000   90.00000
LATT -1
SFAC C  
C      1  0.4138400000000  0.4538740000000  0.4713010000000 1.0
C      1  0.4355460000000  0.4987290000000  0.4222710000000 1.0
C      1  0.4712470000000  0.4485210000000  0.5147320000000 1.0
C      1  0.5767090000000  0.4569050000000  0.5367530000000 1.0
C      1  0.5003220000000  0.4239190000000  0.4496090000000 1.0
C      1  0.6039470000000  0.4797520000000  0.4937330000000 1.0
C      1  0.5448470000000  0.4411110000000  0.4348760000000 1.0
C      1  0.5172020000000  0.5550740000000  0.5095980000000 1.0
C      1  0.5708500000000  0.5255700000000  0.5541330000000 1.0
C      1  0.5030940000000  0.4203240000000  0.5804670000000 1.0
C      1  0.5452700000000  0.4486450000000  0.5425520000000 1.0
C      1  0.5629030000000  0.4620260000000  0.5683630000000 1.0
C      1  0.4962890000000  0.4362900000000  0.4977190000000 1.0
C      1  0.5847250000000  0.5148020000000  0.4937490000000 1.0
C      1  0.5092340000000  0.5900850000000  0.4375830000000 1.0
C      1  0.5279580000000  0.5051470000000  0.6011030000000 1.0
C      1  0.4893530000000  0.4990120000000  0.5127870000000 1.0
C      1  0.5016990000000  0.4257900000000  0.5492130000000 1.0
C      1  0.4800100000000  0.4938890000000  0.4259320000000 1.0
C      1  0.4706760000000  0.5867210000000  0.5004470000000 1.0
C      1  0.5452950000000  0.4376610000000  0.5004090000000 1.0
C      1  0.4144520000000  0.4722720000000  0.5188320000000 1.0
C      1  0.5444080000000  0.5521400000000  0.4391210000000 1.0
C      1  0.5549840000000  0.5262040000000  0.4831680000000 1.0
C      1  0.5094200000000  0.5224950000000  0.5037120000000 1.0
C      1  0.5267900000000  0.5767910000000  0.4892110000000 1.0
C      1  0.5123310000000  0.5324850000000  0.5882750000000 1.0
C      1  0.4940290000000  0.5753830000000  0.4842950000000 1.0
C      1  0.4496510000000  0.4311080000000  0.4950490000000 1.0
C      1  0.4833710000000  0.4587970000000  0.4592480000000 1.0
C      1  0.4050120000000  0.4945060000000  0.4990990000000 1.0
C      1  0.5348560000000  0.5571490000000  0.5898410000000 1.0
C      1  0.4652640000000  0.5074330000000  0.4487000000000 1.0
C      1  0.5033610000000  0.4691800000000  0.5032150000000 1.0
C      1  0.4926140000000  0.4573490000000  0.5396760000000 1.0
C      1  0.4510580000000  0.4507990000000  0.4217040000000 1.0
C      1  0.4404570000000  0.5752020000000  0.4896300000000 1.0
C      1  0.5787670000000  0.4867720000000  0.5505670000000 1.0
C      1  0.5070980000000  0.4881270000000  0.5388490000000 1.0
C      1  0.5488370000000  0.5638740000000  0.4695020000000 1.0
C      1  0.4651810000000  0.5365810000000  0.4380200000000 1.0
C      1  0.4398210000000  0.4321980000000  0.4392520000000 1.0
C      1  0.4976470000000  0.4997810000000  0.6055010000000 1.0
C      1  0.4099170000000  0.5258260000000  0.5026650000000 1.0
C      1  0.5652280000000  0.4297970000000  0.4767690000000 1.0
C      1  0.5798610000000  0.4795440000000  0.5115830000000 1.0
C      1  0.4602910000000  0.5126200000000  0.5015420000000 1.0
C      1  0.4125410000000  0.5349850000000  0.5335810000000 1.0
C      1  0.5134830000000  0.5143830000000  0.5595120000000 1.0
C      1  0.4794690000000  0.5045800000000  0.4746120000000 1.0
C      1  0.4379450000000  0.5656720000000  0.4570740000000 1.0
C      1  0.5665950000000  0.5526670000000  0.5475380000000 1.0
C      1  0.5265650000000  0.5857370000000  0.5481010000000 1.0
C      1  0.5479640000000  0.5217850000000  0.4407320000000 1.0
C      1  0.5520370000000  0.4197610000000  0.4532850000000 1.0
C      1  0.4799280000000  0.4616850000000  0.4281450000000 1.0
C      1  0.4303770000000  0.4859510000000  0.5455910000000 1.0
C      1  0.4332310000000  0.5105310000000  0.5222640000000 1.0
C      1  0.4593030000000  0.5663200000000  0.4120110000000 1.0
C      1  0.4527620000000  0.4208050000000  0.5273280000000 1.0
C      1  0.4994970000000  0.5182180000000  0.4288990000000 1.0
C      1  0.5327610000000  0.4652330000000  0.5161220000000 1.0
C      1  0.4273140000000  0.4799420000000  0.4818020000000 1.0
C      1  0.5240080000000  0.4103400000000  0.4648050000000 1.0
C      1  0.5015860000000  0.5428870000000  0.5513890000000 1.0
C      1  0.5309290000000  0.4991940000000  0.5172210000000 1.0
C      1  0.5021150000000  0.4421140000000  0.5940120000000 1.0
C      1  0.4390940000000  0.5197610000000  0.4762040000000 1.0
C      1  0.5851860000000  0.5100100000000  0.5274490000000 1.0
C      1  0.5118710000000  0.5072050000000  0.4738740000000 1.0
C      1  0.4773850000000  0.4997680000000  0.5506300000000 1.0
C      1  0.4219470000000  0.5477260000000  0.4819360000000 1.0
C      1  0.4771360000000  0.4841860000000  0.3952930000000 1.0
C      1  0.5281640000000  0.5369840000000  0.4718810000000 1.0
C      1  0.5551500000000  0.4690550000000  0.4442450000000 1.0
C      1  0.4746580000000  0.5776210000000  0.5323890000000 1.0
C      1  0.4970710000000  0.5944580000000  0.4590150000000 1.0
C      1  0.4317430000000  0.4337340000000  0.4662580000000 1.0
C      1  0.5238340000000  0.4739630000000  0.5647780000000 1.0
C      1  0.5483380000000  0.5669580000000  0.5631400000000 1.0
C      1  0.5656920000000  0.5709270000000  0.4962470000000 1.0
C      1  0.5366290000000  0.6068590000000  0.5287330000000 1.0
C      1  0.4777380000000  0.5714000000000  0.5656760000000 1.0
C      1  0.4595090000000  0.5434030000000  0.4689430000000 1.0
C      1  0.4559070000000  0.5252010000000  0.5836940000000 1.0
C      1  0.5459310000000  0.4950550000000  0.5474570000000 1.0
C      1  0.5048840000000  0.5675150000000  0.5330540000000 1.0
C      1  0.4352460000000  0.5599200000000  0.4265870000000 1.0
C      1  0.5123950000000  0.4511100000000  0.4330100000000 1.0
C      1  0.5718060000000  0.4771740000000  0.4703180000000 1.0
C      1  0.4358350000000  0.5279510000000  0.4238670000000 1.0
C      1  0.4245560000000  0.4540410000000  0.5557840000000 1.0
C      1  0.4302740000000  0.5544290000000  0.5432940000000 1.0
C      1  0.5358620000000  0.4115280000000  0.5159390000000 1.0
C      1  0.5506180000000  0.5269320000000  0.5168800000000 1.0
C      1  0.4456610000000  0.4370590000000  0.5537790000000 1.0
C      1  0.4527510000000  0.4735190000000  0.5009660000000 1.0
C      1  0.5096800000000  0.5688620000000  0.5723290000000 1.0
C      1  0.4797030000000  0.4064160000000  0.5364470000000 1.0
C      1  0.4449200000000  0.4975260000000  0.5742710000000 1.0
C      1  0.4351980000000  0.4958050000000  0.4553010000000 1.0
C      1  0.5843200000000  0.4486340000000  0.4740890000000 1.0
C      1  0.5551980000000  0.4893310000000  0.4191700000000 1.0
C      1  0.5158360000000  0.4686190000000  0.4616430000000 1.0
C      1  0.4487010000000  0.4775740000000  0.4074380000000 1.0
C      1  0.4873910000000  0.5480730000000  0.4180140000000 1.0
C      1  0.5460260000000  0.4829280000000  0.5851480000000 1.0
C      1  0.4916860000000  0.4652610000000  0.5727340000000 1.0
C      1  0.4781650000000  0.4750360000000  0.4834120000000 1.0
C      1  0.5364510000000  0.6025390000000  0.5038570000000 1.0
C      1  0.5482720000000  0.5143920000000  0.5753310000000 1.0
C      1  0.5676880000000  0.5531480000000  0.5177660000000 1.0
C      1  0.5800750000000  0.5304990000000  0.4628380000000 1.0
C      1  0.5148400000000  0.5608450000000  0.4307510000000 1.0
C      1  0.5770310000000  0.5041740000000  0.4415260000000 1.0
C      1  0.4742760000000  0.5304390000000  0.5450580000000 1.0
C      1  0.4465070000000  0.5643560000000  0.5204820000000 1.0
C      1  0.4592590000000  0.4821210000000  0.5324110000000 1.0
C      1  0.5150140000000  0.4120690000000  0.4954150000000 1.0
C      1  0.4806830000000  0.5445430000000  0.5852410000000 1.0
C      1  0.4694970000000  0.5422490000000  0.5144440000000 1.0
C      1  0.4642020000000  0.3989600000000  0.4635030000000 1.0
C      1  0.5261120000000  0.5067720000000  0.4215970000000 1.0
C      1  0.4879270000000  0.5419580000000  0.4858590000000 1.0
C      1  0.4664870000000  0.4425540000000  0.5702880000000 1.0
C      1  0.4492690000000  0.5439070000000  0.5605490000000 1.0
C      1  0.5012760000000  0.5403920000000  0.4546120000000 1.0
C      1  0.5275080000000  0.4428890000000  0.4740480000000 1.0
C      1  0.5244170000000  0.4746530000000  0.4115630000000 1.0
C      1  0.5022500000000  0.4756610000000  0.3874780000000 1.0
C      1  0.5377490000000  0.4944640000000  0.4586730000000 1.0
C      1  0.4773490000000  0.4915340000000  0.5826010000000 1.0
C      1  0.4756540000000  0.4289880000000  0.4724800000000 1.0
C      1  0.5525120000000  0.4884450000000  0.4932240000000 1.0
C      1  0.5974330000000  0.4968220000000  0.4678180000000 1.0
C      1  0.4236530000000  0.4476190000000  0.5095070000000 1.0
C      1  0.5307810000000  0.4224430000000  0.5413770000000 1.0
END
