TITL C-2848502-4955-630 0.0109674486421586 125000 -1019.72719569655 0 0 192 (C1) n - 1
REM
REM in /home/bkarasulu/work/CARBON/AIRSS/Generating-Clusters/AIREBO/with-SteepDescent/Only-C1/SD-CG-opt/Try1-1.4A-POS3A/HFTN-CG
REM
REM
REM
REM
REM
REM ./C.cell (11c1c37f851c82e70ff6c80c92926a4b)
REM
REM compiler GCC version 9.2.1 20190827 (Red Hat 9.2.1-1)
REM options -cpp -mtune=generic -march=x86-64 -g -O0 -fpre-include=/usr/include/finclude/math-vector-fortran.h
REM seed 450499232 -1088385519 -1104713243 819832043 287948856 301570045 -2030255286 -2097620007 1899248994 -406808510 1928400868 1873682474 54263067 1227386977 511898820 674967878 1214330381 -1463650770 1547328911 314797245 1017965027 -476073275 2140445032 524833101 1112139057 -1320705771 1371547547 632225998 835615041 -952730434 131379950 -313971989 -2141470642
REM
CELL 1.54180   50.00000   50.00000   50.00000   90.00000   90.00000   90.00000
LATT -1
SFAC C  
C      1  0.4509780000000  0.5648710000000  0.4092730000000 1.0
C      1  0.4719530000000  0.4423430000000  0.4072810000000 1.0
C      1  0.5299130000000  0.5522020000000  0.4794150000000 1.0
C      1  0.5162260000000  0.5257290000000  0.4380780000000 1.0
C      1  0.5219350000000  0.4156830000000  0.4302640000000 1.0
C      1  0.4656120000000  0.5851300000000  0.5535290000000 1.0
C      1  0.4332080000000  0.4129330000000  0.4932720000000 1.0
C      1  0.4558990000000  0.5435490000000  0.5855460000000 1.0
C      1  0.5121800000000  0.5180120000000  0.6072660000000 1.0
C      1  0.4131370000000  0.5337140000000  0.5050940000000 1.0
C      1  0.5008150000000  0.4836760000000  0.5472320000000 1.0
C      1  0.5752320000000  0.4993160000000  0.5035460000000 1.0
C      1  0.5251410000000  0.4497730000000  0.4334250000000 1.0
C      1  0.4312550000000  0.5775290000000  0.4305310000000 1.0
C      1  0.4252690000000  0.5030460000000  0.4565870000000 1.0
C      1  0.6098060000000  0.4812280000000  0.4781500000000 1.0
C      1  0.4798310000000  0.4343840000000  0.5578740000000 1.0
C      1  0.4998160000000  0.5539560000000  0.5530360000000 1.0
C      1  0.5367990000000  0.4797420000000  0.5855100000000 1.0
C      1  0.5061450000000  0.4257950000000  0.4590220000000 1.0
C      1  0.6025310000000  0.5382750000000  0.4970040000000 1.0
C      1  0.6122170000000  0.5063540000000  0.4903330000000 1.0
C      1  0.3985220000000  0.5070550000000  0.4731420000000 1.0
C      1  0.5227090000000  0.4203390000000  0.5845020000000 1.0
C      1  0.5386390000000  0.4021000000000  0.5077090000000 1.0
C      1  0.5655890000000  0.5525950000000  0.5732060000000 1.0
C      1  0.5327880000000  0.4967790000000  0.4285280000000 1.0
C      1  0.4911880000000  0.4782840000000  0.6034110000000 1.0
C      1  0.5762060000000  0.5889360000000  0.5501850000000 1.0
C      1  0.4286640000000  0.4723920000000  0.5258700000000 1.0
C      1  0.5108450000000  0.3959820000000  0.4889590000000 1.0
C      1  0.4798500000000  0.5114950000000  0.4116530000000 1.0
C      1  0.5882430000000  0.4690630000000  0.5120690000000 1.0
C      1  0.5502870000000  0.4566430000000  0.5132430000000 1.0
C      1  0.4892590000000  0.4700010000000  0.5721190000000 1.0
C      1  0.4918100000000  0.3910570000000  0.5390320000000 1.0
C      1  0.5714680000000  0.4263470000000  0.5283790000000 1.0
C      1  0.5522290000000  0.5829660000000  0.5693370000000 1.0
C      1  0.4638320000000  0.3929630000000  0.5253380000000 1.0
C      1  0.5041000000000  0.5338800000000  0.5715690000000 1.0
C      1  0.5138830000000  0.4489450000000  0.4821430000000 1.0
C      1  0.5691980000000  0.4153060000000  0.5007050000000 1.0
C      1  0.5265570000000  0.4921280000000  0.5020260000000 1.0
C      1  0.4095730000000  0.5257770000000  0.5514110000000 1.0
C      1  0.5315040000000  0.5398810000000  0.5894280000000 1.0
C      1  0.5204330000000  0.4520680000000  0.5966690000000 1.0
C      1  0.4227770000000  0.5497120000000  0.4162380000000 1.0
C      1  0.5576370000000  0.4558400000000  0.5611540000000 1.0
C      1  0.5047700000000  0.4108920000000  0.5618870000000 1.0
C      1  0.5080650000000  0.4678120000000  0.5183640000000 1.0
C      1  0.4261660000000  0.4337880000000  0.5516280000000 1.0
C      1  0.4474700000000  0.4855540000000  0.5871960000000 1.0
C      1  0.4710180000000  0.6009170000000  0.4819650000000 1.0
C      1  0.5122730000000  0.5679220000000  0.5904960000000 1.0
C      1  0.4842280000000  0.5603560000000  0.5941260000000 1.0
C      1  0.4548420000000  0.4364780000000  0.4353440000000 1.0
C      1  0.5523880000000  0.4254490000000  0.4186940000000 1.0
C      1  0.4297150000000  0.4420810000000  0.4662960000000 1.0
C      1  0.5011660000000  0.4130840000000  0.5146620000000 1.0
C      1  0.4517940000000  0.4416190000000  0.4926070000000 1.0
C      1  0.4542870000000  0.4897250000000  0.4447070000000 1.0
C      1  0.5260930000000  0.4336840000000  0.5066290000000 1.0
C      1  0.4719470000000  0.5321540000000  0.5342980000000 1.0
C      1  0.4954810000000  0.6008880000000  0.5492130000000 1.0
C      1  0.5634050000000  0.4987820000000  0.5798870000000 1.0
C      1  0.5056280000000  0.5283480000000  0.4089000000000 1.0
C      1  0.5676600000000  0.4771910000000  0.4521100000000 1.0
C      1  0.6228290000000  0.5528000000000  0.5171650000000 1.0
C      1  0.4574340000000  0.4583970000000  0.5692000000000 1.0
C      1  0.4410230000000  0.4213110000000  0.5763990000000 1.0
C      1  0.5332740000000  0.4075940000000  0.4686580000000 1.0
C      1  0.4648010000000  0.4902830000000  0.3897510000000 1.0
C      1  0.4347040000000  0.5835240000000  0.5473990000000 1.0
C      1  0.4527680000000  0.5358090000000  0.5075240000000 1.0
C      1  0.4347810000000  0.5121370000000  0.5200270000000 1.0
C      1  0.5325590000000  0.4860100000000  0.5534970000000 1.0
C      1  0.3991750000000  0.4605300000000  0.5394560000000 1.0
C      1  0.5260560000000  0.5123120000000  0.3926590000000 1.0
C      1  0.4575750000000  0.3991230000000  0.4738820000000 1.0
C      1  0.4880060000000  0.4686010000000  0.3992110000000 1.0
C      1  0.5325270000000  0.5524990000000  0.4488610000000 1.0
C      1  0.4763790000000  0.6043420000000  0.5212960000000 1.0
C      1  0.5199860000000  0.4800490000000  0.4019080000000 1.0
C      1  0.4744940000000  0.4891530000000  0.4929240000000 1.0
C      1  0.3936700000000  0.5184130000000  0.5278300000000 1.0
C      1  0.4260180000000  0.4669190000000  0.5593270000000 1.0
C      1  0.4309170000000  0.5669770000000  0.5188990000000 1.0
C      1  0.6203920000000  0.5456640000000  0.5416370000000 1.0
C      1  0.6029050000000  0.5051860000000  0.5204590000000 1.0
C      1  0.5977490000000  0.5239950000000  0.5456100000000 1.0
C      1  0.5805980000000  0.4623290000000  0.4796270000000 1.0
C      1  0.4799870000000  0.4455590000000  0.4499600000000 1.0
C      1  0.5849530000000  0.5019000000000  0.4393300000000 1.0
C      1  0.5037450000000  0.5896510000000  0.5074450000000 1.0
C      1  0.4597720000000  0.5113300000000  0.5753570000000 1.0
C      1  0.4659680000000  0.5243970000000  0.3834130000000 1.0
C      1  0.5512520000000  0.4887450000000  0.5252160000000 1.0
C      1  0.5143250000000  0.6144020000000  0.5240570000000 1.0
C      1  0.4636340000000  0.5652230000000  0.5134330000000 1.0
C      1  0.3904210000000  0.4745220000000  0.4947650000000 1.0
C      1  0.5427770000000  0.4549850000000  0.4048510000000 1.0
C      1  0.5589220000000  0.5488030000000  0.4968240000000 1.0
C      1  0.5789260000000  0.5370290000000  0.5216710000000 1.0
C      1  0.4850240000000  0.4899680000000  0.4348110000000 1.0
C      1  0.5885760000000  0.5246340000000  0.4542900000000 1.0
C      1  0.5516900000000  0.5210930000000  0.4031080000000 1.0
C      1  0.4560070000000  0.3816660000000  0.5021040000000 1.0
C      1  0.4877100000000  0.3980040000000  0.4656620000000 1.0
C      1  0.4603190000000  0.4254250000000  0.5915780000000 1.0
C      1  0.5924450000000  0.5506480000000  0.4699880000000 1.0
C      1  0.5245780000000  0.5711440000000  0.4215500000000 1.0
C      1  0.5400940000000  0.6088030000000  0.4837910000000 1.0
C      1  0.5750710000000  0.4262430000000  0.4440120000000 1.0
C      1  0.5700600000000  0.5201610000000  0.4824610000000 1.0
C      1  0.6164030000000  0.4577540000000  0.4967300000000 1.0
C      1  0.4486220000000  0.4762440000000  0.4140050000000 1.0
C      1  0.5578100000000  0.5824700000000  0.4921320000000 1.0
C      1  0.4744110000000  0.6041810000000  0.4532570000000 1.0
C      1  0.5406490000000  0.4879790000000  0.4713350000000 1.0
C      1  0.4220070000000  0.4996660000000  0.5695250000000 1.0
C      1  0.5042250000000  0.6033200000000  0.4462710000000 1.0
C      1  0.5303870000000  0.6042270000000  0.4571980000000 1.0
C      1  0.5497190000000  0.5176140000000  0.4579720000000 1.0
C      1  0.4180620000000  0.4154560000000  0.5236260000000 1.0
C      1  0.5654460000000  0.4558280000000  0.4301780000000 1.0
C      1  0.5459750000000  0.4242980000000  0.5400240000000 1.0
C      1  0.3849850000000  0.5449720000000  0.4994660000000 1.0
C      1  0.4868880000000  0.5194160000000  0.5891910000000 1.0
C      1  0.5315190000000  0.6259630000000  0.5055640000000 1.0
C      1  0.4444560000000  0.5250300000000  0.4702570000000 1.0
C      1  0.5338990000000  0.5616510000000  0.5340240000000 1.0
C      1  0.4153780000000  0.4148480000000  0.4518160000000 1.0
C      1  0.5830760000000  0.4762070000000  0.5646200000000 1.0
C      1  0.4368640000000  0.5813340000000  0.4886170000000 1.0
C      1  0.5449800000000  0.4346660000000  0.4568180000000 1.0
C      1  0.5491500000000  0.5817580000000  0.4439570000000 1.0
C      1  0.5549090000000  0.5333880000000  0.4318340000000 1.0
C      1  0.4580410000000  0.5259730000000  0.4287440000000 1.0
C      1  0.4738980000000  0.4252480000000  0.5289190000000 1.0
C      1  0.5198980000000  0.5794440000000  0.5594160000000 1.0
C      1  0.3857340000000  0.4473670000000  0.4929580000000 1.0
C      1  0.4456170000000  0.5005190000000  0.4906950000000 1.0
C      1  0.4188960000000  0.4833960000000  0.4990050000000 1.0
C      1  0.4986720000000  0.5101270000000  0.4945280000000 1.0
C      1  0.4443880000000  0.4102610000000  0.4473730000000 1.0
C      1  0.5251590000000  0.5297860000000  0.5342300000000 1.0
C      1  0.5443540000000  0.5299500000000  0.5593290000000 1.0
C      1  0.4601750000000  0.5547940000000  0.5563050000000 1.0
C      1  0.4983970000000  0.4609970000000  0.4305430000000 1.0
C      1  0.4300220000000  0.4596510000000  0.4371390000000 1.0
C      1  0.5623050000000  0.5264900000000  0.5947440000000 1.0
C      1  0.5289860000000  0.4005810000000  0.5403330000000 1.0
C      1  0.4697430000000  0.5335810000000  0.4556400000000 1.0
C      1  0.5787190000000  0.4284560000000  0.4773530000000 1.0
C      1  0.5010280000000  0.3930190000000  0.4370080000000 1.0
C      1  0.4840530000000  0.4598650000000  0.4785260000000 1.0
C      1  0.4747160000000  0.5635470000000  0.4571800000000 1.0
C      1  0.5651220000000  0.4975050000000  0.4180240000000 1.0
C      1  0.4957390000000  0.5175450000000  0.4614710000000 1.0
C      1  0.5639480000000  0.5588260000000  0.5398200000000 1.0
C      1  0.5308930000000  0.4547780000000  0.5401600000000 1.0
C      1  0.5133760000000  0.4895570000000  0.4535930000000 1.0
C      1  0.5471960000000  0.4560710000000  0.4810810000000 1.0
C      1  0.4590450000000  0.4804450000000  0.5225590000000 1.0
C      1  0.4470250000000  0.5824100000000  0.4561370000000 1.0
C      1  0.5160020000000  0.4903080000000  0.6072650000000 1.0
C      1  0.4209670000000  0.5528770000000  0.5487290000000 1.0
C      1  0.4890240000000  0.4409760000000  0.5898400000000 1.0
C      1  0.4692320000000  0.5536320000000  0.3915020000000 1.0
C      1  0.4570840000000  0.5055520000000  0.5448630000000 1.0
C      1  0.5724730000000  0.5703830000000  0.4659930000000 1.0
C      1  0.5286070000000  0.5727820000000  0.5065360000000 1.0
C      1  0.4651080000000  0.4796970000000  0.6125860000000 1.0
C      1  0.4519570000000  0.6072020000000  0.5047190000000 1.0
C      1  0.4047990000000  0.4301710000000  0.4860680000000 1.0
C      1  0.5674330000000  0.5086280000000  0.5475870000000 1.0
C      1  0.4987370000000  0.5120350000000  0.5284810000000 1.0
C      1  0.4200720000000  0.4906080000000  0.4253980000000 1.0
C      1  0.4969290000000  0.5581470000000  0.4063440000000 1.0
C      1  0.4938700000000  0.5540970000000  0.5227460000000 1.0
C      1  0.4436630000000  0.4354380000000  0.5242670000000 1.0
C      1  0.4775330000000  0.4541660000000  0.5114050000000 1.0
C      1  0.4842210000000  0.5711720000000  0.4879490000000 1.0
C      1  0.5039130000000  0.5437240000000  0.4947410000000 1.0
C      1  0.4941010000000  0.5738350000000  0.4363780000000 1.0
C      1  0.4297960000000  0.5230640000000  0.4225230000000 1.0
C      1  0.5389740000000  0.5233420000000  0.5073460000000 1.0
C      1  0.4291070000000  0.5495760000000  0.4830200000000 1.0
C      1  0.5489500000000  0.4406670000000  0.5847000000000 1.0
C      1  0.3855800000000  0.5050990000000  0.5011370000000 1.0
C      1  0.4259510000000  0.5279200000000  0.5880330000000 1.0
C      1  0.5819960000000  0.4556490000000  0.5374280000000 1.0
END
