TITL C-2847947-6848-239 0.00138258012508498 125000 -794.536577041325 0 0 151 (C1) n - 1
REM
REM in /home/bkarasulu/work/CARBON/AIRSS/Generating-Clusters/AIREBO/with-SteepDescent/Only-C1/SD-CG-opt/Try1-1.4A-POS3A/HFTN-CG
REM
REM
REM
REM
REM
REM ./C.cell (11c1c37f851c82e70ff6c80c92926a4b)
REM
REM compiler GCC version 9.2.1 20190827 (Red Hat 9.2.1-1)
REM options -cpp -mtune=generic -march=x86-64 -g -O0 -fpre-include=/usr/include/finclude/math-vector-fortran.h
REM seed 1747765145 1020339044 566644137 -894449321 2071648702 -496714049 -1568303994 388962365 -994119074 -954311735 1038229830 1836122000 882110441 -191939419 760484907 1471623738 237231637 840954221 -688409050 -1265050326 -947037503 1813347979 -1172252482 1717263405 -529049861 541067632 -2142938246 -1199903575 1832437785 1373495806 1828978429 -16864367 -1730855163
REM
CELL 1.54180   50.00000   50.00000   50.00000   90.00000   90.00000   90.00000
LATT -1
SFAC C  
C      1  0.6033090000000  0.4645320000000  0.5017510000000 1.0
C      1  0.5014380000000  0.5812110000000  0.5217370000000 1.0
C      1  0.5233370000000  0.4681390000000  0.6018950000000 1.0
C      1  0.4766710000000  0.4472900000000  0.4837490000000 1.0
C      1  0.4355770000000  0.5210910000000  0.4307800000000 1.0
C      1  0.4811530000000  0.5623310000000  0.4231740000000 1.0
C      1  0.4663380000000  0.5431120000000  0.4548590000000 1.0
C      1  0.5239750000000  0.4027540000000  0.5109560000000 1.0
C      1  0.4633980000000  0.3946810000000  0.4946180000000 1.0
C      1  0.5670050000000  0.4545060000000  0.4574160000000 1.0
C      1  0.4533000000000  0.4747110000000  0.4397800000000 1.0
C      1  0.5095550000000  0.5128910000000  0.5822620000000 1.0
C      1  0.4744180000000  0.5929430000000  0.4619000000000 1.0
C      1  0.4753250000000  0.4746570000000  0.5883980000000 1.0
C      1  0.5912890000000  0.5028850000000  0.4823160000000 1.0
C      1  0.4338340000000  0.5215130000000  0.4904070000000 1.0
C      1  0.5320070000000  0.5528130000000  0.4265770000000 1.0
C      1  0.4333320000000  0.4160460000000  0.4724400000000 1.0
C      1  0.4954390000000  0.4703840000000  0.5353670000000 1.0
C      1  0.4124350000000  0.4620450000000  0.5315850000000 1.0
C      1  0.4647690000000  0.5197160000000  0.5202780000000 1.0
C      1  0.4841820000000  0.4331610000000  0.5429620000000 1.0
C      1  0.5596540000000  0.5091700000000  0.4425320000000 1.0
C      1  0.6028470000000  0.5303750000000  0.4781750000000 1.0
C      1  0.5374700000000  0.5185360000000  0.5520030000000 1.0
C      1  0.5662690000000  0.5735740000000  0.4738220000000 1.0
C      1  0.4572200000000  0.4083210000000  0.4576670000000 1.0
C      1  0.6196520000000  0.5384910000000  0.4997310000000 1.0
C      1  0.5141310000000  0.4185150000000  0.4871870000000 1.0
C      1  0.4989280000000  0.5611440000000  0.4943930000000 1.0
C      1  0.5004360000000  0.4564250000000  0.5047310000000 1.0
C      1  0.4385560000000  0.4509930000000  0.5586600000000 1.0
C      1  0.5664370000000  0.4955230000000  0.5806640000000 1.0
C      1  0.5339500000000  0.4623170000000  0.4555490000000 1.0
C      1  0.5219120000000  0.5833280000000  0.5471550000000 1.0
C      1  0.5013490000000  0.4572740000000  0.4510550000000 1.0
C      1  0.5120840000000  0.4497770000000  0.5814320000000 1.0
C      1  0.4486130000000  0.5668180000000  0.4282750000000 1.0
C      1  0.5262720000000  0.4202890000000  0.5399220000000 1.0
C      1  0.5495210000000  0.5871000000000  0.5001990000000 1.0
C      1  0.4353390000000  0.5727370000000  0.4893280000000 1.0
C      1  0.4323170000000  0.5298590000000  0.5212640000000 1.0
C      1  0.4159200000000  0.5103390000000  0.5419340000000 1.0
C      1  0.4584540000000  0.4480180000000  0.4550390000000 1.0
C      1  0.5634340000000  0.4297180000000  0.5074450000000 1.0
C      1  0.4288270000000  0.4829270000000  0.5493730000000 1.0
C      1  0.5789740000000  0.4487990000000  0.4874020000000 1.0
C      1  0.5566390000000  0.5397850000000  0.4550030000000 1.0
C      1  0.4474510000000  0.4434820000000  0.5105800000000 1.0
C      1  0.5487700000000  0.5082880000000  0.5269480000000 1.0
C      1  0.5196090000000  0.5869290000000  0.4584370000000 1.0
C      1  0.5473980000000  0.5736100000000  0.5485830000000 1.0
C      1  0.4637690000000  0.5475990000000  0.5008430000000 1.0
C      1  0.5016560000000  0.4955080000000  0.4967840000000 1.0
C      1  0.4503610000000  0.5224720000000  0.5817750000000 1.0
C      1  0.5358760000000  0.5470350000000  0.4993820000000 1.0
C      1  0.4487450000000  0.4854750000000  0.4109760000000 1.0
C      1  0.4952690000000  0.5367610000000  0.4715760000000 1.0
C      1  0.5042110000000  0.5436440000000  0.4394940000000 1.0
C      1  0.4301990000000  0.5477800000000  0.4212290000000 1.0
C      1  0.4288780000000  0.5073910000000  0.4536580000000 1.0
C      1  0.4929230000000  0.4305760000000  0.5715140000000 1.0
C      1  0.5882050000000  0.4785590000000  0.4605490000000 1.0
C      1  0.4522410000000  0.5719520000000  0.4611630000000 1.0
C      1  0.5553520000000  0.4030240000000  0.5078740000000 1.0
C      1  0.4887500000000  0.5120970000000  0.5553180000000 1.0
C      1  0.4721420000000  0.4273450000000  0.4333160000000 1.0
C      1  0.4870790000000  0.5341910000000  0.4048380000000 1.0
C      1  0.5867500000000  0.5482400000000  0.4639560000000 1.0
C      1  0.4254980000000  0.4464120000000  0.4633300000000 1.0
C      1  0.4967810000000  0.5627780000000  0.5777550000000 1.0
C      1  0.5856230000000  0.5605430000000  0.5220340000000 1.0
C      1  0.4987690000000  0.5236180000000  0.6114300000000 1.0
C      1  0.4522620000000  0.4943710000000  0.5904860000000 1.0
C      1  0.5244510000000  0.5434490000000  0.5832930000000 1.0
C      1  0.5179540000000  0.5315510000000  0.4040650000000 1.0
C      1  0.5314040000000  0.4882690000000  0.5108710000000 1.0
C      1  0.5467460000000  0.4384250000000  0.4350010000000 1.0
C      1  0.5205710000000  0.4590420000000  0.5507420000000 1.0
C      1  0.5165190000000  0.5901700000000  0.4923360000000 1.0
C      1  0.4021180000000  0.4560730000000  0.4860710000000 1.0
C      1  0.4985690000000  0.5174490000000  0.5232010000000 1.0
C      1  0.4013470000000  0.4724570000000  0.5080380000000 1.0
C      1  0.5344230000000  0.4927140000000  0.5708290000000 1.0
C      1  0.4864510000000  0.4566590000000  0.4234650000000 1.0
C      1  0.4997370000000  0.4845480000000  0.5966380000000 1.0
C      1  0.4111100000000  0.4647590000000  0.4418880000000 1.0
C      1  0.4863300000000  0.4048680000000  0.4727790000000 1.0
C      1  0.4156660000000  0.5482810000000  0.4899230000000 1.0
C      1  0.4006410000000  0.5057510000000  0.5118580000000 1.0
C      1  0.5116790000000  0.5119120000000  0.4449780000000 1.0
C      1  0.4845890000000  0.4989400000000  0.4455570000000 1.0
C      1  0.5191070000000  0.4885930000000  0.4105470000000 1.0
C      1  0.5527550000000  0.5461560000000  0.5646380000000 1.0
C      1  0.4885800000000  0.5598650000000  0.5448770000000 1.0
C      1  0.5982570000000  0.4925410000000  0.5110990000000 1.0
C      1  0.4276080000000  0.4172420000000  0.5019730000000 1.0
C      1  0.5534470000000  0.4708450000000  0.4917590000000 1.0
C      1  0.4410030000000  0.4651470000000  0.4865650000000 1.0
C      1  0.5174410000000  0.5428310000000  0.5472800000000 1.0
C      1  0.5416680000000  0.4285310000000  0.5655340000000 1.0
C      1  0.5761410000000  0.5213550000000  0.5641710000000 1.0
C      1  0.4570860000000  0.4663310000000  0.5270640000000 1.0
C      1  0.4644080000000  0.5799080000000  0.5054660000000 1.0
C      1  0.4107080000000  0.4993200000000  0.4800230000000 1.0
C      1  0.4852960000000  0.4782020000000  0.4724950000000 1.0
C      1  0.5687730000000  0.4663760000000  0.5217890000000 1.0
C      1  0.5050980000000  0.4216770000000  0.4269880000000 1.0
C      1  0.5798780000000  0.4679130000000  0.5696260000000 1.0
C      1  0.4835080000000  0.5974970000000  0.4886320000000 1.0
C      1  0.5450410000000  0.4468010000000  0.5304080000000 1.0
C      1  0.4309020000000  0.5315190000000  0.5608600000000 1.0
C      1  0.5581130000000  0.5002570000000  0.4753190000000 1.0
C      1  0.5436230000000  0.5707640000000  0.4497540000000 1.0
C      1  0.5271780000000  0.4499130000000  0.4864870000000 1.0
C      1  0.4739400000000  0.5847140000000  0.5628940000000 1.0
C      1  0.4604900000000  0.4932290000000  0.5564690000000 1.0
C      1  0.4671700000000  0.5219580000000  0.4295670000000 1.0
C      1  0.4250230000000  0.4323900000000  0.5336060000000 1.0
C      1  0.3923510000000  0.5347520000000  0.4999210000000 1.0
C      1  0.5483550000000  0.4615570000000  0.5701860000000 1.0
C      1  0.5350610000000  0.4894060000000  0.4383100000000 1.0
C      1  0.4933290000000  0.4796860000000  0.4081320000000 1.0
C      1  0.5677530000000  0.5517130000000  0.4987290000000 1.0
C      1  0.5631230000000  0.5803010000000  0.5260850000000 1.0
C      1  0.4336380000000  0.5622820000000  0.5223910000000 1.0
C      1  0.5121850000000  0.5431860000000  0.5170550000000 1.0
C      1  0.5292710000000  0.5358300000000  0.4716980000000 1.0
C      1  0.4663060000000  0.5205910000000  0.4803420000000 1.0
C      1  0.4729580000000  0.5026620000000  0.4021640000000 1.0
C      1  0.5909580000000  0.4615040000000  0.5452500000000 1.0
C      1  0.4710810000000  0.4609300000000  0.5575770000000 1.0
C      1  0.5490240000000  0.5266800000000  0.4171760000000 1.0
C      1  0.4962680000000  0.4088700000000  0.5281180000000 1.0
C      1  0.5553820000000  0.5218660000000  0.5003140000000 1.0
C      1  0.4538170000000  0.4907760000000  0.4697420000000 1.0
C      1  0.5033280000000  0.4270910000000  0.4581590000000 1.0
C      1  0.6064170000000  0.5423780000000  0.5247370000000 1.0
C      1  0.4741400000000  0.4874440000000  0.5150630000000 1.0
C      1  0.5243710000000  0.5042220000000  0.4738070000000 1.0
C      1  0.5302480000000  0.4257540000000  0.4180750000000 1.0
C      1  0.4735960000000  0.4221350000000  0.5064570000000 1.0
C      1  0.3965270000000  0.4841110000000  0.4548430000000 1.0
C      1  0.4245380000000  0.4679260000000  0.4167250000000 1.0
C      1  0.5491820000000  0.4801050000000  0.6055990000000 1.0
C      1  0.5747600000000  0.4957220000000  0.5329830000000 1.0
C      1  0.4949440000000  0.5849400000000  0.4445150000000 1.0
C      1  0.4783200000000  0.5370000000000  0.5759870000000 1.0
C      1  0.4611390000000  0.5397830000000  0.5474840000000 1.0
C      1  0.4555570000000  0.5811930000000  0.5378150000000 1.0
C      1  0.5976740000000  0.5171680000000  0.5381620000000 1.0
END
