TITL C-2848507-1641-65 0.000271723841513588 125000 -761.601144025998 0 0 138 (C1) n - 1
REM
REM in /home/bkarasulu/work/CARBON/AIRSS/Generating-Clusters/AIREBO/with-SteepDescent/Only-C1/SD-CG-opt/Try1-1.4A-POS3A/HFTN-CG
REM
REM
REM
REM
REM
REM ./C.cell (11c1c37f851c82e70ff6c80c92926a4b)
REM
REM compiler GCC version 9.2.1 20190827 (Red Hat 9.2.1-1)
REM options -cpp -mtune=generic -march=x86-64 -g -O0 -fpre-include=/usr/include/finclude/math-vector-fortran.h
REM seed -993783347 589678980 408929807 -1861311446 -861337150 899003330 1589974914 2135512709 -2112719579 305074621 1614608366 -1387058528 -385207583 135885538 109024680 -1929489157 -513324418 -1312380693 458261297 1890753016 -846450497 1544405092 -1399181355 353595490 626901832 -142067781 867231499 -1667753302 -1586593041 1919028915 1125881257 -1496606562 -108204066
REM
CELL 1.54180   50.00000   50.00000   50.00000   90.00000   90.00000   90.00000
LATT -1
SFAC C  
C      1  0.5685480000000  0.4753830000000  0.4983940000000 1.0
C      1  0.4889380000000  0.5791200000000  0.5062580000000 1.0
C      1  0.5301340000000  0.4587960000000  0.4323550000000 1.0
C      1  0.5450220000000  0.4411360000000  0.4486930000000 1.0
C      1  0.5005300000000  0.5618720000000  0.4589410000000 1.0
C      1  0.4390110000000  0.5156560000000  0.4595620000000 1.0
C      1  0.4798320000000  0.4447260000000  0.4791590000000 1.0
C      1  0.5308810000000  0.4422890000000  0.5231120000000 1.0
C      1  0.5301630000000  0.5042570000000  0.6062950000000 1.0
C      1  0.4450670000000  0.5438370000000  0.5418670000000 1.0
C      1  0.5444020000000  0.5122180000000  0.4117260000000 1.0
C      1  0.4820630000000  0.4910030000000  0.5467500000000 1.0
C      1  0.4479150000000  0.4480480000000  0.5766020000000 1.0
C      1  0.4598340000000  0.5076150000000  0.5340230000000 1.0
C      1  0.4722300000000  0.4287970000000  0.5691710000000 1.0
C      1  0.4989140000000  0.5349030000000  0.4382710000000 1.0
C      1  0.4834290000000  0.3611930000000  0.5414740000000 1.0
C      1  0.4500020000000  0.5078350000000  0.5869400000000 1.0
C      1  0.5911720000000  0.4724360000000  0.5309700000000 1.0
C      1  0.4971360000000  0.5420280000000  0.4062540000000 1.0
C      1  0.5359410000000  0.4888990000000  0.4305680000000 1.0
C      1  0.4626830000000  0.5697980000000  0.5550290000000 1.0
C      1  0.3781840000000  0.4806360000000  0.4755290000000 1.0
C      1  0.4957540000000  0.5996960000000  0.5289870000000 1.0
C      1  0.5370100000000  0.5160910000000  0.4729430000000 1.0
C      1  0.5926650000000  0.5508590000000  0.5132710000000 1.0
C      1  0.5184290000000  0.5730490000000  0.5594640000000 1.0
C      1  0.4699040000000  0.5766730000000  0.4608800000000 1.0
C      1  0.5332520000000  0.4935050000000  0.5442310000000 1.0
C      1  0.5082530000000  0.5210230000000  0.5864220000000 1.0
C      1  0.6086040000000  0.4880210000000  0.4789390000000 1.0
C      1  0.4528200000000  0.4328200000000  0.4835060000000 1.0
C      1  0.5775990000000  0.4470950000000  0.5128060000000 1.0
C      1  0.5086640000000  0.5820300000000  0.4829470000000 1.0
C      1  0.5802040000000  0.4825710000000  0.5679120000000 1.0
C      1  0.5296110000000  0.5635070000000  0.4435410000000 1.0
C      1  0.4724110000000  0.4875960000000  0.4875590000000 1.0
C      1  0.4954990000000  0.4279120000000  0.4540950000000 1.0
C      1  0.4600280000000  0.4740170000000  0.4351510000000 1.0
C      1  0.5213160000000  0.5919930000000  0.5392270000000 1.0
C      1  0.5180230000000  0.5365960000000  0.5254640000000 1.0
C      1  0.5277140000000  0.5512490000000  0.4159820000000 1.0
C      1  0.5638290000000  0.5403460000000  0.5561080000000 1.0
C      1  0.5775200000000  0.4450910000000  0.4487260000000 1.0
C      1  0.4927980000000  0.5718340000000  0.5712710000000 1.0
C      1  0.5647640000000  0.4690980000000  0.4686460000000 1.0
C      1  0.3930620000000  0.5020150000000  0.4915530000000 1.0
C      1  0.4859530000000  0.4643540000000  0.5062600000000 1.0
C      1  0.5108280000000  0.5060110000000  0.5123590000000 1.0
C      1  0.5327940000000  0.4905980000000  0.5781160000000 1.0
C      1  0.4863140000000  0.5261410000000  0.5035310000000 1.0
C      1  0.4490440000000  0.4464190000000  0.4331870000000 1.0
C      1  0.4048930000000  0.5278040000000  0.5102910000000 1.0
C      1  0.5314820000000  0.5949570000000  0.4903750000000 1.0
C      1  0.5343870000000  0.4090850000000  0.5031500000000 1.0
C      1  0.3995800000000  0.4662090000000  0.4648150000000 1.0
C      1  0.4458850000000  0.5168300000000  0.4139560000000 1.0
C      1  0.4655500000000  0.5933890000000  0.5352040000000 1.0
C      1  0.5391300000000  0.4845470000000  0.4636640000000 1.0
C      1  0.5659390000000  0.5055930000000  0.4844740000000 1.0
C      1  0.6177880000000  0.4988620000000  0.5014940000000 1.0
C      1  0.5720610000000  0.5752460000000  0.5108570000000 1.0
C      1  0.4826200000000  0.5304960000000  0.5428740000000 1.0
C      1  0.5777460000000  0.5595000000000  0.4838620000000 1.0
C      1  0.5020420000000  0.5164400000000  0.3900640000000 1.0
C      1  0.5795120000000  0.5245810000000  0.5303790000000 1.0
C      1  0.4657790000000  0.5882700000000  0.4867310000000 1.0
C      1  0.4961150000000  0.4365020000000  0.5875300000000 1.0
C      1  0.4551050000000  0.5381460000000  0.5098260000000 1.0
C      1  0.5221950000000  0.5154350000000  0.4445960000000 1.0
C      1  0.5657060000000  0.5009630000000  0.5500120000000 1.0
C      1  0.4746800000000  0.5207620000000  0.5911220000000 1.0
C      1  0.4674250000000  0.4213250000000  0.4377010000000 1.0
C      1  0.5635830000000  0.4611900000000  0.5473550000000 1.0
C      1  0.4673120000000  0.5254720000000  0.4465550000000 1.0
C      1  0.4607790000000  0.4932300000000  0.4114810000000 1.0
C      1  0.4524390000000  0.5049380000000  0.5030290000000 1.0
C      1  0.4828720000000  0.4165980000000  0.5430060000000 1.0
C      1  0.4578580000000  0.4711110000000  0.5546930000000 1.0
C      1  0.4242360000000  0.4925080000000  0.5012960000000 1.0
C      1  0.5486940000000  0.4388350000000  0.5609500000000 1.0
C      1  0.4879770000000  0.4765760000000  0.4525500000000 1.0
C      1  0.5252460000000  0.4441780000000  0.5739070000000 1.0
C      1  0.4788910000000  0.4328780000000  0.5170450000000 1.0
C      1  0.5427300000000  0.5833580000000  0.5174270000000 1.0
C      1  0.5060860000000  0.3995030000000  0.4459440000000 1.0
C      1  0.4871480000000  0.5071150000000  0.4643270000000 1.0
C      1  0.4333460000000  0.5458730000000  0.4264180000000 1.0
C      1  0.5014840000000  0.5336200000000  0.4778610000000 1.0
C      1  0.5301270000000  0.5126470000000  0.3885020000000 1.0
C      1  0.4828190000000  0.4661650000000  0.5775320000000 1.0
C      1  0.5454020000000  0.4167120000000  0.5401760000000 1.0
C      1  0.4233370000000  0.4764540000000  0.4726150000000 1.0
C      1  0.5061450000000  0.5114760000000  0.5541620000000 1.0
C      1  0.5077420000000  0.4642750000000  0.5615810000000 1.0
C      1  0.5324540000000  0.5461490000000  0.4794300000000 1.0
C      1  0.6002240000000  0.4982390000000  0.5239490000000 1.0
C      1  0.4113440000000  0.5253370000000  0.4767900000000 1.0
C      1  0.4346720000000  0.5216140000000  0.5656020000000 1.0
C      1  0.4155760000000  0.5475730000000  0.4549380000000 1.0
C      1  0.5062410000000  0.4774630000000  0.5302690000000 1.0
C      1  0.4175950000000  0.5036870000000  0.5533300000000 1.0
C      1  0.4474570000000  0.5593800000000  0.4540020000000 1.0
C      1  0.3982150000000  0.4721850000000  0.5237450000000 1.0
C      1  0.5446140000000  0.4713740000000  0.5210220000000 1.0
C      1  0.5577100000000  0.5530490000000  0.4594970000000 1.0
C      1  0.5090810000000  0.4611930000000  0.4743350000000 1.0
C      1  0.5961110000000  0.4734730000000  0.4510100000000 1.0
C      1  0.5306720000000  0.5468920000000  0.5520240000000 1.0
C      1  0.4489160000000  0.5918150000000  0.5115560000000 1.0
C      1  0.5840420000000  0.5273970000000  0.4409080000000 1.0
C      1  0.4483500000000  0.5398630000000  0.4792380000000 1.0
C      1  0.4201250000000  0.5519790000000  0.5228090000000 1.0
C      1  0.5246340000000  0.4314380000000  0.4718970000000 1.0
C      1  0.3991450000000  0.5013160000000  0.5308610000000 1.0
C      1  0.5915850000000  0.4224460000000  0.4417790000000 1.0
C      1  0.4257670000000  0.4532800000000  0.5222000000000 1.0
C      1  0.5029040000000  0.4540150000000  0.4355040000000 1.0
C      1  0.5151120000000  0.4052820000000  0.5312770000000 1.0
C      1  0.5558880000000  0.5374770000000  0.4291980000000 1.0
C      1  0.4352580000000  0.4841660000000  0.5324870000000 1.0
C      1  0.4911030000000  0.3853940000000  0.5397940000000 1.0
C      1  0.5255670000000  0.4816300000000  0.4947700000000 1.0
C      1  0.5864420000000  0.5046900000000  0.4608800000000 1.0
C      1  0.5640050000000  0.4229560000000  0.5126510000000 1.0
C      1  0.5589310000000  0.5263180000000  0.5063610000000 1.0
C      1  0.4900420000000  0.5535720000000  0.5211540000000 1.0
C      1  0.5096420000000  0.4324020000000  0.5024260000000 1.0
C      1  0.4429660000000  0.4258900000000  0.4580730000000 1.0
C      1  0.4506800000000  0.4868960000000  0.4623130000000 1.0
C      1  0.4445480000000  0.4785930000000  0.5911950000000 1.0
C      1  0.5393470000000  0.5233480000000  0.5724720000000 1.0
C      1  0.4774870000000  0.5434320000000  0.5705750000000 1.0
C      1  0.4453320000000  0.4371400000000  0.5114910000000 1.0
C      1  0.4821340000000  0.4963120000000  0.3929210000000 1.0
C      1  0.4661770000000  0.5433220000000  0.4176200000000 1.0
C      1  0.4235630000000  0.5781540000000  0.5145950000000 1.0
C      1  0.5397700000000  0.5515200000000  0.5086350000000 1.0
END
