TITL C-2848500-1637-113 0.00355510177854631 125000 -624.408724657565 0 0 113 (C1) n - 1
REM
REM in /home/bkarasulu/work/CARBON/AIRSS/Generating-Clusters/AIREBO/with-SteepDescent/Only-C1/SD-CG-opt/Try1-1.4A-POS3A/HFTN-CG
REM
REM
REM
REM
REM
REM ./C.cell (11c1c37f851c82e70ff6c80c92926a4b)
REM
REM compiler GCC version 9.2.1 20190827 (Red Hat 9.2.1-1)
REM options -cpp -mtune=generic -march=x86-64 -g -O0 -fpre-include=/usr/include/finclude/math-vector-fortran.h
REM seed 1642722812 -1339024723 622391416 -1564024017 1275115890 2041005470 -1823926832 -194691896 749591303 -901475154 -180121208 893603476 603282741 -1320878334 -1233194443 1295992753 -903437560 1363981114 684337308 504437842 228333095 681618022 -498915195 643885353 1342323752 1417897978 -1753815293 1756671588 1680632566 -58859604 749346390 649393255 1561601495
REM
CELL 1.54180   50.00000   50.00000   50.00000   90.00000   90.00000   90.00000
LATT -1
SFAC C  
C      1  0.5085430000000  0.4949200000000  0.4180350000000 1.0
C      1  0.4828790000000  0.5162650000000  0.4798720000000 1.0
C      1  0.5053380000000  0.5303510000000  0.4362040000000 1.0
C      1  0.4368960000000  0.5754970000000  0.5043250000000 1.0
C      1  0.4749250000000  0.5409910000000  0.5197950000000 1.0
C      1  0.4291810000000  0.4999180000000  0.5214670000000 1.0
C      1  0.4504760000000  0.4867100000000  0.5877270000000 1.0
C      1  0.4882140000000  0.5528490000000  0.4949700000000 1.0
C      1  0.4817390000000  0.5281470000000  0.4118270000000 1.0
C      1  0.4848430000000  0.4183980000000  0.4674430000000 1.0
C      1  0.4640530000000  0.5508130000000  0.5781320000000 1.0
C      1  0.5141310000000  0.5427510000000  0.5294600000000 1.0
C      1  0.4406460000000  0.5120900000000  0.5950300000000 1.0
C      1  0.4883210000000  0.5366300000000  0.5493390000000 1.0
C      1  0.4916620000000  0.5098580000000  0.5609880000000 1.0
C      1  0.4262320000000  0.5476650000000  0.4698480000000 1.0
C      1  0.5360240000000  0.5899210000000  0.5134880000000 1.0
C      1  0.5541580000000  0.5479760000000  0.4555860000000 1.0
C      1  0.5601980000000  0.5328860000000  0.4314140000000 1.0
C      1  0.4445990000000  0.5284600000000  0.5112380000000 1.0
C      1  0.5592390000000  0.4286580000000  0.4524460000000 1.0
C      1  0.4769190000000  0.4729720000000  0.4557050000000 1.0
C      1  0.5227700000000  0.5497340000000  0.4539540000000 1.0
C      1  0.4775100000000  0.6011890000000  0.4949850000000 1.0
C      1  0.5545490000000  0.6086370000000  0.5085400000000 1.0
C      1  0.4491470000000  0.4323480000000  0.5701950000000 1.0
C      1  0.5426060000000  0.4203970000000  0.5082360000000 1.0
C      1  0.5226770000000  0.4858650000000  0.4704950000000 1.0
C      1  0.4604800000000  0.4515110000000  0.5005570000000 1.0
C      1  0.5223220000000  0.5076110000000  0.4966340000000 1.0
C      1  0.5134100000000  0.4631470000000  0.4220870000000 1.0
C      1  0.4356270000000  0.4768560000000  0.4233530000000 1.0
C      1  0.4649520000000  0.4051190000000  0.5339480000000 1.0
C      1  0.4969800000000  0.6249410000000  0.5013870000000 1.0
C      1  0.5181340000000  0.4520640000000  0.4948810000000 1.0
C      1  0.5225330000000  0.5852610000000  0.5609010000000 1.0
C      1  0.4664450000000  0.5558900000000  0.4693290000000 1.0
C      1  0.5021250000000  0.5117720000000  0.5220960000000 1.0
C      1  0.5134190000000  0.5335200000000  0.4032270000000 1.0
C      1  0.5366850000000  0.4781740000000  0.5063690000000 1.0
C      1  0.5714660000000  0.5527730000000  0.4835090000000 1.0
C      1  0.5087120000000  0.5971770000000  0.4856280000000 1.0
C      1  0.4288600000000  0.5495150000000  0.4969090000000 1.0
C      1  0.5533680000000  0.4918890000000  0.5326370000000 1.0
C      1  0.4132110000000  0.4907470000000  0.4950340000000 1.0
C      1  0.5386360000000  0.5423960000000  0.5058830000000 1.0
C      1  0.4615350000000  0.5022510000000  0.4980150000000 1.0
C      1  0.4862670000000  0.5029090000000  0.4425230000000 1.0
C      1  0.5819940000000  0.4891080000000  0.4902470000000 1.0
C      1  0.5285850000000  0.4438360000000  0.5261850000000 1.0
C      1  0.4299330000000  0.5371920000000  0.4211320000000 1.0
C      1  0.5725450000000  0.5087900000000  0.5163120000000 1.0
C      1  0.5408480000000  0.4259130000000  0.5501550000000 1.0
C      1  0.5722490000000  0.4375390000000  0.4766210000000 1.0
C      1  0.5161680000000  0.5780690000000  0.4433640000000 1.0
C      1  0.5010130000000  0.3966720000000  0.4819440000000 1.0
C      1  0.5317690000000  0.4438880000000  0.4418660000000 1.0
C      1  0.5073080000000  0.4664930000000  0.5304210000000 1.0
C      1  0.4346730000000  0.4744120000000  0.5403390000000 1.0
C      1  0.4805390000000  0.4857250000000  0.5822050000000 1.0
C      1  0.4913600000000  0.4230410000000  0.5319400000000 1.0
C      1  0.4620410000000  0.4752640000000  0.4133300000000 1.0
C      1  0.5356600000000  0.5135790000000  0.4164230000000 1.0
C      1  0.4444150000000  0.4215650000000  0.5421220000000 1.0
C      1  0.4902540000000  0.5574580000000  0.5844360000000 1.0
C      1  0.4440550000000  0.5156120000000  0.5477170000000 1.0
C      1  0.5415100000000  0.5502120000000  0.5618990000000 1.0
C      1  0.5157570000000  0.5993280000000  0.4564320000000 1.0
C      1  0.5568630000000  0.5037400000000  0.4395040000000 1.0
C      1  0.5041930000000  0.4663040000000  0.5877740000000 1.0
C      1  0.4274500000000  0.4922990000000  0.4459530000000 1.0
C      1  0.4491800000000  0.4506000000000  0.5285950000000 1.0
C      1  0.5095010000000  0.5332510000000  0.4782340000000 1.0
C      1  0.4548900000000  0.4761500000000  0.4814330000000 1.0
C      1  0.5112850000000  0.4246090000000  0.5564660000000 1.0
C      1  0.4439260000000  0.5302450000000  0.5733450000000 1.0
C      1  0.5771230000000  0.5429920000000  0.5157270000000 1.0
C      1  0.5587360000000  0.5215550000000  0.4879790000000 1.0
C      1  0.5258540000000  0.3979500000000  0.5006530000000 1.0
C      1  0.4361510000000  0.5189050000000  0.4438860000000 1.0
C      1  0.4776140000000  0.4971760000000  0.4040460000000 1.0
C      1  0.4747210000000  0.4461130000000  0.5505980000000 1.0
C      1  0.5393410000000  0.4589630000000  0.4692060000000 1.0
C      1  0.4933520000000  0.4866720000000  0.4796880000000 1.0
C      1  0.5912960000000  0.5161260000000  0.4789200000000 1.0
C      1  0.5409150000000  0.4843420000000  0.5635060000000 1.0
C      1  0.4638320000000  0.5248990000000  0.4551820000000 1.0
C      1  0.4807770000000  0.4550090000000  0.4270950000000 1.0
C      1  0.5445790000000  0.4794830000000  0.6109750000000 1.0
C      1  0.5843170000000  0.4225970000000  0.5261680000000 1.0
C      1  0.4595560000000  0.5476550000000  0.4146820000000 1.0
C      1  0.4447220000000  0.5579090000000  0.4436730000000 1.0
C      1  0.4988060000000  0.4418910000000  0.5759790000000 1.0
C      1  0.4270500000000  0.4826480000000  0.4726160000000 1.0
C      1  0.4832790000000  0.4789930000000  0.5489820000000 1.0
C      1  0.4607720000000  0.5814940000000  0.4903870000000 1.0
C      1  0.5176130000000  0.5674530000000  0.4965370000000 1.0
C      1  0.5687570000000  0.4233780000000  0.5495820000000 1.0
C      1  0.5030240000000  0.4229370000000  0.5038940000000 1.0
C      1  0.5474380000000  0.5028720000000  0.4658900000000 1.0
C      1  0.5307430000000  0.4774490000000  0.5879380000000 1.0
C      1  0.4596420000000  0.4275060000000  0.4842820000000 1.0
C      1  0.5706740000000  0.4673060000000  0.4790590000000 1.0
C      1  0.5178870000000  0.5639400000000  0.5809260000000 1.0
C      1  0.5696470000000  0.4241900000000  0.5017600000000 1.0
C      1  0.5205920000000  0.4930690000000  0.5394400000000 1.0
C      1  0.4883330000000  0.4675870000000  0.5036240000000 1.0
C      1  0.5531180000000  0.5480390000000  0.5361420000000 1.0
C      1  0.4694960000000  0.5026650000000  0.5288240000000 1.0
C      1  0.5005000000000  0.4303870000000  0.4397760000000 1.0
C      1  0.5236100000000  0.5749220000000  0.5350650000000 1.0
C      1  0.4346900000000  0.4746840000000  0.5675060000000 1.0
C      1  0.4978350000000  0.4489310000000  0.4677670000000 1.0
END
