TITL C-2848507-1641-297 0.00593361449891902 125000 -580.540865547287 0 0 108 (C1) n - 1
REM
REM in /home/bkarasulu/work/CARBON/AIRSS/Generating-Clusters/AIREBO/with-SteepDescent/Only-C1/SD-CG-opt/Try1-1.4A-POS3A/HFTN-CG
REM
REM
REM
REM
REM
REM ./C.cell (11c1c37f851c82e70ff6c80c92926a4b)
REM
REM compiler GCC version 9.2.1 20190827 (Red Hat 9.2.1-1)
REM options -cpp -mtune=generic -march=x86-64 -g -O0 -fpre-include=/usr/include/finclude/math-vector-fortran.h
REM seed 1329434488 1474274887 790341309 1941209225 552233850 1324862884 756533397 385083335 1948063437 439074921 843832931 -682196124 1266021884 1477959234 2111942321 -1199283098 -238296417 1056832718 -1861320564 1687539111 -729824060 547289464 320163321 1187004937 1392019318 1129078523 -1398758691 -321297706 544429348 998696360 1402703191 -1436584897 -2119727380
REM
CELL 1.54180   50.00000   50.00000   50.00000   90.00000   90.00000   90.00000
LATT -1
SFAC C  
C      1  0.4788140000000  0.4761310000000  0.4615270000000 1.0
C      1  0.5181430000000  0.5043910000000  0.5764110000000 1.0
C      1  0.4582050000000  0.5111370000000  0.5280400000000 1.0
C      1  0.5790240000000  0.5173870000000  0.4737510000000 1.0
C      1  0.4784140000000  0.4750960000000  0.5954110000000 1.0
C      1  0.4250240000000  0.5748610000000  0.5091770000000 1.0
C      1  0.4970160000000  0.5502290000000  0.5687960000000 1.0
C      1  0.4976750000000  0.5372310000000  0.4536580000000 1.0
C      1  0.5066080000000  0.5955190000000  0.5119220000000 1.0
C      1  0.5365430000000  0.5091830000000  0.4316130000000 1.0
C      1  0.5639080000000  0.5443010000000  0.4687880000000 1.0
C      1  0.5365210000000  0.4440380000000  0.5580650000000 1.0
C      1  0.5090270000000  0.5104210000000  0.4983310000000 1.0
C      1  0.4274210000000  0.4510830000000  0.4553200000000 1.0
C      1  0.5362070000000  0.5450000000000  0.4493930000000 1.0
C      1  0.4823520000000  0.5442700000000  0.4174730000000 1.0
C      1  0.4904000000000  0.4873020000000  0.4315560000000 1.0
C      1  0.5092380000000  0.4406370000000  0.4292620000000 1.0
C      1  0.5997760000000  0.4826420000000  0.5184790000000 1.0
C      1  0.5098650000000  0.5232130000000  0.5287840000000 1.0
C      1  0.4386940000000  0.4330070000000  0.4761050000000 1.0
C      1  0.4972030000000  0.5710970000000  0.4505590000000 1.0
C      1  0.4305760000000  0.4368200000000  0.5089400000000 1.0
C      1  0.4243440000000  0.5111870000000  0.4692560000000 1.0
C      1  0.4116030000000  0.4792950000000  0.5084170000000 1.0
C      1  0.4533740000000  0.4115330000000  0.5063340000000 1.0
C      1  0.4863970000000  0.5333020000000  0.5454030000000 1.0
C      1  0.5013440000000  0.4527160000000  0.5003950000000 1.0
C      1  0.5713780000000  0.4938680000000  0.4537070000000 1.0
C      1  0.5311130000000  0.4319990000000  0.4463510000000 1.0
C      1  0.5447850000000  0.5622040000000  0.5246390000000 1.0
C      1  0.5323090000000  0.4736440000000  0.5732510000000 1.0
C      1  0.5080850000000  0.4708240000000  0.5495560000000 1.0
C      1  0.4697890000000  0.4792020000000  0.5420910000000 1.0
C      1  0.5749470000000  0.4636740000000  0.5254310000000 1.0
C      1  0.5133540000000  0.5552170000000  0.4263600000000 1.0
C      1  0.4653340000000  0.5284370000000  0.4320910000000 1.0
C      1  0.4259990000000  0.4710040000000  0.5525780000000 1.0
C      1  0.5628020000000  0.5300490000000  0.4372390000000 1.0
C      1  0.5462820000000  0.5209610000000  0.5858920000000 1.0
C      1  0.5558500000000  0.5399700000000  0.5727440000000 1.0
C      1  0.4939410000000  0.5654240000000  0.5085290000000 1.0
C      1  0.4594010000000  0.4903220000000  0.4233600000000 1.0
C      1  0.5907710000000  0.4670140000000  0.4597770000000 1.0
C      1  0.5157530000000  0.4194670000000  0.4981350000000 1.0
C      1  0.5205120000000  0.5470380000000  0.5089400000000 1.0
C      1  0.5192400000000  0.4309580000000  0.4724460000000 1.0
C      1  0.5565690000000  0.4445120000000  0.4473120000000 1.0
C      1  0.4420230000000  0.5528320000000  0.5544910000000 1.0
C      1  0.5053820000000  0.5335530000000  0.5883630000000 1.0
C      1  0.4881810000000  0.5251410000000  0.4794040000000 1.0
C      1  0.4500130000000  0.4842820000000  0.3996660000000 1.0
C      1  0.3975440000000  0.5201830000000  0.5127830000000 1.0
C      1  0.5446410000000  0.4780330000000  0.5197990000000 1.0
C      1  0.5375160000000  0.4800940000000  0.4209600000000 1.0
C      1  0.5119350000000  0.4677030000000  0.4212320000000 1.0
C      1  0.4299200000000  0.5286730000000  0.5501270000000 1.0
C      1  0.5275330000000  0.5320230000000  0.4796690000000 1.0
C      1  0.4446920000000  0.5749850000000  0.5308580000000 1.0
C      1  0.5116870000000  0.4081310000000  0.5250120000000 1.0
C      1  0.5068110000000  0.5153010000000  0.4296240000000 1.0
C      1  0.4120590000000  0.5348640000000  0.4759000000000 1.0
C      1  0.4889010000000  0.4333430000000  0.5238650000000 1.0
C      1  0.5008620000000  0.5771380000000  0.5566360000000 1.0
C      1  0.5968440000000  0.5444810000000  0.5403430000000 1.0
C      1  0.5604350000000  0.4678400000000  0.5548840000000 1.0
C      1  0.4354630000000  0.4978050000000  0.5578760000000 1.0
C      1  0.4741160000000  0.5452930000000  0.4950410000000 1.0
C      1  0.4708090000000  0.5084740000000  0.4591490000000 1.0
C      1  0.4667920000000  0.5757490000000  0.5605230000000 1.0
C      1  0.5188830000000  0.5815160000000  0.5352790000000 1.0
C      1  0.5542720000000  0.4694990000000  0.4917610000000 1.0
C      1  0.5707180000000  0.4444570000000  0.4756800000000 1.0
C      1  0.5838900000000  0.4797330000000  0.4889120000000 1.0
C      1  0.5118880000000  0.4310660000000  0.5491450000000 1.0
C      1  0.5590010000000  0.4988760000000  0.5405850000000 1.0
C      1  0.4850640000000  0.4746830000000  0.5170960000000 1.0
C      1  0.5018410000000  0.5287340000000  0.3988160000000 1.0
C      1  0.4204960000000  0.4605150000000  0.5260810000000 1.0
C      1  0.4860910000000  0.4474700000000  0.5608220000000 1.0
C      1  0.4412460000000  0.5090190000000  0.4451990000000 1.0
C      1  0.5591030000000  0.4694160000000  0.4354910000000 1.0
C      1  0.5767470000000  0.4385270000000  0.5069090000000 1.0
C      1  0.5084230000000  0.4631900000000  0.4721080000000 1.0
C      1  0.4875490000000  0.4894690000000  0.5692290000000 1.0
C      1  0.4629840000000  0.4750400000000  0.4917090000000 1.0
C      1  0.4245650000000  0.5509990000000  0.4953920000000 1.0
C      1  0.4722860000000  0.5825110000000  0.4445320000000 1.0
C      1  0.4492260000000  0.5353210000000  0.5058890000000 1.0
C      1  0.4632350000000  0.4456040000000  0.5718360000000 1.0
C      1  0.5635750000000  0.5480890000000  0.5436410000000 1.0
C      1  0.5890580000000  0.5105180000000  0.5025020000000 1.0
C      1  0.4746960000000  0.5590650000000  0.5324180000000 1.0
C      1  0.4608530000000  0.4526000000000  0.4492150000000 1.0
C      1  0.4629030000000  0.4199880000000  0.4621320000000 1.0
C      1  0.4629370000000  0.4438900000000  0.5055950000000 1.0
C      1  0.5330970000000  0.4805150000000  0.4735790000000 1.0
C      1  0.4210950000000  0.4548290000000  0.5738220000000 1.0
C      1  0.4252770000000  0.5152000000000  0.5192390000000 1.0
C      1  0.5593000000000  0.5626060000000  0.4940570000000 1.0
C      1  0.5146700000000  0.5889610000000  0.4635410000000 1.0
C      1  0.5772230000000  0.5204030000000  0.5293700000000 1.0
C      1  0.4654190000000  0.5137510000000  0.5604570000000 1.0
C      1  0.5301040000000  0.5107240000000  0.5462310000000 1.0
C      1  0.4353430000000  0.4949510000000  0.4938180000000 1.0
C      1  0.5155530000000  0.4847120000000  0.5196160000000 1.0
C      1  0.5418570000000  0.5078710000000  0.4631420000000 1.0
C      1  0.4834480000000  0.4309420000000  0.4373550000000 1.0
END
