TITL C-2847944-5688-153 0.00103372707799001 125000 -413.358222528113 0 0 75 (C1) n - 1
REM
REM in /home/bkarasulu/work/CARBON/AIRSS/Generating-Clusters/AIREBO/with-SteepDescent/Only-C1/SD-CG-opt/Try1-1.4A-POS3A/HFTN-CG
REM
REM
REM
REM
REM
REM ./C.cell (11c1c37f851c82e70ff6c80c92926a4b)
REM
REM compiler GCC version 9.2.1 20190827 (Red Hat 9.2.1-1)
REM options -cpp -mtune=generic -march=x86-64 -g -O0 -fpre-include=/usr/include/finclude/math-vector-fortran.h
REM seed -1776953690 667423452 -32677579 539989315 -197367755 -1611288417 2085259666 -782280025 -1534804361 1844824881 1952943207 -573942762 -40265346 336389932 -271238581 -96579601 -1694672788 1802756107 -1438693177 -2095344113 -1628931897 -1676722242 -1018596313 881665097 356836600 1479242480 255781872 -2087125981 -452634337 -1185098966 -1415770482 1234449105 1908975404
REM
CELL 1.54180   50.00000   50.00000   50.00000   90.00000   90.00000   90.00000
LATT -1
SFAC C  
C      1  0.6013200000000  0.5153450000000  0.4633250000000 1.0
C      1  0.4609730000000  0.5400620000000  0.5301050000000 1.0
C      1  0.4977760000000  0.4430270000000  0.5508320000000 1.0
C      1  0.5377380000000  0.5469650000000  0.4345570000000 1.0
C      1  0.5539530000000  0.5975150000000  0.4272080000000 1.0
C      1  0.4720100000000  0.5087140000000  0.4347620000000 1.0
C      1  0.4816020000000  0.4901850000000  0.5241700000000 1.0
C      1  0.4200100000000  0.5115460000000  0.5014670000000 1.0
C      1  0.5019120000000  0.5588400000000  0.5512590000000 1.0
C      1  0.4812080000000  0.4453430000000  0.5242970000000 1.0
C      1  0.5469900000000  0.4510500000000  0.4289030000000 1.0
C      1  0.4392220000000  0.5250220000000  0.5507860000000 1.0
C      1  0.4833450000000  0.5608080000000  0.5284780000000 1.0
C      1  0.5453860000000  0.5728660000000  0.4296440000000 1.0
C      1  0.5225100000000  0.5538540000000  0.5250540000000 1.0
C      1  0.5518190000000  0.4790510000000  0.5935610000000 1.0
C      1  0.4182330000000  0.5040860000000  0.4522470000000 1.0
C      1  0.4770140000000  0.4571230000000  0.5704060000000 1.0
C      1  0.4258950000000  0.4885780000000  0.5191370000000 1.0
C      1  0.5479230000000  0.5643480000000  0.5256480000000 1.0
C      1  0.4871020000000  0.5210360000000  0.5297190000000 1.0
C      1  0.4274170000000  0.5399820000000  0.5240680000000 1.0
C      1  0.5201190000000  0.5242530000000  0.4774310000000 1.0
C      1  0.5830700000000  0.5007150000000  0.5057240000000 1.0
C      1  0.5064730000000  0.4862240000000  0.5013240000000 1.0
C      1  0.5190150000000  0.4570370000000  0.4317780000000 1.0
C      1  0.4397070000000  0.4498190000000  0.4861980000000 1.0
C      1  0.4629130000000  0.4801140000000  0.5507340000000 1.0
C      1  0.4559170000000  0.4558270000000  0.5295610000000 1.0
C      1  0.4880630000000  0.4439940000000  0.4728030000000 1.0
C      1  0.4633780000000  0.5332180000000  0.5720970000000 1.0
C      1  0.4579840000000  0.4488730000000  0.4645750000000 1.0
C      1  0.4896780000000  0.4961920000000  0.4536630000000 1.0
C      1  0.4354390000000  0.4955770000000  0.5451670000000 1.0
C      1  0.5070950000000  0.4737730000000  0.5951240000000 1.0
C      1  0.5487460000000  0.4990830000000  0.5509950000000 1.0
C      1  0.4372490000000  0.4638880000000  0.5104370000000 1.0
C      1  0.5282830000000  0.4847870000000  0.5741020000000 1.0
C      1  0.5253750000000  0.4586690000000  0.5535720000000 1.0
C      1  0.4817250000000  0.5067560000000  0.5603480000000 1.0
C      1  0.5510170000000  0.5233750000000  0.4267270000000 1.0
C      1  0.4480880000000  0.5474500000000  0.4513550000000 1.0
C      1  0.5818570000000  0.5031650000000  0.4782770000000 1.0
C      1  0.4362010000000  0.5258710000000  0.4388350000000 1.0
C      1  0.5031620000000  0.4387710000000  0.4441830000000 1.0
C      1  0.5140770000000  0.5387060000000  0.4480930000000 1.0
C      1  0.5371300000000  0.5194600000000  0.5921120000000 1.0
C      1  0.5704840000000  0.4952410000000  0.5284600000000 1.0
C      1  0.4504410000000  0.4632180000000  0.4425460000000 1.0
C      1  0.4499280000000  0.5719490000000  0.4403230000000 1.0
C      1  0.5596020000000  0.4896490000000  0.4649730000000 1.0
C      1  0.4976360000000  0.5594480000000  0.5025490000000 1.0
C      1  0.5159950000000  0.4851010000000  0.4422660000000 1.0
C      1  0.4938940000000  0.5424210000000  0.5718070000000 1.0
C      1  0.5108080000000  0.5139390000000  0.5755360000000 1.0
C      1  0.5151460000000  0.5245960000000  0.5111940000000 1.0
C      1  0.5508870000000  0.4461050000000  0.5153200000000 1.0
C      1  0.5296350000000  0.4267250000000  0.5054950000000 1.0
C      1  0.4863470000000  0.5038160000000  0.4805200000000 1.0
C      1  0.5574590000000  0.5150440000000  0.5771800000000 1.0
C      1  0.5404080000000  0.4669260000000  0.5290510000000 1.0
C      1  0.5311230000000  0.4973020000000  0.5219680000000 1.0
C      1  0.4934760000000  0.4558880000000  0.5013790000000 1.0
C      1  0.4933500000000  0.5288420000000  0.4308920000000 1.0
C      1  0.5368650000000  0.4580140000000  0.4732680000000 1.0
C      1  0.5270010000000  0.4908670000000  0.4745880000000 1.0
C      1  0.5219300000000  0.4270680000000  0.5350930000000 1.0
C      1  0.5438440000000  0.5011380000000  0.4398830000000 1.0
C      1  0.4450070000000  0.4930390000000  0.4348550000000 1.0
C      1  0.4059600000000  0.5052440000000  0.4759700000000 1.0
C      1  0.5203710000000  0.4361430000000  0.4800970000000 1.0
C      1  0.5598810000000  0.4575480000000  0.4537710000000 1.0
C      1  0.4893060000000  0.5373070000000  0.4835040000000 1.0
C      1  0.4589180000000  0.5417270000000  0.4768640000000 1.0
C      1  0.4411780000000  0.5347530000000  0.4958030000000 1.0
END
