TITL C-2848495-5024-531 -2.53467379880975e-06 125000 -112.995146003804 0 0 22 (C1) n - 1
REM
REM in /home/bkarasulu/work/CARBON/AIRSS/Generating-Clusters/AIREBO/with-SteepDescent/Only-C1/SD-CG-opt/Try1-1.4A-POS3A/HFTN-CG
REM
REM
REM
REM
REM
REM ./C.cell (11c1c37f851c82e70ff6c80c92926a4b)
REM
REM compiler GCC version 9.2.1 20190827 (Red Hat 9.2.1-1)
REM options -cpp -mtune=generic -march=x86-64 -g -O0 -fpre-include=/usr/include/finclude/math-vector-fortran.h
REM seed 663286072 1138190936 1191319329 53327997 -2123236927 44037237 -2013240060 1321632965 -1940896564 -38919218 -1684297877 1088799511 664375869 -530508441 167050889 253906634 934032768 1831911830 1053765874 -714514180 1872318710 1907342924 -389032438 1433943133 2066214188 1543446034 1427047524 -2124751246 -424092548 -231811605 597257773 1481073510 -359023207
REM
CELL 1.54180   50.00000   50.00000   50.00000   90.00000   90.00000   90.00000
LATT -1
SFAC C  
C      1  0.4413380000000  0.4625550000000  0.5074460000000 1.0
C      1  0.4828570000000  0.4499090000000  0.4592470000000 1.0
C      1  0.4704260000000  0.4915690000000  0.5412640000000 1.0
C      1  0.5045150000000  0.5241680000000  0.5726480000000 1.0
C      1  0.4914200000000  0.4657520000000  0.3819520000000 1.0
C      1  0.4562020000000  0.4759690000000  0.5250180000000 1.0
C      1  0.5315960000000  0.5401010000000  0.4438020000000 1.0
C      1  0.5314540000000  0.5385120000000  0.5009850000000 1.0
C      1  0.5338450000000  0.5107800000000  0.5818790000000 1.0
C      1  0.5016340000000  0.4914100000000  0.4463160000000 1.0
C      1  0.4849240000000  0.4614820000000  0.4136010000000 1.0
C      1  0.5438110000000  0.5634190000000  0.5499010000000 1.0
C      1  0.5290700000000  0.5321700000000  0.4750250000000 1.0
C      1  0.5324860000000  0.5324660000000  0.5577040000000 1.0
C      1  0.4921240000000  0.5415870000000  0.5904260000000 1.0
C      1  0.4897890000000  0.4672110000000  0.4396660000000 1.0
C      1  0.4866150000000  0.5056260000000  0.5566630000000 1.0
C      1  0.4684390000000  0.4451380000000  0.3907280000000 1.0
C      1  0.5470730000000  0.4951190000000  0.5966930000000 1.0
C      1  0.5154280000000  0.5135440000000  0.4525830000000 1.0
C      1  0.4287610000000  0.4478800000000  0.4897400000000 1.0
C      1  0.5361910000000  0.5436340000000  0.5267130000000 1.0
END
