TITL C-2848503-6230-152 0.000220878013294571 125000 -160.447550249261 0 0 30 (C1) n - 1
REM
REM in /home/bkarasulu/work/CARBON/AIRSS/Generating-Clusters/AIREBO/with-SteepDescent/Only-C1/SD-CG-opt/Try1-1.4A-POS3A/HFTN-CG
REM
REM
REM
REM
REM
REM ./C.cell (11c1c37f851c82e70ff6c80c92926a4b)
REM
REM compiler GCC version 9.2.1 20190827 (Red Hat 9.2.1-1)
REM options -cpp -mtune=generic -march=x86-64 -g -O0 -fpre-include=/usr/include/finclude/math-vector-fortran.h
REM seed -1603806083 -491340197 2104675413 1546301442 1826527228 -1024956390 -1857523827 1764811722 1567671453 263883085 1541324161 1153881602 -881077800 -1511371826 2058911793 -2087314681 210832001 -801360713 -238224748 -460055924 719034672 1449881122 -1452594305 -313838657 504164888 136074713 686902206 1295982195 798158979 231353783 301133487 15565914 -2013763478
REM
CELL 1.54180   50.00000   50.00000   50.00000   90.00000   90.00000   90.00000
LATT -1
SFAC C  
C      1  0.5179170000000  0.5714470000000  0.5158030000000 1.0
C      1  0.5419010000000  0.4823390000000  0.4863560000000 1.0
C      1  0.4677870000000  0.4574900000000  0.5414940000000 1.0
C      1  0.4832170000000  0.5401780000000  0.5112340000000 1.0
C      1  0.4972850000000  0.5094830000000  0.4761250000000 1.0
C      1  0.4349340000000  0.5284990000000  0.5190080000000 1.0
C      1  0.5427800000000  0.5579910000000  0.4752120000000 1.0
C      1  0.4942790000000  0.4611030000000  0.5594780000000 1.0
C      1  0.4751500000000  0.4872250000000  0.5556700000000 1.0
C      1  0.4986070000000  0.4805320000000  0.4276850000000 1.0
C      1  0.4497920000000  0.4588460000000  0.4926150000000 1.0
C      1  0.4979280000000  0.4744700000000  0.4021960000000 1.0
C      1  0.5015050000000  0.4875240000000  0.4521390000000 1.0
C      1  0.4927130000000  0.5620100000000  0.5268730000000 1.0
C      1  0.5228630000000  0.5544850000000  0.4928160000000 1.0
C      1  0.4606080000000  0.5189650000000  0.5131100000000 1.0
C      1  0.5169940000000  0.4431410000000  0.5221180000000 1.0
C      1  0.5123610000000  0.4808380000000  0.4828740000000 1.0
C      1  0.4675720000000  0.5175530000000  0.4821970000000 1.0
C      1  0.5520940000000  0.4959710000000  0.5079860000000 1.0
C      1  0.4988720000000  0.4604990000000  0.4996040000000 1.0
C      1  0.5578840000000  0.4678430000000  0.4693680000000 1.0
C      1  0.5021550000000  0.5355010000000  0.4911280000000 1.0
C      1  0.5619500000000  0.5110200000000  0.5270500000000 1.0
C      1  0.5098740000000  0.4284280000000  0.4954700000000 1.0
C      1  0.5335310000000  0.5909560000000  0.5253290000000 1.0
C      1  0.4707550000000  0.4660460000000  0.5095480000000 1.0
C      1  0.4510330000000  0.5258910000000  0.4637560000000 1.0
C      1  0.4681540000000  0.4939660000000  0.5269000000000 1.0
C      1  0.5175040000000  0.4497580000000  0.5488590000000 1.0
END
