TITL C-2847953-8112-414 -0.00308551409467968 125000 -729.240602349094 0 0 133 (C1) n - 1
REM
REM in /home/bkarasulu/work/CARBON/AIRSS/Generating-Clusters/AIREBO/with-SteepDescent/Only-C1/SD-CG-opt/Try1-1.4A-POS3A/HFTN-CG
REM
REM
REM
REM
REM
REM ./C.cell (11c1c37f851c82e70ff6c80c92926a4b)
REM
REM compiler GCC version 9.2.1 20190827 (Red Hat 9.2.1-1)
REM options -cpp -mtune=generic -march=x86-64 -g -O0 -fpre-include=/usr/include/finclude/math-vector-fortran.h
REM seed 257139070 668299661 1956788354 1011033294 1845131966 -226872689 906067102 -1424149647 -1693102004 -92236025 -1501161767 1573031740 116960500 -1321493080 -1838981372 1499644052 1962144812 1867803378 217079202 1843340273 1719722414 -1638701247 1506283358 1373445719 348213728 -185979433 1627590488 1467683134 400446245 1191719644 482577380 830123063 1790146026
REM
CELL 1.54180   50.00000   50.00000   50.00000   90.00000   90.00000   90.00000
LATT -1
SFAC C  
C      1  0.4560780000000  0.4524450000000  0.5858650000000 1.0
C      1  0.5488270000000  0.4987680000000  0.5799680000000 1.0
C      1  0.5494510000000  0.4817220000000  0.5150840000000 1.0
C      1  0.4183530000000  0.4910230000000  0.4946530000000 1.0
C      1  0.4340700000000  0.4623500000000  0.5726760000000 1.0
C      1  0.5549190000000  0.5643900000000  0.4607720000000 1.0
C      1  0.5190050000000  0.5532890000000  0.5483310000000 1.0
C      1  0.5049890000000  0.4670570000000  0.4696000000000 1.0
C      1  0.4562480000000  0.4221340000000  0.4753770000000 1.0
C      1  0.4393860000000  0.5688420000000  0.5133250000000 1.0
C      1  0.4103990000000  0.4986240000000  0.5258340000000 1.0
C      1  0.4679760000000  0.5364370000000  0.5436220000000 1.0
C      1  0.4218360000000  0.5416990000000  0.5029880000000 1.0
C      1  0.4796610000000  0.5377520000000  0.4765680000000 1.0
C      1  0.5664490000000  0.5440170000000  0.5673810000000 1.0
C      1  0.5665430000000  0.4989300000000  0.4628010000000 1.0
C      1  0.4885630000000  0.5451050000000  0.5612290000000 1.0
C      1  0.4593370000000  0.5926070000000  0.4714770000000 1.0
C      1  0.5835170000000  0.5165410000000  0.4855910000000 1.0
C      1  0.5251440000000  0.5947050000000  0.4980420000000 1.0
C      1  0.4030520000000  0.5355460000000  0.4802750000000 1.0
C      1  0.5762050000000  0.5468720000000  0.4973140000000 1.0
C      1  0.4767740000000  0.5028900000000  0.5847770000000 1.0
C      1  0.5040200000000  0.4195260000000  0.4350570000000 1.0
C      1  0.4550170000000  0.4110930000000  0.4438580000000 1.0
C      1  0.5479610000000  0.5234290000000  0.5485940000000 1.0
C      1  0.4546560000000  0.5593130000000  0.4198800000000 1.0
C      1  0.5009900000000  0.4141460000000  0.5051820000000 1.0
C      1  0.5689020000000  0.4584300000000  0.4538750000000 1.0
C      1  0.4385960000000  0.4628460000000  0.5396940000000 1.0
C      1  0.5330620000000  0.4404220000000  0.5363910000000 1.0
C      1  0.5475010000000  0.5260290000000  0.5883290000000 1.0
C      1  0.5553260000000  0.4481310000000  0.5580990000000 1.0
C      1  0.5788840000000  0.4701250000000  0.5171800000000 1.0
C      1  0.4721750000000  0.4582190000000  0.4707240000000 1.0
C      1  0.4848220000000  0.4722950000000  0.5604330000000 1.0
C      1  0.5612200000000  0.4232970000000  0.4964390000000 1.0
C      1  0.4348960000000  0.5181350000000  0.5188190000000 1.0
C      1  0.5219940000000  0.5353910000000  0.5940690000000 1.0
C      1  0.5858250000000  0.5171700000000  0.5590070000000 1.0
C      1  0.4631920000000  0.5082970000000  0.5307080000000 1.0
C      1  0.5991230000000  0.5156930000000  0.5323910000000 1.0
C      1  0.5068350000000  0.5557400000000  0.4494260000000 1.0
C      1  0.5160610000000  0.4650890000000  0.5865150000000 1.0
C      1  0.5524990000000  0.5891440000000  0.4821010000000 1.0
C      1  0.5730300000000  0.5516480000000  0.5289560000000 1.0
C      1  0.4401100000000  0.5394830000000  0.5569470000000 1.0
C      1  0.5880950000000  0.4513140000000  0.4707140000000 1.0
C      1  0.4832110000000  0.5788820000000  0.4573910000000 1.0
C      1  0.5022330000000  0.5736420000000  0.5697930000000 1.0
C      1  0.4900040000000  0.4419310000000  0.5677750000000 1.0
C      1  0.4677600000000  0.5504070000000  0.5166770000000 1.0
C      1  0.5332470000000  0.5058240000000  0.4419600000000 1.0
C      1  0.5730540000000  0.4682850000000  0.5503850000000 1.0
C      1  0.5950990000000  0.4976270000000  0.5078810000000 1.0
C      1  0.4064890000000  0.4797120000000  0.4678770000000 1.0
C      1  0.4154490000000  0.4409300000000  0.5012030000000 1.0
C      1  0.5051780000000  0.4569840000000  0.4997310000000 1.0
C      1  0.4229030000000  0.4586210000000  0.4585630000000 1.0
C      1  0.5411340000000  0.4577390000000  0.4824880000000 1.0
C      1  0.4287700000000  0.5621590000000  0.5449540000000 1.0
C      1  0.5497730000000  0.5636750000000  0.5001960000000 1.0
C      1  0.4701670000000  0.4753670000000  0.3954150000000 1.0
C      1  0.5151370000000  0.5195660000000  0.5461640000000 1.0
C      1  0.4599990000000  0.4881030000000  0.4680920000000 1.0
C      1  0.4927130000000  0.4087230000000  0.5358640000000 1.0
C      1  0.5504900000000  0.5316150000000  0.4344640000000 1.0
C      1  0.4654680000000  0.4547380000000  0.4199410000000 1.0
C      1  0.5292950000000  0.4418660000000  0.5760490000000 1.0
C      1  0.5467620000000  0.5340630000000  0.4738080000000 1.0
C      1  0.4773350000000  0.5253960000000  0.4062120000000 1.0
C      1  0.5046560000000  0.5406110000000  0.4189720000000 1.0
C      1  0.4664620000000  0.4253050000000  0.5405140000000 1.0
C      1  0.4293990000000  0.4388960000000  0.4777160000000 1.0
C      1  0.5462720000000  0.4129270000000  0.4715810000000 1.0
C      1  0.5402330000000  0.4874770000000  0.4767690000000 1.0
C      1  0.4583040000000  0.5271370000000  0.4958410000000 1.0
C      1  0.4591030000000  0.4849500000000  0.5515370000000 1.0
C      1  0.4392300000000  0.4946480000000  0.4223780000000 1.0
C      1  0.4771050000000  0.5018190000000  0.3919100000000 1.0
C      1  0.5033590000000  0.5894190000000  0.5425560000000 1.0
C      1  0.5294140000000  0.5856950000000  0.5268430000000 1.0
C      1  0.4726280000000  0.4246670000000  0.4267090000000 1.0
C      1  0.4636870000000  0.4268540000000  0.5720910000000 1.0
C      1  0.5463770000000  0.5118660000000  0.4996530000000 1.0
C      1  0.5137160000000  0.5054820000000  0.4699100000000 1.0
C      1  0.5165760000000  0.4288740000000  0.4716500000000 1.0
C      1  0.5327600000000  0.5562050000000  0.4285120000000 1.0
C      1  0.4317370000000  0.5255920000000  0.4547880000000 1.0
C      1  0.4881530000000  0.4164270000000  0.4649790000000 1.0
C      1  0.4240060000000  0.5563180000000  0.4659040000000 1.0
C      1  0.5146190000000  0.5619280000000  0.5970680000000 1.0
C      1  0.5008720000000  0.5199030000000  0.5770430000000 1.0
C      1  0.4379360000000  0.5755500000000  0.4800040000000 1.0
C      1  0.4833670000000  0.4709640000000  0.5942600000000 1.0
C      1  0.5250910000000  0.4867700000000  0.5711760000000 1.0
C      1  0.5082780000000  0.4865670000000  0.5416160000000 1.0
C      1  0.4567810000000  0.5217430000000  0.4330510000000 1.0
C      1  0.4860940000000  0.4690130000000  0.4414010000000 1.0
C      1  0.5292580000000  0.4331850000000  0.5029090000000 1.0
C      1  0.4826850000000  0.4853520000000  0.5192330000000 1.0
C      1  0.4881960000000  0.4908450000000  0.4869890000000 1.0
C      1  0.4667910000000  0.6078690000000  0.4943240000000 1.0
C      1  0.5521380000000  0.4806790000000  0.4379790000000 1.0
C      1  0.5246840000000  0.4675580000000  0.5227450000000 1.0
C      1  0.4461910000000  0.4700560000000  0.4427780000000 1.0
C      1  0.5663390000000  0.5195140000000  0.5242090000000 1.0
C      1  0.5804450000000  0.4446530000000  0.4973660000000 1.0
C      1  0.5180280000000  0.5546260000000  0.5044040000000 1.0
C      1  0.5121540000000  0.4505010000000  0.4297960000000 1.0
C      1  0.5129860000000  0.5374730000000  0.4758360000000 1.0
C      1  0.5481830000000  0.5632690000000  0.5451420000000 1.0
C      1  0.4401740000000  0.5071940000000  0.4798870000000 1.0
C      1  0.4668140000000  0.5901400000000  0.5154440000000 1.0
C      1  0.5374430000000  0.4459140000000  0.4510060000000 1.0
C      1  0.5342460000000  0.5844180000000  0.4470800000000 1.0
C      1  0.5137010000000  0.5912790000000  0.4661960000000 1.0
C      1  0.5318680000000  0.4030560000000  0.4456510000000 1.0
C      1  0.4181700000000  0.4669250000000  0.5183370000000 1.0
C      1  0.4775140000000  0.4373850000000  0.4971130000000 1.0
C      1  0.4033910000000  0.5089660000000  0.4623000000000 1.0
C      1  0.4824450000000  0.4996960000000  0.4365450000000 1.0
C      1  0.4986320000000  0.3829730000000  0.5149340000000 1.0
C      1  0.4505040000000  0.5121850000000  0.5700370000000 1.0
C      1  0.5110800000000  0.4251240000000  0.5533220000000 1.0
C      1  0.4673100000000  0.4552340000000  0.5242070000000 1.0
C      1  0.5198540000000  0.5246240000000  0.5134080000000 1.0
C      1  0.5753110000000  0.5305810000000  0.4556610000000 1.0
C      1  0.4676740000000  0.5497480000000  0.4489810000000 1.0
C      1  0.5342920000000  0.4664560000000  0.4166270000000 1.0
C      1  0.5054280000000  0.5122510000000  0.4314290000000 1.0
C      1  0.5724740000000  0.4927340000000  0.5653650000000 1.0
C      1  0.4941370000000  0.5699280000000  0.5165080000000 1.0
END
