TITL C-2848494-1720-515 -0.00167798874849542 125000 -831.838918415701 0 0 156 (C1) n - 1
REM
REM in /home/bkarasulu/work/CARBON/AIRSS/Generating-Clusters/AIREBO/with-SteepDescent/Only-C1/SD-CG-opt/Try1-1.4A-POS3A/HFTN-CG
REM
REM
REM
REM
REM
REM ./C.cell (11c1c37f851c82e70ff6c80c92926a4b)
REM
REM compiler GCC version 9.2.1 20190827 (Red Hat 9.2.1-1)
REM options -cpp -mtune=generic -march=x86-64 -g -O0 -fpre-include=/usr/include/finclude/math-vector-fortran.h
REM seed 734971895 1364940443 -1094501657 -1417557339 108147599 784436046 -2033890354 -1762904449 754907661 1928031917 -412137799 1002175193 584781390 586683485 -1892788107 1508190280 -110023311 -2088321678 -1924232804 -514675014 -436959350 19317678 -260016290 -296834213 -1230317981 -1872397079 1773930309 1445400344 1889208142 708035039 191376214 -1105508707 699835219
REM
CELL 1.54180   50.00000   50.00000   50.00000   90.00000   90.00000   90.00000
LATT -1
SFAC C  
C      1  0.3974540000000  0.5025290000000  0.5412160000000 1.0
C      1  0.5838040000000  0.5263440000000  0.5602980000000 1.0
C      1  0.5506360000000  0.4853380000000  0.4262640000000 1.0
C      1  0.4278540000000  0.4868900000000  0.4400450000000 1.0
C      1  0.5455090000000  0.5150670000000  0.5109070000000 1.0
C      1  0.4793600000000  0.4748630000000  0.5095860000000 1.0
C      1  0.4873430000000  0.6228910000000  0.5079500000000 1.0
C      1  0.5528040000000  0.4765100000000  0.4887130000000 1.0
C      1  0.5362700000000  0.4671500000000  0.4060180000000 1.0
C      1  0.5025590000000  0.4568820000000  0.5242100000000 1.0
C      1  0.5763430000000  0.5211640000000  0.4553590000000 1.0
C      1  0.5324550000000  0.5493400000000  0.5454610000000 1.0
C      1  0.5643360000000  0.5902800000000  0.5160260000000 1.0
C      1  0.5153450000000  0.5039110000000  0.5198510000000 1.0
C      1  0.4380710000000  0.4395760000000  0.4967120000000 1.0
C      1  0.4789590000000  0.5385550000000  0.4207730000000 1.0
C      1  0.5228890000000  0.5249390000000  0.4776150000000 1.0
C      1  0.4844200000000  0.5077100000000  0.5888100000000 1.0
C      1  0.5919600000000  0.4684030000000  0.5075400000000 1.0
C      1  0.4055430000000  0.5294250000000  0.5211590000000 1.0
C      1  0.5817540000000  0.5595320000000  0.5347000000000 1.0
C      1  0.4776170000000  0.5043300000000  0.6221240000000 1.0
C      1  0.4845190000000  0.4211580000000  0.4386910000000 1.0
C      1  0.4618200000000  0.4978920000000  0.4066040000000 1.0
C      1  0.5469890000000  0.4980720000000  0.5768100000000 1.0
C      1  0.4886240000000  0.5190540000000  0.4579220000000 1.0
C      1  0.5564090000000  0.5368900000000  0.5336000000000 1.0
C      1  0.4453410000000  0.4248810000000  0.5500560000000 1.0
C      1  0.4184960000000  0.5354730000000  0.4442800000000 1.0
C      1  0.5543310000000  0.5471560000000  0.4604820000000 1.0
C      1  0.4287740000000  0.4345040000000  0.5288310000000 1.0
C      1  0.5056560000000  0.5987820000000  0.5602140000000 1.0
C      1  0.5474730000000  0.4006320000000  0.5242570000000 1.0
C      1  0.5731550000000  0.5065900000000  0.5775220000000 1.0
C      1  0.5324820000000  0.5406360000000  0.3943960000000 1.0
C      1  0.4585020000000  0.5754960000000  0.5042600000000 1.0
C      1  0.5159220000000  0.5206930000000  0.5679190000000 1.0
C      1  0.4746020000000  0.5576500000000  0.5721090000000 1.0
C      1  0.4798850000000  0.5889450000000  0.5598740000000 1.0
C      1  0.4437230000000  0.4134240000000  0.4793430000000 1.0
C      1  0.5409550000000  0.4474540000000  0.5472870000000 1.0
C      1  0.6030020000000  0.5255980000000  0.4744920000000 1.0
C      1  0.5180870000000  0.4962550000000  0.4868280000000 1.0
C      1  0.5099470000000  0.4893420000000  0.5795320000000 1.0
C      1  0.4568080000000  0.4979590000000  0.5075510000000 1.0
C      1  0.4920590000000  0.4371100000000  0.4677670000000 1.0
C      1  0.5844290000000  0.5187520000000  0.5271000000000 1.0
C      1  0.5270800000000  0.4162780000000  0.4508850000000 1.0
C      1  0.4496530000000  0.5773460000000  0.5579340000000 1.0
C      1  0.4691300000000  0.5465810000000  0.4793020000000 1.0
C      1  0.4935880000000  0.6052480000000  0.4871840000000 1.0
C      1  0.4116710000000  0.5226110000000  0.5597210000000 1.0
C      1  0.4661180000000  0.4332660000000  0.5681070000000 1.0
C      1  0.5454100000000  0.5660980000000  0.5694770000000 1.0
C      1  0.5359300000000  0.5885720000000  0.5188190000000 1.0
C      1  0.4949670000000  0.4676270000000  0.4376870000000 1.0
C      1  0.5810170000000  0.5528540000000  0.5064920000000 1.0
C      1  0.5746480000000  0.5548950000000  0.5642800000000 1.0
C      1  0.4830940000000  0.6140720000000  0.4591470000000 1.0
C      1  0.5893050000000  0.4625510000000  0.4441910000000 1.0
C      1  0.5205580000000  0.4340490000000  0.4860770000000 1.0
C      1  0.4581340000000  0.5091690000000  0.4579300000000 1.0
C      1  0.5289780000000  0.5887350000000  0.5501230000000 1.0
C      1  0.4432310000000  0.5185300000000  0.5545740000000 1.0
C      1  0.5222930000000  0.5925570000000  0.4891130000000 1.0
C      1  0.4716300000000  0.5656570000000  0.4534070000000 1.0
C      1  0.5311030000000  0.4984930000000  0.5471150000000 1.0
C      1  0.3966090000000  0.4608290000000  0.4883670000000 1.0
C      1  0.5262420000000  0.5445460000000  0.5846660000000 1.0
C      1  0.4675240000000  0.5970590000000  0.4458040000000 1.0
C      1  0.4048710000000  0.4750410000000  0.5461050000000 1.0
C      1  0.5312990000000  0.5432540000000  0.4357400000000 1.0
C      1  0.4479420000000  0.5438320000000  0.4298750000000 1.0
C      1  0.4444960000000  0.5103360000000  0.4276540000000 1.0
C      1  0.4652370000000  0.4325450000000  0.3963920000000 1.0
C      1  0.4895480000000  0.4321460000000  0.4111110000000 1.0
C      1  0.4993120000000  0.5486150000000  0.4459930000000 1.0
C      1  0.5113770000000  0.5034850000000  0.4441410000000 1.0
C      1  0.5096000000000  0.4506180000000  0.4047230000000 1.0
C      1  0.5407010000000  0.5942900000000  0.4406850000000 1.0
C      1  0.4490900000000  0.5762010000000  0.4299330000000 1.0
C      1  0.4521050000000  0.5068430000000  0.5993490000000 1.0
C      1  0.5512400000000  0.4448420000000  0.4791260000000 1.0
C      1  0.5258410000000  0.4684240000000  0.5047800000000 1.0
C      1  0.5367650000000  0.4381630000000  0.5157870000000 1.0
C      1  0.4807260000000  0.3891110000000  0.4468950000000 1.0
C      1  0.5213600000000  0.4023060000000  0.5275660000000 1.0
C      1  0.5180970000000  0.5174360000000  0.4146850000000 1.0
C      1  0.5740610000000  0.4515430000000  0.5475260000000 1.0
C      1  0.4550870000000  0.4793080000000  0.4722580000000 1.0
C      1  0.5546720000000  0.5331080000000  0.4147050000000 1.0
C      1  0.4379990000000  0.5369310000000  0.5284560000000 1.0
C      1  0.4171880000000  0.4936700000000  0.4650350000000 1.0
C      1  0.4650720000000  0.4663150000000  0.5735090000000 1.0
C      1  0.5269120000000  0.4797710000000  0.4584220000000 1.0
C      1  0.4866250000000  0.5739360000000  0.4894180000000 1.0
C      1  0.4006290000000  0.5484380000000  0.5489300000000 1.0
C      1  0.4858320000000  0.4876840000000  0.4822220000000 1.0
C      1  0.4686590000000  0.5244860000000  0.5206380000000 1.0
C      1  0.5689130000000  0.4907540000000  0.5150580000000 1.0
C      1  0.5695410000000  0.4162090000000  0.4803660000000 1.0
C      1  0.5666160000000  0.5110080000000  0.4267260000000 1.0
C      1  0.4414290000000  0.4410910000000  0.4074860000000 1.0
C      1  0.5594720000000  0.4850560000000  0.4582810000000 1.0
C      1  0.4051210000000  0.4484970000000  0.5368820000000 1.0
C      1  0.6004140000000  0.5314500000000  0.5005350000000 1.0
C      1  0.5093490000000  0.3943970000000  0.4546430000000 1.0
C      1  0.4699730000000  0.5258300000000  0.5654200000000 1.0
C      1  0.4986720000000  0.4263300000000  0.5186040000000 1.0
C      1  0.4583480000000  0.4614360000000  0.5405360000000 1.0
C      1  0.4685470000000  0.4576520000000  0.4539010000000 1.0
C      1  0.5061460000000  0.5431460000000  0.5258890000000 1.0
C      1  0.5543960000000  0.4780920000000  0.5430800000000 1.0
C      1  0.4960190000000  0.4067890000000  0.5447570000000 1.0
C      1  0.5063890000000  0.4653580000000  0.5555930000000 1.0
C      1  0.4420570000000  0.4610960000000  0.4332260000000 1.0
C      1  0.5658410000000  0.4235240000000  0.5101710000000 1.0
C      1  0.5272460000000  0.5579090000000  0.5069700000000 1.0
C      1  0.5182010000000  0.4490870000000  0.4496090000000 1.0
C      1  0.5018820000000  0.5559940000000  0.5553970000000 1.0
C      1  0.4191810000000  0.5355060000000  0.4932750000000 1.0
C      1  0.4394670000000  0.4833160000000  0.5856370000000 1.0
C      1  0.4786360000000  0.4232330000000  0.4957660000000 1.0
C      1  0.5124260000000  0.5558980000000  0.4765150000000 1.0
C      1  0.4469390000000  0.5217040000000  0.4862520000000 1.0
C      1  0.4907790000000  0.4685800000000  0.5934500000000 1.0
C      1  0.4410670000000  0.5684220000000  0.5315560000000 1.0
C      1  0.4666880000000  0.5339120000000  0.6138710000000 1.0
C      1  0.4585320000000  0.3962630000000  0.4990320000000 1.0
C      1  0.5751530000000  0.4449950000000  0.4549310000000 1.0
C      1  0.5304350000000  0.4378420000000  0.5989490000000 1.0
C      1  0.5856470000000  0.4444660000000  0.5218750000000 1.0
C      1  0.5915510000000  0.4909660000000  0.4593290000000 1.0
C      1  0.6054510000000  0.4765240000000  0.4851710000000 1.0
C      1  0.4278310000000  0.5641810000000  0.5005190000000 1.0
C      1  0.5370750000000  0.5761630000000  0.4647670000000 1.0
C      1  0.4919660000000  0.4230910000000  0.5664510000000 1.0
C      1  0.4688470000000  0.4689540000000  0.4155950000000 1.0
C      1  0.4933550000000  0.5164120000000  0.5425870000000 1.0
C      1  0.4861280000000  0.5199280000000  0.4918200000000 1.0
C      1  0.4263110000000  0.4703430000000  0.4880370000000 1.0
C      1  0.5541210000000  0.5431590000000  0.4942520000000 1.0
C      1  0.5787630000000  0.5685130000000  0.4505460000000 1.0
C      1  0.4809800000000  0.4857320000000  0.5505540000000 1.0
C      1  0.4647320000000  0.4470240000000  0.5142160000000 1.0
C      1  0.5541180000000  0.4110540000000  0.4564570000000 1.0
C      1  0.5101300000000  0.5538110000000  0.6049250000000 1.0
C      1  0.4992690000000  0.4828990000000  0.4075890000000 1.0
C      1  0.4566000000000  0.4100330000000  0.4550240000000 1.0
C      1  0.5185710000000  0.4401480000000  0.5713730000000 1.0
C      1  0.4368130000000  0.4852470000000  0.5517330000000 1.0
C      1  0.4121780000000  0.5210540000000  0.4666720000000 1.0
C      1  0.4817930000000  0.5536180000000  0.6019080000000 1.0
C      1  0.5295550000000  0.4942130000000  0.3935880000000 1.0
C      1  0.4873310000000  0.5144630000000  0.4033800000000 1.0
C      1  0.4314770000000  0.4852980000000  0.5181440000000 1.0
END
