TITL C-2848501-3133-48 0.00463308317594854 125000 -434.271271614986 0 0 81 (C1) n - 1
REM
REM in /home/bkarasulu/work/CARBON/AIRSS/Generating-Clusters/AIREBO/with-SteepDescent/Only-C1/SD-CG-opt/Try1-1.4A-POS3A/HFTN-CG
REM
REM
REM
REM
REM
REM ./C.cell (11c1c37f851c82e70ff6c80c92926a4b)
REM
REM compiler GCC version 9.2.1 20190827 (Red Hat 9.2.1-1)
REM options -cpp -mtune=generic -march=x86-64 -g -O0 -fpre-include=/usr/include/finclude/math-vector-fortran.h
REM seed -436805241 -1151648259 -1833705089 -213472271 1028546045 852051421 834311917 -56037972 484357849 -1871556006 617042314 64344205 -484535729 -448956661 -1205126761 584398644 1766082825 680536613 -1450006843 217916487 -827639241 -2005442981 1665727771 564884758 -2133735146 2135124846 -1550676336 -752725580 -1940313688 1412523664 1109671741 -1088344347 824689757
REM
CELL 1.54180   50.00000   50.00000   50.00000   90.00000   90.00000   90.00000
LATT -1
SFAC C  
C      1  0.5368940000000  0.4957710000000  0.5254240000000 1.0
C      1  0.5051110000000  0.4991120000000  0.4216950000000 1.0
C      1  0.5058000000000  0.4658570000000  0.4915410000000 1.0
C      1  0.5098920000000  0.4968730000000  0.5685030000000 1.0
C      1  0.4603720000000  0.5277670000000  0.4268060000000 1.0
C      1  0.4693050000000  0.4498350000000  0.4936460000000 1.0
C      1  0.5382280000000  0.5326250000000  0.4568270000000 1.0
C      1  0.4970500000000  0.4728400000000  0.5708720000000 1.0
C      1  0.5285390000000  0.5069550000000  0.4756790000000 1.0
C      1  0.4378180000000  0.4808640000000  0.4659040000000 1.0
C      1  0.5017390000000  0.5163310000000  0.4477800000000 1.0
C      1  0.5201760000000  0.5201690000000  0.5318490000000 1.0
C      1  0.5733180000000  0.4391640000000  0.4984650000000 1.0
C      1  0.5695710000000  0.5003320000000  0.5336510000000 1.0
C      1  0.4791770000000  0.5628420000000  0.5179710000000 1.0
C      1  0.5375830000000  0.5417870000000  0.5165090000000 1.0
C      1  0.5709770000000  0.4673630000000  0.4796060000000 1.0
C      1  0.5669480000000  0.5531780000000  0.5036760000000 1.0
C      1  0.5555080000000  0.5060050000000  0.4442620000000 1.0
C      1  0.4949830000000  0.4405860000000  0.5116290000000 1.0
C      1  0.4525130000000  0.5040530000000  0.4468770000000 1.0
C      1  0.5855030000000  0.4886140000000  0.5102160000000 1.0
C      1  0.4480780000000  0.4898930000000  0.5723270000000 1.0
C      1  0.5355770000000  0.4787550000000  0.4652410000000 1.0
C      1  0.4525340000000  0.4959210000000  0.5290000000000 1.0
C      1  0.4450380000000  0.4540980000000  0.4519960000000 1.0
C      1  0.5228460000000  0.5693860000000  0.4875580000000 1.0
C      1  0.4425050000000  0.5434930000000  0.5500420000000 1.0
C      1  0.4634930000000  0.4564670000000  0.4274960000000 1.0
C      1  0.5552630000000  0.4825180000000  0.5578800000000 1.0
C      1  0.5495150000000  0.5183400000000  0.4949530000000 1.0
C      1  0.5658260000000  0.5396590000000  0.5353360000000 1.0
C      1  0.4831580000000  0.4821820000000  0.5345750000000 1.0
C      1  0.5273930000000  0.5259030000000  0.5645410000000 1.0
C      1  0.4797050000000  0.5461780000000  0.4341550000000 1.0
C      1  0.4946470000000  0.5651090000000  0.5481660000000 1.0
C      1  0.4987650000000  0.5516420000000  0.4944400000000 1.0
C      1  0.4826640000000  0.4492430000000  0.4101390000000 1.0
C      1  0.4983370000000  0.4920180000000  0.4710780000000 1.0
C      1  0.4668610000000  0.4676470000000  0.5585980000000 1.0
C      1  0.5124430000000  0.4709650000000  0.4236010000000 1.0
C      1  0.5569590000000  0.5169050000000  0.5590680000000 1.0
C      1  0.4927620000000  0.5255210000000  0.5153990000000 1.0
C      1  0.5470900000000  0.4415320000000  0.5168490000000 1.0
C      1  0.5363430000000  0.4601990000000  0.5433400000000 1.0
C      1  0.4353410000000  0.5697660000000  0.4845970000000 1.0
C      1  0.5459610000000  0.5548830000000  0.4793320000000 1.0
C      1  0.5551960000000  0.4724960000000  0.5094040000000 1.0
C      1  0.4876610000000  0.5415180000000  0.4666330000000 1.0
C      1  0.4518560000000  0.5166270000000  0.4769080000000 1.0
C      1  0.5380780000000  0.4812340000000  0.4353830000000 1.0
C      1  0.4567400000000  0.5477110000000  0.4746780000000 1.0
C      1  0.5226410000000  0.4306030000000  0.4982910000000 1.0
C      1  0.4427760000000  0.4469550000000  0.5116060000000 1.0
C      1  0.4886330000000  0.5201760000000  0.5671820000000 1.0
C      1  0.4946240000000  0.4318910000000  0.5505640000000 1.0
C      1  0.4612210000000  0.5642750000000  0.5469250000000 1.0
C      1  0.5184110000000  0.5938230000000  0.4754910000000 1.0
C      1  0.5749970000000  0.4949230000000  0.4620980000000 1.0
C      1  0.4778390000000  0.5084280000000  0.4918780000000 1.0
C      1  0.5117970000000  0.4507550000000  0.5606940000000 1.0
C      1  0.4734140000000  0.5204720000000  0.5398400000000 1.0
C      1  0.4156240000000  0.4880460000000  0.4983440000000 1.0
C      1  0.5131750000000  0.4741520000000  0.5226930000000 1.0
C      1  0.4317800000000  0.4757970000000  0.5204860000000 1.0
C      1  0.5159690000000  0.4345040000000  0.4651380000000 1.0
C      1  0.4493360000000  0.5155880000000  0.5633570000000 1.0
C      1  0.5135450000000  0.5460980000000  0.4376200000000 1.0
C      1  0.4243190000000  0.4593430000000  0.4855860000000 1.0
C      1  0.4508900000000  0.5523470000000  0.5075920000000 1.0
C      1  0.4785620000000  0.4796830000000  0.5034960000000 1.0
C      1  0.4753580000000  0.4798880000000  0.4491350000000 1.0
C      1  0.5030690000000  0.5471860000000  0.5709370000000 1.0
C      1  0.4971970000000  0.4538150000000  0.4487600000000 1.0
C      1  0.5409430000000  0.4514310000000  0.4786040000000 1.0
C      1  0.5747870000000  0.5065440000000  0.4891520000000 1.0
C      1  0.4689610000000  0.4449290000000  0.5332150000000 1.0
C      1  0.5191570000000  0.5681170000000  0.5265790000000 1.0
C      1  0.4696670000000  0.4437820000000  0.4648860000000 1.0
C      1  0.4276130000000  0.5132810000000  0.4950110000000 1.0
C      1  0.4380550000000  0.5264350000000  0.5227370000000 1.0
END
