TITL C-2848498-1409-341 -0.000215129055001913 125000 -597.109448632115 0 0 108 (C1) n - 1
REM
REM in /home/bkarasulu/work/CARBON/AIRSS/Generating-Clusters/AIREBO/with-SteepDescent/Only-C1/SD-CG-opt/Try1-1.4A-POS3A/HFTN-CG
REM
REM
REM
REM
REM
REM ./C.cell (11c1c37f851c82e70ff6c80c92926a4b)
REM
REM compiler GCC version 9.2.1 20190827 (Red Hat 9.2.1-1)
REM options -cpp -mtune=generic -march=x86-64 -g -O0 -fpre-include=/usr/include/finclude/math-vector-fortran.h
REM seed -1998574961 -820928406 -984391746 -524190533 1713056821 -1711143703 1392451327 749507636 403381028 -649955146 1272559238 1352137811 553080861 -1937744613 -1035675109 -1778146972 -524934197 -1725097325 654660528 870977854 -1097814949 -1846835270 -1878609253 973763736 -136766977 -514980293 1576229811 -1500268606 -320452509 856676534 -1563683239 -136865525 -1570733685
REM
CELL 1.54180   50.00000   50.00000   50.00000   90.00000   90.00000   90.00000
LATT -1
SFAC C  
C      1  0.5445520000000  0.4868170000000  0.4678990000000 1.0
C      1  0.5490610000000  0.4453670000000  0.5454950000000 1.0
C      1  0.4964050000000  0.3991280000000  0.5364920000000 1.0
C      1  0.4855850000000  0.4667570000000  0.4150560000000 1.0
C      1  0.4665460000000  0.5294590000000  0.4151890000000 1.0
C      1  0.5428000000000  0.5122950000000  0.5783430000000 1.0
C      1  0.4386970000000  0.5590750000000  0.4995450000000 1.0
C      1  0.5195970000000  0.4213260000000  0.4829570000000 1.0
C      1  0.6019250000000  0.4710570000000  0.4903860000000 1.0
C      1  0.4779850000000  0.5394250000000  0.5121900000000 1.0
C      1  0.5099810000000  0.5272030000000  0.5487760000000 1.0
C      1  0.4356990000000  0.4449690000000  0.4780870000000 1.0
C      1  0.5443850000000  0.5315690000000  0.4557460000000 1.0
C      1  0.5437790000000  0.4324810000000  0.4614320000000 1.0
C      1  0.5518100000000  0.4601150000000  0.4481360000000 1.0
C      1  0.4543250000000  0.5229750000000  0.5855110000000 1.0
C      1  0.5377380000000  0.5641570000000  0.4486700000000 1.0
C      1  0.4595230000000  0.5117690000000  0.6108430000000 1.0
C      1  0.4750800000000  0.4509080000000  0.4369410000000 1.0
C      1  0.4575090000000  0.5303290000000  0.4693480000000 1.0
C      1  0.4702270000000  0.5440090000000  0.5746470000000 1.0
C      1  0.5888150000000  0.5463560000000  0.4765910000000 1.0
C      1  0.5383740000000  0.4740830000000  0.4201990000000 1.0
C      1  0.5578900000000  0.5695260000000  0.5222150000000 1.0
C      1  0.5352560000000  0.4252230000000  0.5320610000000 1.0
C      1  0.5702730000000  0.4294710000000  0.4800610000000 1.0
C      1  0.5234950000000  0.4015580000000  0.5419670000000 1.0
C      1  0.5039050000000  0.5280440000000  0.4427670000000 1.0
C      1  0.5013740000000  0.5717190000000  0.4132930000000 1.0
C      1  0.5696700000000  0.5204010000000  0.5375530000000 1.0
C      1  0.4590920000000  0.4299020000000  0.4583710000000 1.0
C      1  0.4723410000000  0.4939770000000  0.5378480000000 1.0
C      1  0.4563460000000  0.4801000000000  0.4926990000000 1.0
C      1  0.4948240000000  0.4502760000000  0.4716010000000 1.0
C      1  0.4298330000000  0.4983720000000  0.5026170000000 1.0
C      1  0.4354010000000  0.4799400000000  0.4397220000000 1.0
C      1  0.5263450000000  0.5046940000000  0.4452900000000 1.0
C      1  0.4973840000000  0.4997840000000  0.5566820000000 1.0
C      1  0.4725830000000  0.4704810000000  0.5173010000000 1.0
C      1  0.4604330000000  0.4428070000000  0.5296120000000 1.0
C      1  0.5013350000000  0.5445060000000  0.5753570000000 1.0
C      1  0.5779860000000  0.4534960000000  0.4989890000000 1.0
C      1  0.4320300000000  0.4333440000000  0.5381350000000 1.0
C      1  0.4256420000000  0.5552240000000  0.4515790000000 1.0
C      1  0.4940440000000  0.5808560000000  0.4602490000000 1.0
C      1  0.4972920000000  0.5203750000000  0.5214750000000 1.0
C      1  0.4786280000000  0.4982360000000  0.4167110000000 1.0
C      1  0.4703720000000  0.4677160000000  0.4646880000000 1.0
C      1  0.4827690000000  0.4179760000000  0.5232310000000 1.0
C      1  0.4607570000000  0.5495580000000  0.5465900000000 1.0
C      1  0.4499030000000  0.5711190000000  0.5228430000000 1.0
C      1  0.4849550000000  0.5494490000000  0.4308930000000 1.0
C      1  0.4811240000000  0.4945270000000  0.6114320000000 1.0
C      1  0.4407670000000  0.5665210000000  0.4724800000000 1.0
C      1  0.5211920000000  0.4795530000000  0.4994550000000 1.0
C      1  0.4498990000000  0.4762920000000  0.5670470000000 1.0
C      1  0.4987620000000  0.4962740000000  0.5900330000000 1.0
C      1  0.5202800000000  0.4359070000000  0.5108380000000 1.0
C      1  0.5156640000000  0.4168510000000  0.4503070000000 1.0
C      1  0.5136760000000  0.5689980000000  0.5200900000000 1.0
C      1  0.4182670000000  0.4697100000000  0.4878790000000 1.0
C      1  0.5582890000000  0.5365220000000  0.4867040000000 1.0
C      1  0.5681810000000  0.5143570000000  0.4386070000000 1.0
C      1  0.5646630000000  0.4655820000000  0.5275300000000 1.0
C      1  0.5046240000000  0.4622380000000  0.5172360000000 1.0
C      1  0.4870050000000  0.4269120000000  0.4909060000000 1.0
C      1  0.5137380000000  0.5754860000000  0.4404410000000 1.0
C      1  0.4544520000000  0.4292360000000  0.4987090000000 1.0
C      1  0.4130400000000  0.4895650000000  0.4622320000000 1.0
C      1  0.5513970000000  0.4729760000000  0.4985560000000 1.0
C      1  0.5191840000000  0.4645450000000  0.4719920000000 1.0
C      1  0.5492210000000  0.4870920000000  0.5673990000000 1.0
C      1  0.4883410000000  0.5208190000000  0.4692080000000 1.0
C      1  0.5342680000000  0.5721330000000  0.5465320000000 1.0
C      1  0.5632130000000  0.4885150000000  0.4325820000000 1.0
C      1  0.4898720000000  0.4908740000000  0.4773990000000 1.0
C      1  0.3860970000000  0.4794520000000  0.5331860000000 1.0
C      1  0.5947420000000  0.4953330000000  0.4798630000000 1.0
C      1  0.5104700000000  0.4870720000000  0.4220320000000 1.0
C      1  0.5552180000000  0.5317380000000  0.5619940000000 1.0
C      1  0.5520320000000  0.5676670000000  0.4745840000000 1.0
C      1  0.5310240000000  0.5430660000000  0.5059820000000 1.0
C      1  0.5099890000000  0.5068890000000  0.4994950000000 1.0
C      1  0.5196990000000  0.5295640000000  0.4790400000000 1.0
C      1  0.4479600000000  0.5272610000000  0.5018640000000 1.0
C      1  0.4518190000000  0.5192430000000  0.5347000000000 1.0
C      1  0.4358710000000  0.4501940000000  0.4444910000000 1.0
C      1  0.4456800000000  0.4986050000000  0.4662160000000 1.0
C      1  0.5701340000000  0.5059680000000  0.4776400000000 1.0
C      1  0.4462820000000  0.5031370000000  0.4232220000000 1.0
C      1  0.4699480000000  0.5605320000000  0.4598170000000 1.0
C      1  0.5352920000000  0.5406550000000  0.5379840000000 1.0
C      1  0.5203030000000  0.5922860000000  0.5009030000000 1.0
C      1  0.4880430000000  0.4206200000000  0.4428910000000 1.0
C      1  0.5704180000000  0.5417650000000  0.5180380000000 1.0
C      1  0.4037260000000  0.4819250000000  0.5151870000000 1.0
C      1  0.5019150000000  0.5976720000000  0.4809500000000 1.0
C      1  0.5171690000000  0.5187330000000  0.5871340000000 1.0
C      1  0.5182140000000  0.5715050000000  0.5734930000000 1.0
C      1  0.4422040000000  0.5314980000000  0.4389940000000 1.0
C      1  0.4966960000000  0.4525550000000  0.5680900000000 1.0
C      1  0.5071010000000  0.4728060000000  0.5456050000000 1.0
C      1  0.4833270000000  0.5669900000000  0.5275170000000 1.0
C      1  0.5481860000000  0.5832700000000  0.4980400000000 1.0
C      1  0.4671070000000  0.4533840000000  0.5608580000000 1.0
C      1  0.5659910000000  0.4910030000000  0.5439870000000 1.0
C      1  0.5301010000000  0.4614070000000  0.5647990000000 1.0
C      1  0.4455720000000  0.5049680000000  0.5649280000000 1.0
END
