TITL C-2847951-7423-628 -0.00023053335391391 125000 -929.30605265265 0 0 172 (C1) n - 1
REM
REM in /home/bkarasulu/work/CARBON/AIRSS/Generating-Clusters/AIREBO/with-SteepDescent/Only-C1/SD-CG-opt/Try1-1.4A-POS3A/HFTN-CG
REM
REM
REM
REM
REM
REM ./C.cell (11c1c37f851c82e70ff6c80c92926a4b)
REM
REM compiler GCC version 9.2.1 20190827 (Red Hat 9.2.1-1)
REM options -cpp -mtune=generic -march=x86-64 -g -O0 -fpre-include=/usr/include/finclude/math-vector-fortran.h
REM seed -1233043022 -1152150494 -1640593133 -1653554571 830566240 1209762558 -338818996 944019214 234787172 1170457985 1016141477 -57652610 686282255 656144869 891494627 825432358 981133145 -1706705489 -220828577 1536276458 290331222 -283018087 939925691 1329719541 -438095615 -1164572543 -173068603 1718661000 1224712192 -179262583 -120496390 1761914097 846927460
REM
CELL 1.54180   50.00000   50.00000   50.00000   90.00000   90.00000   90.00000
LATT -1
SFAC C  
C      1  0.5057240000000  0.5502490000000  0.4890480000000 1.0
C      1  0.4358550000000  0.4412820000000  0.4380580000000 1.0
C      1  0.4298030000000  0.5717070000000  0.5472390000000 1.0
C      1  0.5290290000000  0.5631940000000  0.4238800000000 1.0
C      1  0.5136380000000  0.4400080000000  0.4815590000000 1.0
C      1  0.4595180000000  0.4262690000000  0.4411560000000 1.0
C      1  0.4743040000000  0.5873450000000  0.4442410000000 1.0
C      1  0.5323730000000  0.4126150000000  0.5188170000000 1.0
C      1  0.5811660000000  0.4454570000000  0.5535430000000 1.0
C      1  0.4673050000000  0.4728090000000  0.4199740000000 1.0
C      1  0.4301030000000  0.5055410000000  0.5884580000000 1.0
C      1  0.4124390000000  0.5557910000000  0.5260750000000 1.0
C      1  0.4747330000000  0.3967050000000  0.4864520000000 1.0
C      1  0.5375820000000  0.5536000000000  0.5856430000000 1.0
C      1  0.4874110000000  0.5328780000000  0.5859750000000 1.0
C      1  0.5455910000000  0.4784920000000  0.5512620000000 1.0
C      1  0.5620100000000  0.4951850000000  0.5311040000000 1.0
C      1  0.4706260000000  0.5150290000000  0.4535460000000 1.0
C      1  0.4895920000000  0.5027820000000  0.6244980000000 1.0
C      1  0.3907250000000  0.5412080000000  0.5062420000000 1.0
C      1  0.4425070000000  0.4193880000000  0.5683930000000 1.0
C      1  0.4621820000000  0.5327510000000  0.3837720000000 1.0
C      1  0.5152840000000  0.6012010000000  0.5480460000000 1.0
C      1  0.5749800000000  0.4571260000000  0.4748620000000 1.0
C      1  0.5938650000000  0.4764860000000  0.4604790000000 1.0
C      1  0.5528760000000  0.4236730000000  0.4391350000000 1.0
C      1  0.4310250000000  0.4717560000000  0.5927750000000 1.0
C      1  0.4526500000000  0.5310140000000  0.5927630000000 1.0
C      1  0.5299730000000  0.5275530000000  0.4966130000000 1.0
C      1  0.4380180000000  0.4852750000000  0.5153530000000 1.0
C      1  0.5567000000000  0.4318990000000  0.5146020000000 1.0
C      1  0.4840210000000  0.4808680000000  0.6016730000000 1.0
C      1  0.4860630000000  0.4481300000000  0.5701510000000 1.0
C      1  0.4366920000000  0.4744780000000  0.4307280000000 1.0
C      1  0.6084820000000  0.5391480000000  0.4658950000000 1.0
C      1  0.5317970000000  0.5132190000000  0.6062180000000 1.0
C      1  0.5178580000000  0.4399180000000  0.4488940000000 1.0
C      1  0.4853670000000  0.4291370000000  0.5208500000000 1.0
C      1  0.3930950000000  0.4935980000000  0.4871070000000 1.0
C      1  0.5118980000000  0.5497480000000  0.5694510000000 1.0
C      1  0.5837340000000  0.5185510000000  0.5037800000000 1.0
C      1  0.5003700000000  0.5713000000000  0.4292290000000 1.0
C      1  0.4839390000000  0.5307810000000  0.5337740000000 1.0
C      1  0.5151790000000  0.4879680000000  0.5476650000000 1.0
C      1  0.6051960000000  0.5197750000000  0.4501610000000 1.0
C      1  0.4814690000000  0.4835550000000  0.5472330000000 1.0
C      1  0.5191400000000  0.4705670000000  0.4061040000000 1.0
C      1  0.4864860000000  0.4631260000000  0.5205210000000 1.0
C      1  0.5024980000000  0.6196300000000  0.4558610000000 1.0
C      1  0.5358660000000  0.4227510000000  0.4149390000000 1.0
C      1  0.5705270000000  0.5544080000000  0.5633920000000 1.0
C      1  0.4955530000000  0.6069060000000  0.4786560000000 1.0
C      1  0.5502000000000  0.4799170000000  0.4106020000000 1.0
C      1  0.5636100000000  0.5768230000000  0.4874740000000 1.0
C      1  0.4500560000000  0.5697240000000  0.4573410000000 1.0
C      1  0.5009570000000  0.4715560000000  0.4822680000000 1.0
C      1  0.5241790000000  0.5055980000000  0.5209920000000 1.0
C      1  0.4200840000000  0.4784110000000  0.5420220000000 1.0
C      1  0.4440520000000  0.5275440000000  0.5423810000000 1.0
C      1  0.4416470000000  0.5504620000000  0.5673840000000 1.0
C      1  0.5349590000000  0.4859690000000  0.6007610000000 1.0
C      1  0.4212710000000  0.5292740000000  0.4715040000000 1.0
C      1  0.5440890000000  0.5404080000000  0.4441350000000 1.0
C      1  0.5820560000000  0.4614650000000  0.5059020000000 1.0
C      1  0.5583040000000  0.5381520000000  0.4957730000000 1.0
C      1  0.4684990000000  0.4387200000000  0.5454560000000 1.0
C      1  0.4998960000000  0.3938910000000  0.4699710000000 1.0
C      1  0.5161130000000  0.5326470000000  0.5399690000000 1.0
C      1  0.4447620000000  0.5506630000000  0.5168410000000 1.0
C      1  0.5854300000000  0.5517710000000  0.4801900000000 1.0
C      1  0.5549440000000  0.5057290000000  0.3993170000000 1.0
C      1  0.4567300000000  0.5456750000000  0.4131560000000 1.0
C      1  0.4809720000000  0.5172050000000  0.5016840000000 1.0
C      1  0.5778490000000  0.5084710000000  0.4426490000000 1.0
C      1  0.4303870000000  0.4488220000000  0.5670780000000 1.0
C      1  0.4699280000000  0.4010030000000  0.5189540000000 1.0
C      1  0.5104480000000  0.4245190000000  0.5085770000000 1.0
C      1  0.4578650000000  0.5992540000000  0.4710370000000 1.0
C      1  0.4578710000000  0.5645810000000  0.4901510000000 1.0
C      1  0.4868640000000  0.4793160000000  0.3993980000000 1.0
C      1  0.4968270000000  0.3954090000000  0.5389850000000 1.0
C      1  0.4331560000000  0.4646280000000  0.4631020000000 1.0
C      1  0.6063370000000  0.4971270000000  0.5052420000000 1.0
C      1  0.4516950000000  0.5912380000000  0.5459820000000 1.0
C      1  0.5261510000000  0.4090150000000  0.4752880000000 1.0
C      1  0.5939720000000  0.4600220000000  0.5317770000000 1.0
C      1  0.4800570000000  0.4450610000000  0.4779160000000 1.0
C      1  0.4675530000000  0.4218670000000  0.5813230000000 1.0
C      1  0.5574660000000  0.4307070000000  0.5468350000000 1.0
C      1  0.5191130000000  0.5584330000000  0.5192700000000 1.0
C      1  0.4461010000000  0.4363290000000  0.5207060000000 1.0
C      1  0.5015320000000  0.4104650000000  0.4441410000000 1.0
C      1  0.4366150000000  0.5562000000000  0.4345880000000 1.0
C      1  0.4159160000000  0.5390430000000  0.4416530000000 1.0
C      1  0.4769790000000  0.5428580000000  0.4722710000000 1.0
C      1  0.5095310000000  0.5970750000000  0.5147900000000 1.0
C      1  0.5695570000000  0.5163170000000  0.5743080000000 1.0
C      1  0.4448930000000  0.5154060000000  0.4231510000000 1.0
C      1  0.4513920000000  0.5030950000000  0.5648560000000 1.0
C      1  0.4095740000000  0.4905210000000  0.4435180000000 1.0
C      1  0.5663910000000  0.4289490000000  0.4860350000000 1.0
C      1  0.5146940000000  0.4054020000000  0.5574850000000 1.0
C      1  0.5494100000000  0.5304100000000  0.5936190000000 1.0
C      1  0.5442850000000  0.5751340000000  0.5243890000000 1.0
C      1  0.4760730000000  0.5117880000000  0.4200510000000 1.0
C      1  0.4826410000000  0.5080320000000  0.3870020000000 1.0
C      1  0.5472440000000  0.5316030000000  0.5536970000000 1.0
C      1  0.4544350000000  0.4707900000000  0.5609930000000 1.0
C      1  0.5891680000000  0.5568430000000  0.5402120000000 1.0
C      1  0.5553480000000  0.5568460000000  0.4099510000000 1.0
C      1  0.5525650000000  0.4131350000000  0.4666940000000 1.0
C      1  0.4695550000000  0.5790600000000  0.5665610000000 1.0
C      1  0.5107460000000  0.5175170000000  0.3965170000000 1.0
C      1  0.4234520000000  0.4244030000000  0.4883490000000 1.0
C      1  0.4374490000000  0.5074860000000  0.4531450000000 1.0
C      1  0.4515000000000  0.5255380000000  0.4866800000000 1.0
C      1  0.5713370000000  0.5622110000000  0.5159580000000 1.0
C      1  0.5027840000000  0.5705210000000  0.5441150000000 1.0
C      1  0.4728290000000  0.5927880000000  0.4996470000000 1.0
C      1  0.4479660000000  0.4479920000000  0.4888070000000 1.0
C      1  0.5134760000000  0.5200110000000  0.4292880000000 1.0
C      1  0.3864540000000  0.4841730000000  0.4615720000000 1.0
C      1  0.4119270000000  0.5023180000000  0.5597740000000 1.0
C      1  0.4636470000000  0.5043300000000  0.5270630000000 1.0
C      1  0.5341140000000  0.5153490000000  0.3834060000000 1.0
C      1  0.4980370000000  0.6051140000000  0.4321180000000 1.0
C      1  0.4304920000000  0.5147660000000  0.5072740000000 1.0
C      1  0.5595790000000  0.5580810000000  0.4612750000000 1.0
C      1  0.5874530000000  0.4896570000000  0.5822550000000 1.0
C      1  0.6115410000000  0.4874340000000  0.4785180000000 1.0
C      1  0.4887570000000  0.4398820000000  0.4313000000000 1.0
C      1  0.4629770000000  0.4600630000000  0.5920850000000 1.0
C      1  0.4739170000000  0.4874000000000  0.4704160000000 1.0
C      1  0.4173380000000  0.4735990000000  0.4919460000000 1.0
C      1  0.5807950000000  0.4580000000000  0.5783920000000 1.0
C      1  0.5958960000000  0.5051460000000  0.5544780000000 1.0
C      1  0.5341470000000  0.4797660000000  0.5029550000000 1.0
C      1  0.4237370000000  0.4963730000000  0.4071430000000 1.0
C      1  0.4659340000000  0.4185560000000  0.4686030000000 1.0
C      1  0.4178830000000  0.4473820000000  0.5361260000000 1.0
C      1  0.4110140000000  0.4461310000000  0.5046410000000 1.0
C      1  0.4862000000000  0.4708230000000  0.4451880000000 1.0
C      1  0.5415890000000  0.5961080000000  0.4909040000000 1.0
C      1  0.3966430000000  0.5219870000000  0.4878820000000 1.0
C      1  0.5130750000000  0.5814330000000  0.4872480000000 1.0
C      1  0.4442130000000  0.4083930000000  0.5400040000000 1.0
C      1  0.4823320000000  0.5014950000000  0.5762670000000 1.0
C      1  0.5636890000000  0.5257420000000  0.4201850000000 1.0
C      1  0.5145920000000  0.4396550000000  0.4091770000000 1.0
C      1  0.5084230000000  0.4882600000000  0.4316280000000 1.0
C      1  0.4803890000000  0.5924810000000  0.5307330000000 1.0
C      1  0.6065040000000  0.4860840000000  0.5320000000000 1.0
C      1  0.5297880000000  0.4299100000000  0.5563500000000 1.0
C      1  0.5374540000000  0.4577430000000  0.5255780000000 1.0
C      1  0.5412480000000  0.4596120000000  0.4783410000000 1.0
C      1  0.5572470000000  0.5017920000000  0.4666200000000 1.0
C      1  0.4657790000000  0.4744330000000  0.5006250000000 1.0
C      1  0.5052150000000  0.5223970000000  0.6119800000000 1.0
C      1  0.5481920000000  0.4548740000000  0.4453960000000 1.0
C      1  0.5660180000000  0.4902310000000  0.4974090000000 1.0
C      1  0.5137600000000  0.4701810000000  0.6068550000000 1.0
C      1  0.5760380000000  0.5257500000000  0.5361050000000 1.0
C      1  0.5076590000000  0.5048640000000  0.4845910000000 1.0
C      1  0.4119960000000  0.5228850000000  0.5346230000000 1.0
C      1  0.5411090000000  0.6074900000000  0.5218950000000 1.0
C      1  0.5089320000000  0.4545960000000  0.5457140000000 1.0
C      1  0.5282200000000  0.5143810000000  0.4592130000000 1.0
C      1  0.5685870000000  0.4768010000000  0.4377080000000 1.0
C      1  0.5551330000000  0.4786760000000  0.5804680000000 1.0
C      1  0.4886530000000  0.5429570000000  0.4252230000000 1.0
C      1  0.4737430000000  0.5477290000000  0.5592480000000 1.0
C      1  0.4053390000000  0.5180470000000  0.4257980000000 1.0
END
