TITL C-2848494-1720-413 -0.000523405547840913 125000 -223.994365999196 0 0 43 (C1) n - 1
REM
REM in /home/bkarasulu/work/CARBON/AIRSS/Generating-Clusters/AIREBO/with-SteepDescent/Only-C1/SD-CG-opt/Try1-1.4A-POS3A/HFTN-CG
REM
REM
REM
REM
REM
REM ./C.cell (11c1c37f851c82e70ff6c80c92926a4b)
REM
REM compiler GCC version 9.2.1 20190827 (Red Hat 9.2.1-1)
REM options -cpp -mtune=generic -march=x86-64 -g -O0 -fpre-include=/usr/include/finclude/math-vector-fortran.h
REM seed 711243852 775832688 -948143008 1336435366 177786118 -1609875582 2085965412 2048391784 1546823263 1032287811 -1936111239 588706347 466211945 -2142281347 1220308764 -1985208973 539222840 578493813 -172759431 599318032 -1269127729 1538741307 1981078730 656482840 11137358 1887632320 -1323581861 1747266432 -361028509 -1292038960 -173938955 -1384089122 342809574
REM
CELL 1.54180   50.00000   50.00000   50.00000   90.00000   90.00000   90.00000
LATT -1
SFAC C  
C      1  0.5184920000000  0.4433560000000  0.4628720000000 1.0
C      1  0.4467650000000  0.4645170000000  0.5029090000000 1.0
C      1  0.4312160000000  0.5213870000000  0.4708640000000 1.0
C      1  0.5530150000000  0.4775590000000  0.5183890000000 1.0
C      1  0.4790670000000  0.4631390000000  0.4970600000000 1.0
C      1  0.4479580000000  0.5068960000000  0.5583660000000 1.0
C      1  0.5446650000000  0.5224420000000  0.4923770000000 1.0
C      1  0.5085950000000  0.5303550000000  0.4893930000000 1.0
C      1  0.5033860000000  0.4268950000000  0.5461070000000 1.0
C      1  0.5400410000000  0.4947000000000  0.5403700000000 1.0
C      1  0.4578650000000  0.4769610000000  0.4742360000000 1.0
C      1  0.4690650000000  0.5272560000000  0.4595220000000 1.0
C      1  0.4330420000000  0.4787140000000  0.5209340000000 1.0
C      1  0.5415390000000  0.5007640000000  0.4480530000000 1.0
C      1  0.5430170000000  0.5759340000000  0.4369390000000 1.0
C      1  0.4337700000000  0.4968680000000  0.4651320000000 1.0
C      1  0.5555480000000  0.4718110000000  0.4856570000000 1.0
C      1  0.4556520000000  0.5368310000000  0.4856370000000 1.0
C      1  0.5248460000000  0.4898770000000  0.5038660000000 1.0
C      1  0.5043830000000  0.5644630000000  0.5086230000000 1.0
C      1  0.5052060000000  0.4604850000000  0.5402800000000 1.0
C      1  0.5000150000000  0.4426520000000  0.4911960000000 1.0
C      1  0.5210010000000  0.4818130000000  0.5560260000000 1.0
C      1  0.5652670000000  0.5026900000000  0.4898010000000 1.0
C      1  0.5294430000000  0.5285320000000  0.4625820000000 1.0
C      1  0.5037450000000  0.5367740000000  0.5283480000000 1.0
C      1  0.5187920000000  0.5617280000000  0.4821760000000 1.0
C      1  0.4958410000000  0.5091100000000  0.5412000000000 1.0
C      1  0.4955610000000  0.4841760000000  0.5180830000000 1.0
C      1  0.5321350000000  0.4726450000000  0.4625890000000 1.0
C      1  0.5039740000000  0.4986420000000  0.5734680000000 1.0
C      1  0.4765180000000  0.5471010000000  0.5104470000000 1.0
C      1  0.5292000000000  0.5187840000000  0.5213700000000 1.0
C      1  0.4598400000000  0.5178460000000  0.5127650000000 1.0
C      1  0.5333570000000  0.5604090000000  0.4565130000000 1.0
C      1  0.4988120000000  0.5174590000000  0.4528190000000 1.0
C      1  0.4734440000000  0.4951420000000  0.4548670000000 1.0
C      1  0.5101090000000  0.4938100000000  0.4738500000000 1.0
C      1  0.4423860000000  0.5031910000000  0.5310630000000 1.0
C      1  0.4874140000000  0.5081540000000  0.4953890000000 1.0
C      1  0.5173730000000  0.4375090000000  0.5193000000000 1.0
C      1  0.5344130000000  0.4470380000000  0.4929910000000 1.0
C      1  0.4742250000000  0.5035830000000  0.5655750000000 1.0
END
