TITL C-2848502-4955-728 0.00133804370775705 125000 -793.207084571573 0 0 142 (C1) n - 1
REM
REM in /home/bkarasulu/work/CARBON/AIRSS/Generating-Clusters/AIREBO/with-SteepDescent/Only-C1/SD-CG-opt/Try1-1.4A-POS3A/HFTN-CG
REM
REM
REM
REM
REM
REM ./C.cell (11c1c37f851c82e70ff6c80c92926a4b)
REM
REM compiler GCC version 9.2.1 20190827 (Red Hat 9.2.1-1)
REM options -cpp -mtune=generic -march=x86-64 -g -O0 -fpre-include=/usr/include/finclude/math-vector-fortran.h
REM seed 1266098358 -1782057284 1411034804 -170946548 -1602219738 -1410819212 873129391 586529928 -157601413 -2023854164 2089836751 244528034 -1967865001 2084297994 -941523393 254699588 108064123 834634581 -1233311308 -2144611472 -522792103 1997830754 33389388 450131355 1777460901 1087423621 968471724 -888726170 643334029 -42970793 -2111814462 1277341861 1762700193
REM
CELL 1.54180   50.00000   50.00000   50.00000   90.00000   90.00000   90.00000
LATT -1
SFAC C  
C      1  0.4530170000000  0.4378740000000  0.5264730000000 1.0
C      1  0.5221520000000  0.5106180000000  0.5678650000000 1.0
C      1  0.5248070000000  0.5478260000000  0.4675400000000 1.0
C      1  0.5908320000000  0.5077240000000  0.5073440000000 1.0
C      1  0.4452990000000  0.4686290000000  0.5265320000000 1.0
C      1  0.4554790000000  0.5760830000000  0.4716310000000 1.0
C      1  0.5544570000000  0.5458710000000  0.4547330000000 1.0
C      1  0.4717930000000  0.5782780000000  0.5801290000000 1.0
C      1  0.5128430000000  0.4707630000000  0.4297140000000 1.0
C      1  0.5745120000000  0.5689710000000  0.5390460000000 1.0
C      1  0.5147450000000  0.4615640000000  0.5473720000000 1.0
C      1  0.4705510000000  0.4854830000000  0.5673220000000 1.0
C      1  0.5365640000000  0.5199930000000  0.4050240000000 1.0
C      1  0.5100410000000  0.5115400000000  0.5981980000000 1.0
C      1  0.4683730000000  0.5016990000000  0.4927920000000 1.0
C      1  0.4659010000000  0.3932900000000  0.5076540000000 1.0
C      1  0.5190450000000  0.4166580000000  0.4581160000000 1.0
C      1  0.4173980000000  0.5488030000000  0.4778490000000 1.0
C      1  0.6041340000000  0.5132540000000  0.4276470000000 1.0
C      1  0.5743320000000  0.4216940000000  0.5017550000000 1.0
C      1  0.4794220000000  0.5694310000000  0.5257530000000 1.0
C      1  0.4273390000000  0.4916420000000  0.5105110000000 1.0
C      1  0.5160940000000  0.6066670000000  0.5414440000000 1.0
C      1  0.4724300000000  0.4093460000000  0.4783630000000 1.0
C      1  0.5494020000000  0.4589940000000  0.4193290000000 1.0
C      1  0.4976440000000  0.5637530000000  0.5034910000000 1.0
C      1  0.5556830000000  0.5135900000000  0.4501360000000 1.0
C      1  0.4262670000000  0.4475420000000  0.5545550000000 1.0
C      1  0.5366670000000  0.5500630000000  0.4148230000000 1.0
C      1  0.5482920000000  0.4679670000000  0.5211040000000 1.0
C      1  0.5424240000000  0.4810560000000  0.5506090000000 1.0
C      1  0.5643440000000  0.5284120000000  0.5888870000000 1.0
C      1  0.4588950000000  0.5110440000000  0.5547210000000 1.0
C      1  0.5509000000000  0.5638970000000  0.5072090000000 1.0
C      1  0.5355640000000  0.4391740000000  0.4434380000000 1.0
C      1  0.4648390000000  0.4863230000000  0.4062220000000 1.0
C      1  0.5858020000000  0.4817720000000  0.5376520000000 1.0
C      1  0.4786850000000  0.4297020000000  0.5719990000000 1.0
C      1  0.4712720000000  0.4903780000000  0.5228820000000 1.0
C      1  0.5393400000000  0.4893830000000  0.4193550000000 1.0
C      1  0.4588800000000  0.5114490000000  0.4440660000000 1.0
C      1  0.4318650000000  0.5386310000000  0.5447610000000 1.0
C      1  0.3984190000000  0.5031410000000  0.4719870000000 1.0
C      1  0.4141590000000  0.4550430000000  0.5279550000000 1.0
C      1  0.4573890000000  0.4901600000000  0.4645120000000 1.0
C      1  0.4508390000000  0.4716480000000  0.5860270000000 1.0
C      1  0.5619400000000  0.5847900000000  0.4596360000000 1.0
C      1  0.5891020000000  0.5377080000000  0.4988100000000 1.0
C      1  0.5085260000000  0.4333420000000  0.5880370000000 1.0
C      1  0.5078820000000  0.5470200000000  0.3983460000000 1.0
C      1  0.4479310000000  0.4711490000000  0.4268460000000 1.0
C      1  0.4991790000000  0.5826430000000  0.4396210000000 1.0
C      1  0.5370210000000  0.4412160000000  0.5772730000000 1.0
C      1  0.5167860000000  0.5581560000000  0.5567000000000 1.0
C      1  0.5030110000000  0.4858780000000  0.6061370000000 1.0
C      1  0.4475320000000  0.4372220000000  0.4307460000000 1.0
C      1  0.5199460000000  0.4614380000000  0.4612030000000 1.0
C      1  0.5420990000000  0.4418700000000  0.5428270000000 1.0
C      1  0.5135000000000  0.5051290000000  0.3934020000000 1.0
C      1  0.5600450000000  0.5526250000000  0.5842130000000 1.0
C      1  0.5933970000000  0.4385660000000  0.5122540000000 1.0
C      1  0.5249770000000  0.5483760000000  0.4972710000000 1.0
C      1  0.4765810000000  0.5724040000000  0.4540380000000 1.0
C      1  0.5127810000000  0.5281520000000  0.5447770000000 1.0
C      1  0.5193810000000  0.5000820000000  0.5028430000000 1.0
C      1  0.5583830000000  0.5307170000000  0.5096910000000 1.0
C      1  0.4812460000000  0.4663010000000  0.5432690000000 1.0
C      1  0.4254330000000  0.4682040000000  0.5739940000000 1.0
C      1  0.5553710000000  0.4725820000000  0.4754990000000 1.0
C      1  0.5037000000000  0.4823480000000  0.5719180000000 1.0
C      1  0.4458960000000  0.5329960000000  0.5752160000000 1.0
C      1  0.4708470000000  0.4619990000000  0.4902560000000 1.0
C      1  0.4648140000000  0.5488060000000  0.5903090000000 1.0
C      1  0.4881450000000  0.5375830000000  0.4862080000000 1.0
C      1  0.5685890000000  0.4469330000000  0.4410980000000 1.0
C      1  0.4701420000000  0.4627950000000  0.4505210000000 1.0
C      1  0.4231980000000  0.5348690000000  0.4145800000000 1.0
C      1  0.4449510000000  0.4189040000000  0.5058100000000 1.0
C      1  0.4104860000000  0.4927290000000  0.5730400000000 1.0
C      1  0.4868910000000  0.5318830000000  0.4064500000000 1.0
C      1  0.4645600000000  0.5921370000000  0.5552430000000 1.0
C      1  0.5378610000000  0.5824610000000  0.5315940000000 1.0
C      1  0.5307580000000  0.4635570000000  0.4925780000000 1.0
C      1  0.4955620000000  0.3956710000000  0.5220870000000 1.0
C      1  0.5542040000000  0.5054710000000  0.5713800000000 1.0
C      1  0.5495010000000  0.4113270000000  0.4964250000000 1.0
C      1  0.4506230000000  0.4184450000000  0.4544150000000 1.0
C      1  0.5189860000000  0.5872960000000  0.5035130000000 1.0
C      1  0.5589220000000  0.5692830000000  0.4319770000000 1.0
C      1  0.5228610000000  0.5069650000000  0.4433500000000 1.0
C      1  0.5132270000000  0.6269420000000  0.5229520000000 1.0
C      1  0.4167900000000  0.5182920000000  0.5677610000000 1.0
C      1  0.4956810000000  0.4190340000000  0.5009420000000 1.0
C      1  0.5581670000000  0.4623580000000  0.5721070000000 1.0
C      1  0.4450810000000  0.5878960000000  0.5368900000000 1.0
C      1  0.4930970000000  0.4741960000000  0.4717250000000 1.0
C      1  0.4835270000000  0.4475410000000  0.5149940000000 1.0
C      1  0.5024280000000  0.4468420000000  0.4163500000000 1.0
C      1  0.5482130000000  0.5658830000000  0.5589870000000 1.0
C      1  0.5627990000000  0.5814360000000  0.4843360000000 1.0
C      1  0.6038510000000  0.4855860000000  0.4938840000000 1.0
C      1  0.4415150000000  0.4728070000000  0.4871620000000 1.0
C      1  0.4477780000000  0.5578320000000  0.5212350000000 1.0
C      1  0.4930060000000  0.5450320000000  0.4558540000000 1.0
C      1  0.4649620000000  0.5304760000000  0.5105790000000 1.0
C      1  0.4948850000000  0.4931210000000  0.4162310000000 1.0
C      1  0.4963180000000  0.5836760000000  0.5488060000000 1.0
C      1  0.5793120000000  0.4833030000000  0.5654150000000 1.0
C      1  0.4289400000000  0.5198610000000  0.4372120000000 1.0
C      1  0.4806650000000  0.4357360000000  0.4345770000000 1.0
C      1  0.5898810000000  0.5583540000000  0.5229410000000 1.0
C      1  0.4244700000000  0.4871320000000  0.4366930000000 1.0
C      1  0.5231520000000  0.5660230000000  0.4401550000000 1.0
C      1  0.3760380000000  0.5063670000000  0.5168120000000 1.0
C      1  0.5235190000000  0.4131190000000  0.4856110000000 1.0
C      1  0.4064180000000  0.4797640000000  0.4572550000000 1.0
C      1  0.4846000000000  0.5192920000000  0.5359840000000 1.0
C      1  0.4977730000000  0.5053920000000  0.4810010000000 1.0
C      1  0.4911450000000  0.4144040000000  0.4521430000000 1.0
C      1  0.4525460000000  0.4260200000000  0.5568120000000 1.0
C      1  0.4150150000000  0.4602520000000  0.4769460000000 1.0
C      1  0.4912800000000  0.5194540000000  0.4374440000000 1.0
C      1  0.4520200000000  0.3975670000000  0.5385510000000 1.0
C      1  0.3963580000000  0.4952900000000  0.5016480000000 1.0
C      1  0.5151200000000  0.6141120000000  0.4979820000000 1.0
C      1  0.4014170000000  0.4620300000000  0.5040170000000 1.0
C      1  0.4120340000000  0.5257510000000  0.4633610000000 1.0
C      1  0.5276140000000  0.5239670000000  0.5185490000000 1.0
C      1  0.5827390000000  0.5351870000000  0.4686620000000 1.0
C      1  0.4911720000000  0.5535260000000  0.5742930000000 1.0
C      1  0.5104960000000  0.4016220000000  0.5437260000000 1.0
C      1  0.5091520000000  0.4699010000000  0.5148760000000 1.0
C      1  0.5970010000000  0.4833130000000  0.4664040000000 1.0
C      1  0.4393810000000  0.5139490000000  0.5256990000000 1.0
C      1  0.4373810000000  0.5642660000000  0.4898230000000 1.0
C      1  0.5060680000000  0.4295790000000  0.5550090000000 1.0
C      1  0.5895950000000  0.5089260000000  0.4511250000000 1.0
C      1  0.5995200000000  0.4661970000000  0.5165790000000 1.0
C      1  0.5626150000000  0.4988460000000  0.5210920000000 1.0
C      1  0.5362130000000  0.4981720000000  0.4733590000000 1.0
C      1  0.4683350000000  0.5133130000000  0.3942370000000 1.0
C      1  0.5770150000000  0.4642080000000  0.4612890000000 1.0
END
