TITL C-2848505-4874-404 -0.00146578272058296 125000 -227.478694568994 0 0 44 (C1) n - 1
REM
REM in /home/bkarasulu/work/CARBON/AIRSS/Generating-Clusters/AIREBO/with-SteepDescent/Only-C1/SD-CG-opt/Try1-1.4A-POS3A/HFTN-CG
REM
REM
REM
REM
REM
REM ./C.cell (11c1c37f851c82e70ff6c80c92926a4b)
REM
REM compiler GCC version 9.2.1 20190827 (Red Hat 9.2.1-1)
REM options -cpp -mtune=generic -march=x86-64 -g -O0 -fpre-include=/usr/include/finclude/math-vector-fortran.h
REM seed -935231729 -1682847536 1833994673 2093036505 -429964377 -158776010 -1995286479 -1903310291 103508115 1801097538 -646436709 957570907 1961109564 -1614870419 -1389490552 1816344539 686951531 -1200908274 -1479312916 1214596308 -1690349148 -1963998295 -1059862110 1314481787 821848690 -1232194486 867593990 -42314255 251129942 -1680764916 -544059715 -943397095 1514030473
REM
CELL 1.54180   50.00000   50.00000   50.00000   90.00000   90.00000   90.00000
LATT -1
SFAC C  
C      1  0.4942180000000  0.4504970000000  0.5187070000000 1.0
C      1  0.4588720000000  0.4488080000000  0.4798770000000 1.0
C      1  0.4885110000000  0.4929080000000  0.4646310000000 1.0
C      1  0.4503680000000  0.5474820000000  0.4985610000000 1.0
C      1  0.4901460000000  0.5179100000000  0.5282100000000 1.0
C      1  0.4750980000000  0.5421630000000  0.4496010000000 1.0
C      1  0.5393030000000  0.4808780000000  0.4782480000000 1.0
C      1  0.5603140000000  0.5333720000000  0.4829470000000 1.0
C      1  0.5649040000000  0.5005940000000  0.4798140000000 1.0
C      1  0.4703760000000  0.4659400000000  0.4621810000000 1.0
C      1  0.4529350000000  0.5279210000000  0.5553000000000 1.0
C      1  0.5219020000000  0.5217820000000  0.5644070000000 1.0
C      1  0.5355170000000  0.5052570000000  0.5384160000000 1.0
C      1  0.4291470000000  0.4960390000000  0.5313360000000 1.0
C      1  0.5200640000000  0.4666580000000  0.4319240000000 1.0
C      1  0.5567780000000  0.5303200000000  0.4541080000000 1.0
C      1  0.5073010000000  0.5388950000000  0.4888240000000 1.0
C      1  0.4789730000000  0.5470180000000  0.4818440000000 1.0
C      1  0.4649160000000  0.4957360000000  0.4882140000000 1.0
C      1  0.5759040000000  0.4953940000000  0.5089050000000 1.0
C      1  0.5190070000000  0.5172510000000  0.5123110000000 1.0
C      1  0.4547330000000  0.4991240000000  0.5468610000000 1.0
C      1  0.4639020000000  0.4440970000000  0.5064420000000 1.0
C      1  0.5215290000000  0.4517170000000  0.5311510000000 1.0
C      1  0.4462610000000  0.5412280000000  0.4657870000000 1.0
C      1  0.5011080000000  0.5225960000000  0.4594630000000 1.0
C      1  0.4886320000000  0.4792580000000  0.5021460000000 1.0
C      1  0.5644010000000  0.4998340000000  0.5306380000000 1.0
C      1  0.4660460000000  0.4559270000000  0.5369530000000 1.0
C      1  0.5190200000000  0.4872550000000  0.4545660000000 1.0
C      1  0.4375110000000  0.4957130000000  0.4739440000000 1.0
C      1  0.4299760000000  0.5169430000000  0.4618500000000 1.0
C      1  0.5565730000000  0.4985490000000  0.4468760000000 1.0
C      1  0.5151520000000  0.4916070000000  0.4945020000000 1.0
C      1  0.4393510000000  0.5280300000000  0.5241260000000 1.0
C      1  0.4835390000000  0.4852950000000  0.5352210000000 1.0
C      1  0.5421890000000  0.4453350000000  0.5153170000000 1.0
C      1  0.5464800000000  0.4528340000000  0.4893470000000 1.0
C      1  0.5280920000000  0.5171790000000  0.4433560000000 1.0
C      1  0.5215600000000  0.4936050000000  0.5736920000000 1.0
C      1  0.4669580000000  0.5196130000000  0.5083380000000 1.0
C      1  0.5396260000000  0.5410390000000  0.4994310000000 1.0
C      1  0.5146310000000  0.4775520000000  0.5467810000000 1.0
C      1  0.4981730000000  0.5328480000000  0.5548420000000 1.0
END
