TITL C-2848506-1665-400 0.00117963410699193 125000 -618.588750390753 0 0 112 (C1) n - 1
REM
REM in /home/bkarasulu/work/CARBON/AIRSS/Generating-Clusters/AIREBO/with-SteepDescent/Only-C1/SD-CG-opt/Try1-1.4A-POS3A/HFTN-CG
REM
REM
REM
REM
REM
REM ./C.cell (11c1c37f851c82e70ff6c80c92926a4b)
REM
REM compiler GCC version 9.2.1 20190827 (Red Hat 9.2.1-1)
REM options -cpp -mtune=generic -march=x86-64 -g -O0 -fpre-include=/usr/include/finclude/math-vector-fortran.h
REM seed 57231686 -1039532692 381565257 72576101 465475555 -1946411084 542807452 2053772806 1784493063 1579177562 -1526277842 1648328957 -96454630 -1912790573 201443836 906666076 1836299170 -703878956 2052630617 1736068786 -802489599 2065764054 -1725691553 1545003821 1212118887 -1130910351 194111844 -283897456 1524650451 -1440563347 1685213441 -868003289 1488590927
REM
CELL 1.54180   50.00000   50.00000   50.00000   90.00000   90.00000   90.00000
LATT -1
SFAC C  
C      1  0.4398010000000  0.4316950000000  0.4800910000000 1.0
C      1  0.4608310000000  0.4622070000000  0.4654350000000 1.0
C      1  0.4999050000000  0.5456170000000  0.5697360000000 1.0
C      1  0.4604190000000  0.5257170000000  0.5879150000000 1.0
C      1  0.5372100000000  0.5771000000000  0.4888450000000 1.0
C      1  0.4461960000000  0.4542210000000  0.4211870000000 1.0
C      1  0.4741880000000  0.5151670000000  0.5345450000000 1.0
C      1  0.4676370000000  0.4272270000000  0.4923480000000 1.0
C      1  0.5720920000000  0.5309720000000  0.4635740000000 1.0
C      1  0.5027930000000  0.5225700000000  0.5449040000000 1.0
C      1  0.5732120000000  0.5614540000000  0.5551870000000 1.0
C      1  0.5176290000000  0.5600660000000  0.4429940000000 1.0
C      1  0.4846040000000  0.5378670000000  0.4521480000000 1.0
C      1  0.5410560000000  0.5052550000000  0.4240890000000 1.0
C      1  0.5137850000000  0.4511260000000  0.4389210000000 1.0
C      1  0.4915960000000  0.4540270000000  0.5233170000000 1.0
C      1  0.5491490000000  0.5736800000000  0.5392930000000 1.0
C      1  0.4207630000000  0.4400650000000  0.4981490000000 1.0
C      1  0.4290000000000  0.5112310000000  0.5544450000000 1.0
C      1  0.5290700000000  0.5429460000000  0.4249820000000 1.0
C      1  0.5709460000000  0.4387680000000  0.5146810000000 1.0
C      1  0.4741850000000  0.5606240000000  0.5740810000000 1.0
C      1  0.4762240000000  0.4726480000000  0.5033440000000 1.0
C      1  0.6003200000000  0.4868410000000  0.4855190000000 1.0
C      1  0.5613570000000  0.4256790000000  0.5401320000000 1.0
C      1  0.4471440000000  0.5453920000000  0.4138580000000 1.0
C      1  0.5891720000000  0.5459940000000  0.5348440000000 1.0
C      1  0.4031920000000  0.5002050000000  0.5150590000000 1.0
C      1  0.5136000000000  0.5169900000000  0.4093410000000 1.0
C      1  0.4929370000000  0.4804320000000  0.5407730000000 1.0
C      1  0.5268220000000  0.5648700000000  0.5627230000000 1.0
C      1  0.4985630000000  0.4167610000000  0.4993110000000 1.0
C      1  0.4431230000000  0.4821010000000  0.5648150000000 1.0
C      1  0.4895020000000  0.5103990000000  0.4655840000000 1.0
C      1  0.5805110000000  0.5503180000000  0.4893810000000 1.0
C      1  0.4844720000000  0.3805480000000  0.4276230000000 1.0
C      1  0.4033000000000  0.4931930000000  0.4664810000000 1.0
C      1  0.4721490000000  0.4288590000000  0.5260980000000 1.0
C      1  0.5319410000000  0.5593210000000  0.4684100000000 1.0
C      1  0.4140760000000  0.4680040000000  0.5163390000000 1.0
C      1  0.4198970000000  0.5207630000000  0.5251510000000 1.0
C      1  0.5579540000000  0.5327630000000  0.4334550000000 1.0
C      1  0.4998480000000  0.5144630000000  0.4977290000000 1.0
C      1  0.4429410000000  0.4433920000000  0.4484190000000 1.0
C      1  0.4176260000000  0.5168520000000  0.4627170000000 1.0
C      1  0.4878090000000  0.5517800000000  0.4923850000000 1.0
C      1  0.5770200000000  0.5014920000000  0.4691340000000 1.0
C      1  0.4628600000000  0.4479850000000  0.5704500000000 1.0
C      1  0.5201130000000  0.4397600000000  0.4876020000000 1.0
C      1  0.4449380000000  0.5666270000000  0.4879170000000 1.0
C      1  0.5586350000000  0.4849740000000  0.4535820000000 1.0
C      1  0.4372220000000  0.5395640000000  0.5056850000000 1.0
C      1  0.5120550000000  0.5234530000000  0.5926410000000 1.0
C      1  0.4524000000000  0.5734810000000  0.5774240000000 1.0
C      1  0.5737400000000  0.5101620000000  0.5262020000000 1.0
C      1  0.5130820000000  0.4212620000000  0.5625040000000 1.0
C      1  0.5623240000000  0.4728770000000  0.5519270000000 1.0
C      1  0.5119170000000  0.4872330000000  0.5141360000000 1.0
C      1  0.5003180000000  0.4120540000000  0.5320040000000 1.0
C      1  0.5133180000000  0.5894800000000  0.5022180000000 1.0
C      1  0.5552440000000  0.4456840000000  0.5617500000000 1.0
C      1  0.4681150000000  0.5280000000000  0.4972780000000 1.0
C      1  0.4644960000000  0.4771120000000  0.4178870000000 1.0
C      1  0.4537180000000  0.5405930000000  0.4432230000000 1.0
C      1  0.5433730000000  0.4555480000000  0.4442170000000 1.0
C      1  0.4441720000000  0.4715000000000  0.4904110000000 1.0
C      1  0.4937980000000  0.4796360000000  0.4794210000000 1.0
C      1  0.4350100000000  0.4848110000000  0.5335780000000 1.0
C      1  0.5571970000000  0.5360790000000  0.5288900000000 1.0
C      1  0.5079100000000  0.5413090000000  0.5169880000000 1.0
C      1  0.5179200000000  0.4693950000000  0.5815870000000 1.0
C      1  0.4156840000000  0.5379570000000  0.4801570000000 1.0
C      1  0.5710430000000  0.4397550000000  0.4874780000000 1.0
C      1  0.4896460000000  0.4463090000000  0.4739960000000 1.0
C      1  0.5263160000000  0.4956650000000  0.4516180000000 1.0
C      1  0.5197670000000  0.4450700000000  0.5179570000000 1.0
C      1  0.4963640000000  0.4289800000000  0.4458560000000 1.0
C      1  0.5658900000000  0.5528860000000  0.5801860000000 1.0
C      1  0.4855970000000  0.5300350000000  0.4215780000000 1.0
C      1  0.4469500000000  0.5119500000000  0.4547250000000 1.0
C      1  0.5029060000000  0.4772140000000  0.4478160000000 1.0
C      1  0.4556200000000  0.5015460000000  0.4851360000000 1.0
C      1  0.5710860000000  0.4956950000000  0.5008440000000 1.0
C      1  0.4427880000000  0.5515510000000  0.3894370000000 1.0
C      1  0.4913590000000  0.4039230000000  0.4372620000000 1.0
C      1  0.5781400000000  0.4949930000000  0.5480770000000 1.0
C      1  0.4930910000000  0.5673280000000  0.4637020000000 1.0
C      1  0.4745360000000  0.4782320000000  0.5695230000000 1.0
C      1  0.4621460000000  0.5884410000000  0.4947500000000 1.0
C      1  0.4561550000000  0.4322120000000  0.5520820000000 1.0
C      1  0.5558870000000  0.5628630000000  0.5076960000000 1.0
C      1  0.5567170000000  0.4762480000000  0.4207760000000 1.0
C      1  0.5341860000000  0.5356660000000  0.5469420000000 1.0
C      1  0.5450510000000  0.4549750000000  0.4762500000000 1.0
C      1  0.5286460000000  0.5077540000000  0.4809230000000 1.0
C      1  0.4396160000000  0.5310460000000  0.5750270000000 1.0
C      1  0.5417050000000  0.4809630000000  0.4989780000000 1.0
C      1  0.5319400000000  0.4206530000000  0.5358750000000 1.0
C      1  0.6008410000000  0.5485080000000  0.5087730000000 1.0
C      1  0.5100000000000  0.4954620000000  0.5641410000000 1.0
C      1  0.4587960000000  0.4957680000000  0.5185000000000 1.0
C      1  0.4704500000000  0.4882540000000  0.4481830000000 1.0
C      1  0.4128100000000  0.4763640000000  0.4844930000000 1.0
C      1  0.5426270000000  0.5339910000000  0.4737920000000 1.0
C      1  0.5488560000000  0.4605380000000  0.5252120000000 1.0
C      1  0.5286490000000  0.4443840000000  0.5731160000000 1.0
C      1  0.4897170000000  0.5907280000000  0.4860970000000 1.0
C      1  0.4408950000000  0.5624900000000  0.4612240000000 1.0
C      1  0.4846960000000  0.5075190000000  0.5833910000000 1.0
C      1  0.4845200000000  0.4989720000000  0.4123200000000 1.0
C      1  0.5370180000000  0.5397580000000  0.5832550000000 1.0
C      1  0.5198540000000  0.5691200000000  0.5238430000000 1.0
END
