TITL C-2848504-8560-624 0.000308252198363508 125000 -369.951131510369 0 0 69 (C1) n - 1
REM
REM in /home/bkarasulu/work/CARBON/AIRSS/Generating-Clusters/AIREBO/with-SteepDescent/Only-C1/SD-CG-opt/Try1-1.4A-POS3A/HFTN-CG
REM
REM
REM
REM
REM
REM ./C.cell (11c1c37f851c82e70ff6c80c92926a4b)
REM
REM compiler GCC version 9.2.1 20190827 (Red Hat 9.2.1-1)
REM options -cpp -mtune=generic -march=x86-64 -g -O0 -fpre-include=/usr/include/finclude/math-vector-fortran.h
REM seed -1715893873 -394333148 -846161999 -365787459 1371889838 -1424449556 841270291 -1893546738 -346748343 1553616998 -1784913214 -511267023 -1951081543 1250883243 -1347418670 257917650 -2059221263 1323655377 1492742814 -1778506896 -283306226 531968027 -90634643 -1232425949 -1944229501 2040892133 1310563542 2021436093 196056275 1476101977 506487464 101875411 819027594
REM
CELL 1.54180   50.00000   50.00000   50.00000   90.00000   90.00000   90.00000
LATT -1
SFAC C  
C      1  0.4567390000000  0.5227100000000  0.4902030000000 1.0
C      1  0.4734920000000  0.4491710000000  0.5386900000000 1.0
C      1  0.5467130000000  0.4685320000000  0.4768780000000 1.0
C      1  0.5059100000000  0.5338850000000  0.4242040000000 1.0
C      1  0.5345460000000  0.4854020000000  0.4289750000000 1.0
C      1  0.5127780000000  0.4562500000000  0.4937710000000 1.0
C      1  0.5122780000000  0.5482070000000  0.4802580000000 1.0
C      1  0.4825730000000  0.4215370000000  0.4994140000000 1.0
C      1  0.4572710000000  0.5467120000000  0.5142830000000 1.0
C      1  0.4750800000000  0.5206820000000  0.4184500000000 1.0
C      1  0.4862500000000  0.5271120000000  0.4736840000000 1.0
C      1  0.5696780000000  0.5158290000000  0.4725350000000 1.0
C      1  0.5726820000000  0.4885610000000  0.4700230000000 1.0
C      1  0.4989000000000  0.4826840000000  0.4464690000000 1.0
C      1  0.5476650000000  0.4845070000000  0.5675190000000 1.0
C      1  0.5172250000000  0.5709720000000  0.5050260000000 1.0
C      1  0.4337100000000  0.4724000000000  0.5070200000000 1.0
C      1  0.4824780000000  0.4259690000000  0.5297650000000 1.0
C      1  0.5493940000000  0.5064630000000  0.5183420000000 1.0
C      1  0.5010820000000  0.5712450000000  0.4574140000000 1.0
C      1  0.4287590000000  0.5092950000000  0.4651200000000 1.0
C      1  0.4515080000000  0.4258200000000  0.4876040000000 1.0
C      1  0.5000830000000  0.5165900000000  0.5930540000000 1.0
C      1  0.5137150000000  0.4358450000000  0.4566530000000 1.0
C      1  0.4678120000000  0.4955870000000  0.5634410000000 1.0
C      1  0.5659010000000  0.5526480000000  0.5066870000000 1.0
C      1  0.5581480000000  0.4237370000000  0.6058000000000 1.0
C      1  0.4366910000000  0.5056900000000  0.5541730000000 1.0
C      1  0.5052920000000  0.5561750000000  0.5560070000000 1.0
C      1  0.5538000000000  0.5303450000000  0.4537610000000 1.0
C      1  0.5038540000000  0.4843090000000  0.4784020000000 1.0
C      1  0.5045720000000  0.5639760000000  0.4318360000000 1.0
C      1  0.4936720000000  0.5833330000000  0.4838440000000 1.0
C      1  0.4903400000000  0.5140420000000  0.4462380000000 1.0
C      1  0.4846060000000  0.5655660000000  0.5101060000000 1.0
C      1  0.4978630000000  0.5095910000000  0.5004190000000 1.0
C      1  0.4777790000000  0.4832200000000  0.5333750000000 1.0
C      1  0.4401020000000  0.5196390000000  0.5262440000000 1.0
C      1  0.5263670000000  0.4636080000000  0.4528890000000 1.0
C      1  0.4473810000000  0.4681490000000  0.5310190000000 1.0
C      1  0.5419350000000  0.5529460000000  0.4643070000000 1.0
C      1  0.5327510000000  0.4813100000000  0.5051370000000 1.0
C      1  0.4783770000000  0.5540210000000  0.5399090000000 1.0
C      1  0.5099420000000  0.4933110000000  0.5277230000000 1.0
C      1  0.4659450000000  0.4831180000000  0.4528910000000 1.0
C      1  0.5295500000000  0.5149060000000  0.4385060000000 1.0
C      1  0.4686900000000  0.4932030000000  0.5021680000000 1.0
C      1  0.5133340000000  0.4235680000000  0.4848910000000 1.0
C      1  0.5681050000000  0.5254510000000  0.4994910000000 1.0
C      1  0.5336600000000  0.4661060000000  0.5834210000000 1.0
C      1  0.4441350000000  0.4981470000000  0.4442380000000 1.0
C      1  0.4639560000000  0.4724300000000  0.4809130000000 1.0
C      1  0.5032830000000  0.5228330000000  0.5418550000000 1.0
C      1  0.4413990000000  0.4512600000000  0.4873800000000 1.0
C      1  0.4338060000000  0.5389080000000  0.4701280000000 1.0
C      1  0.5464870000000  0.4450670000000  0.5960010000000 1.0
C      1  0.4855720000000  0.4362240000000  0.4473020000000 1.0
C      1  0.5462350000000  0.5703560000000  0.5135490000000 1.0
C      1  0.4885920000000  0.4922100000000  0.5846700000000 1.0
C      1  0.4303350000000  0.5029240000000  0.4984830000000 1.0
C      1  0.5789030000000  0.4579440000000  0.4726310000000 1.0
C      1  0.5058150000000  0.4702650000000  0.5866370000000 1.0
C      1  0.4493690000000  0.5126580000000  0.4200350000000 1.0
C      1  0.5120230000000  0.5316550000000  0.5730920000000 1.0
C      1  0.4831710000000  0.4486330000000  0.4788840000000 1.0
C      1  0.5226040000000  0.5111750000000  0.4693090000000 1.0
C      1  0.4707250000000  0.5215780000000  0.5419390000000 1.0
C      1  0.5283530000000  0.5245330000000  0.4986410000000 1.0
C      1  0.5582590000000  0.4972630000000  0.5462710000000 1.0
END
