TITL C-2848500-1637-615 -0.00394654539911677 125000 -828.385053551196 0 0 159 (C1) n - 1
REM
REM in /home/bkarasulu/work/CARBON/AIRSS/Generating-Clusters/AIREBO/with-SteepDescent/Only-C1/SD-CG-opt/Try1-1.4A-POS3A/HFTN-CG
REM
REM
REM
REM
REM
REM ./C.cell (11c1c37f851c82e70ff6c80c92926a4b)
REM
REM compiler GCC version 9.2.1 20190827 (Red Hat 9.2.1-1)
REM options -cpp -mtune=generic -march=x86-64 -g -O0 -fpre-include=/usr/include/finclude/math-vector-fortran.h
REM seed -1163541597 2115316398 -1583209921 -616921911 -823683980 958203933 -1793178812 -1975020340 -540445608 -401852777 -882208137 -881509458 1910050330 -1315595477 1203989014 2046393715 691295021 -413885821 1401514034 -999270626 -929926515 -958509888 683556122 -486023495 135794776 281118116 -1551692230 -705028089 606696587 -1226170393 155208971 -974756651 871343938
REM
CELL 1.54180   50.00000   50.00000   50.00000   90.00000   90.00000   90.00000
LATT -1
SFAC C  
C      1  0.4995750000000  0.4018480000000  0.4746070000000 1.0
C      1  0.4027670000000  0.4652230000000  0.4815180000000 1.0
C      1  0.4514600000000  0.4261740000000  0.4720300000000 1.0
C      1  0.5545100000000  0.5416840000000  0.5680680000000 1.0
C      1  0.4994340000000  0.5400520000000  0.4878690000000 1.0
C      1  0.4700950000000  0.3982410000000  0.4781080000000 1.0
C      1  0.4051570000000  0.5086580000000  0.5207500000000 1.0
C      1  0.5359310000000  0.4541580000000  0.5883980000000 1.0
C      1  0.5594200000000  0.4352080000000  0.5455770000000 1.0
C      1  0.4807240000000  0.4357000000000  0.4867730000000 1.0
C      1  0.4666550000000  0.5114410000000  0.5102020000000 1.0
C      1  0.5128590000000  0.5883540000000  0.5456780000000 1.0
C      1  0.5372630000000  0.5346710000000  0.4080240000000 1.0
C      1  0.4868110000000  0.4342420000000  0.4552530000000 1.0
C      1  0.5197210000000  0.4306410000000  0.4174860000000 1.0
C      1  0.5008550000000  0.4498740000000  0.4089030000000 1.0
C      1  0.5929010000000  0.5185580000000  0.5026600000000 1.0
C      1  0.4076350000000  0.5325120000000  0.5439520000000 1.0
C      1  0.4240520000000  0.5672860000000  0.4931160000000 1.0
C      1  0.4595150000000  0.5524800000000  0.4423830000000 1.0
C      1  0.4434920000000  0.4498320000000  0.4184250000000 1.0
C      1  0.5872060000000  0.4850080000000  0.5008610000000 1.0
C      1  0.4994900000000  0.5881280000000  0.4178610000000 1.0
C      1  0.4649290000000  0.4859760000000  0.3961940000000 1.0
C      1  0.5219850000000  0.5177870000000  0.5002790000000 1.0
C      1  0.4446650000000  0.4563210000000  0.4578390000000 1.0
C      1  0.5115550000000  0.4817630000000  0.4791470000000 1.0
C      1  0.4701180000000  0.5571020000000  0.4903440000000 1.0
C      1  0.4962720000000  0.4624530000000  0.5300960000000 1.0
C      1  0.4926950000000  0.4827080000000  0.3873000000000 1.0
C      1  0.5349630000000  0.5141870000000  0.5469390000000 1.0
C      1  0.4532030000000  0.4038010000000  0.5048050000000 1.0
C      1  0.4743550000000  0.4417190000000  0.4084560000000 1.0
C      1  0.5335290000000  0.5509730000000  0.4707410000000 1.0
C      1  0.5637660000000  0.5760920000000  0.4663580000000 1.0
C      1  0.5563370000000  0.4234900000000  0.4669470000000 1.0
C      1  0.4902830000000  0.5500710000000  0.4566600000000 1.0
C      1  0.4741040000000  0.4478360000000  0.5826690000000 1.0
C      1  0.5013330000000  0.4381630000000  0.5068090000000 1.0
C      1  0.4345670000000  0.4271510000000  0.4425240000000 1.0
C      1  0.5106830000000  0.5829360000000  0.5791740000000 1.0
C      1  0.4102720000000  0.4910970000000  0.4661670000000 1.0
C      1  0.4898470000000  0.4069660000000  0.5408000000000 1.0
C      1  0.5424000000000  0.5678360000000  0.4989440000000 1.0
C      1  0.5868670000000  0.5458320000000  0.5426910000000 1.0
C      1  0.5285540000000  0.4875440000000  0.5914130000000 1.0
C      1  0.5365390000000  0.4366560000000  0.4529440000000 1.0
C      1  0.4221940000000  0.4599190000000  0.5059100000000 1.0
C      1  0.5061330000000  0.5369560000000  0.4329030000000 1.0
C      1  0.4876790000000  0.5404770000000  0.5660180000000 1.0
C      1  0.5356080000000  0.5636880000000  0.5512090000000 1.0
C      1  0.5621120000000  0.4509260000000  0.5720720000000 1.0
C      1  0.5078820000000  0.4883790000000  0.5100250000000 1.0
C      1  0.5977320000000  0.5091790000000  0.4562450000000 1.0
C      1  0.4955480000000  0.5053530000000  0.4303240000000 1.0
C      1  0.4912860000000  0.5828680000000  0.4496550000000 1.0
C      1  0.5448690000000  0.4568300000000  0.5245590000000 1.0
C      1  0.4486190000000  0.5374330000000  0.5033080000000 1.0
C      1  0.5156720000000  0.5401910000000  0.5365530000000 1.0
C      1  0.5079230000000  0.5563590000000  0.5847040000000 1.0
C      1  0.4142670000000  0.4773360000000  0.5856010000000 1.0
C      1  0.5576810000000  0.5348730000000  0.5347300000000 1.0
C      1  0.4113510000000  0.4798320000000  0.5294350000000 1.0
C      1  0.4540780000000  0.5207170000000  0.5498330000000 1.0
C      1  0.5372750000000  0.5021650000000  0.4028620000000 1.0
C      1  0.4500490000000  0.4908800000000  0.5401910000000 1.0
C      1  0.4768730000000  0.5572380000000  0.5230250000000 1.0
C      1  0.4420240000000  0.4880500000000  0.4578540000000 1.0
C      1  0.4126800000000  0.5304600000000  0.4641210000000 1.0
C      1  0.4601640000000  0.4552990000000  0.5145380000000 1.0
C      1  0.4350500000000  0.5531120000000  0.4186730000000 1.0
C      1  0.4670200000000  0.4265130000000  0.4352090000000 1.0
C      1  0.5369780000000  0.5421480000000  0.4380840000000 1.0
C      1  0.5619740000000  0.4935480000000  0.5477770000000 1.0
C      1  0.4673950000000  0.5128890000000  0.4127930000000 1.0
C      1  0.5346990000000  0.5842770000000  0.4639410000000 1.0
C      1  0.4637240000000  0.4626260000000  0.4826860000000 1.0
C      1  0.4580420000000  0.5862430000000  0.4501870000000 1.0
C      1  0.5498320000000  0.4984500000000  0.4976780000000 1.0
C      1  0.5470850000000  0.4413920000000  0.4151110000000 1.0
C      1  0.4493170000000  0.4794780000000  0.4257370000000 1.0
C      1  0.4634040000000  0.5069420000000  0.4764520000000 1.0
C      1  0.5800630000000  0.4869060000000  0.4471580000000 1.0
C      1  0.4739830000000  0.4901370000000  0.5808600000000 1.0
C      1  0.4680740000000  0.5751410000000  0.4185030000000 1.0
C      1  0.5589290000000  0.4957740000000  0.4260700000000 1.0
C      1  0.4449210000000  0.4851640000000  0.5088170000000 1.0
C      1  0.5264530000000  0.5408480000000  0.5965060000000 1.0
C      1  0.5143490000000  0.5558450000000  0.5098540000000 1.0
C      1  0.4598080000000  0.5863610000000  0.5271530000000 1.0
C      1  0.5133050000000  0.4810320000000  0.4144910000000 1.0
C      1  0.5047320000000  0.5001480000000  0.5402190000000 1.0
C      1  0.6053480000000  0.5274710000000  0.5330350000000 1.0
C      1  0.5784640000000  0.4367540000000  0.5171090000000 1.0
C      1  0.5737610000000  0.5170250000000  0.5666880000000 1.0
C      1  0.4427490000000  0.4444790000000  0.5584540000000 1.0
C      1  0.5358050000000  0.5929050000000  0.5209700000000 1.0
C      1  0.6015970000000  0.4674350000000  0.5481150000000 1.0
C      1  0.5696260000000  0.4731690000000  0.4741890000000 1.0
C      1  0.5558210000000  0.5185470000000  0.4474190000000 1.0
C      1  0.5207760000000  0.4115340000000  0.4994960000000 1.0
C      1  0.4857910000000  0.5193170000000  0.5919030000000 1.0
C      1  0.5597090000000  0.4812520000000  0.5205110000000 1.0
C      1  0.5961550000000  0.5383540000000  0.4590680000000 1.0
C      1  0.5280550000000  0.5159380000000  0.4668700000000 1.0
C      1  0.5495060000000  0.5370210000000  0.5057950000000 1.0
C      1  0.5711870000000  0.5129710000000  0.4771680000000 1.0
C      1  0.4952140000000  0.5067110000000  0.4643020000000 1.0
C      1  0.5082670000000  0.5088820000000  0.3864470000000 1.0
C      1  0.4150640000000  0.5096010000000  0.4380380000000 1.0
C      1  0.4788260000000  0.4829310000000  0.5509380000000 1.0
C      1  0.4280460000000  0.4733280000000  0.5555160000000 1.0
C      1  0.5467210000000  0.4009780000000  0.4802110000000 1.0
C      1  0.4770530000000  0.4807760000000  0.4400460000000 1.0
C      1  0.4423340000000  0.5211590000000  0.4245830000000 1.0
C      1  0.4800500000000  0.5830520000000  0.5529760000000 1.0
C      1  0.4443100000000  0.5277220000000  0.4578870000000 1.0
C      1  0.4325530000000  0.4303770000000  0.4999760000000 1.0
C      1  0.4961230000000  0.6017280000000  0.4923610000000 1.0
C      1  0.4674260000000  0.4234930000000  0.5241350000000 1.0
C      1  0.4916700000000  0.4121270000000  0.5678780000000 1.0
C      1  0.4949470000000  0.5562380000000  0.4090820000000 1.0
C      1  0.5110960000000  0.4346490000000  0.5760060000000 1.0
C      1  0.4841380000000  0.5267260000000  0.5351030000000 1.0
C      1  0.4171080000000  0.5356290000000  0.5034010000000 1.0
C      1  0.4663400000000  0.6001490000000  0.4995190000000 1.0
C      1  0.3978440000000  0.5135960000000  0.4879150000000 1.0
C      1  0.4618420000000  0.5438070000000  0.5957770000000 1.0
C      1  0.4478280000000  0.5203530000000  0.5799230000000 1.0
C      1  0.5348440000000  0.4654780000000  0.4357730000000 1.0
C      1  0.5116750000000  0.4186400000000  0.4476050000000 1.0
C      1  0.5678080000000  0.5720290000000  0.5441320000000 1.0
C      1  0.4525420000000  0.4219340000000  0.5810990000000 1.0
C      1  0.5718580000000  0.4434120000000  0.4842470000000 1.0
C      1  0.5363900000000  0.5156100000000  0.5802490000000 1.0
C      1  0.4337390000000  0.5454950000000  0.5473490000000 1.0
C      1  0.5470640000000  0.4324590000000  0.5047730000000 1.0
C      1  0.5395640000000  0.4842510000000  0.4622940000000 1.0
C      1  0.5963350000000  0.4619870000000  0.5216660000000 1.0
C      1  0.5095630000000  0.5962410000000  0.4683960000000 1.0
C      1  0.4978530000000  0.5819640000000  0.5159790000000 1.0
C      1  0.5727280000000  0.5699410000000  0.5141870000000 1.0
C      1  0.4990540000000  0.4906500000000  0.6031260000000 1.0
C      1  0.5715760000000  0.5466690000000  0.4817500000000 1.0
C      1  0.4904700000000  0.5284940000000  0.3971640000000 1.0
C      1  0.5150700000000  0.4021800000000  0.5294960000000 1.0
C      1  0.5224850000000  0.4503420000000  0.5480740000000 1.0
C      1  0.4753770000000  0.4433420000000  0.5489430000000 1.0
C      1  0.4377210000000  0.5636420000000  0.5229070000000 1.0
C      1  0.4432240000000  0.4595310000000  0.5897600000000 1.0
C      1  0.4434410000000  0.4924280000000  0.5910930000000 1.0
C      1  0.5010990000000  0.4590920000000  0.5960120000000 1.0
C      1  0.4596350000000  0.5586940000000  0.5652790000000 1.0
C      1  0.4886600000000  0.4664910000000  0.4629050000000 1.0
C      1  0.5785920000000  0.4731680000000  0.5643440000000 1.0
C      1  0.5967640000000  0.5524170000000  0.5038540000000 1.0
C      1  0.5215610000000  0.4793790000000  0.5611620000000 1.0
C      1  0.4507600000000  0.5809410000000  0.4793740000000 1.0
C      1  0.5332200000000  0.4180960000000  0.5438280000000 1.0
END
