TITL C-2847947-6848-309 -0.00211256263362904 125000 -1019.72254583955 0 0 191 (C1) n - 1
REM
REM in /home/bkarasulu/work/CARBON/AIRSS/Generating-Clusters/AIREBO/with-SteepDescent/Only-C1/SD-CG-opt/Try1-1.4A-POS3A/HFTN-CG
REM
REM
REM
REM
REM
REM ./C.cell (11c1c37f851c82e70ff6c80c92926a4b)
REM
REM compiler GCC version 9.2.1 20190827 (Red Hat 9.2.1-1)
REM options -cpp -mtune=generic -march=x86-64 -g -O0 -fpre-include=/usr/include/finclude/math-vector-fortran.h
REM seed 1818700933 1127472615 1012058002 930916820 601544243 1978263351 1311456841 1823881976 1742257708 473604140 -282700342 -1632804099 115236605 141776253 -564302846 -1443423291 -79697677 -1483677657 801516598 -1159157674 2052773941 -761143291 -426002119 -169572320 -1230381887 842047224 1839936580 -1997875925 -1087935588 1258640012 -195692432 1895026459 1162057595
REM
CELL 1.54180   50.00000   50.00000   50.00000   90.00000   90.00000   90.00000
LATT -1
SFAC C  
C      1  0.4919140000000  0.4360200000000  0.4214430000000 1.0
C      1  0.4401070000000  0.5745540000000  0.5681500000000 1.0
C      1  0.4950030000000  0.5563410000000  0.5127530000000 1.0
C      1  0.4164660000000  0.5047180000000  0.4757480000000 1.0
C      1  0.5196430000000  0.5078810000000  0.4228410000000 1.0
C      1  0.4083130000000  0.4201400000000  0.5407970000000 1.0
C      1  0.4658100000000  0.5047320000000  0.3982700000000 1.0
C      1  0.4522610000000  0.4726530000000  0.5950470000000 1.0
C      1  0.5266680000000  0.5266690000000  0.4854450000000 1.0
C      1  0.4367050000000  0.5351010000000  0.4201750000000 1.0
C      1  0.5931300000000  0.4837020000000  0.4539960000000 1.0
C      1  0.5300400000000  0.4033630000000  0.5313640000000 1.0
C      1  0.5002560000000  0.4093860000000  0.5377160000000 1.0
C      1  0.5487330000000  0.4567660000000  0.4660380000000 1.0
C      1  0.5334330000000  0.5517140000000  0.5875760000000 1.0
C      1  0.4896530000000  0.4760190000000  0.3843980000000 1.0
C      1  0.4914250000000  0.5412260000000  0.6052280000000 1.0
C      1  0.5561050000000  0.4806050000000  0.4970550000000 1.0
C      1  0.5599700000000  0.4593800000000  0.5631350000000 1.0
C      1  0.4748270000000  0.5474680000000  0.4900470000000 1.0
C      1  0.4647790000000  0.4335130000000  0.4267990000000 1.0
C      1  0.5226050000000  0.4377110000000  0.4894840000000 1.0
C      1  0.5787910000000  0.5274790000000  0.4288690000000 1.0
C      1  0.5400770000000  0.5346160000000  0.4227250000000 1.0
C      1  0.5080320000000  0.5193300000000  0.6119000000000 1.0
C      1  0.5743210000000  0.4315210000000  0.4487440000000 1.0
C      1  0.4669120000000  0.4067530000000  0.5437110000000 1.0
C      1  0.4745820000000  0.4290670000000  0.5817640000000 1.0
C      1  0.4662100000000  0.5791840000000  0.4813030000000 1.0
C      1  0.6044020000000  0.5277880000000  0.4705690000000 1.0
C      1  0.5820190000000  0.4385850000000  0.5529880000000 1.0
C      1  0.5622020000000  0.5219960000000  0.4572600000000 1.0
C      1  0.5354410000000  0.5400110000000  0.5566520000000 1.0
C      1  0.4434090000000  0.5328380000000  0.5235860000000 1.0
C      1  0.4776910000000  0.5407280000000  0.4360170000000 1.0
C      1  0.4218050000000  0.6089390000000  0.4864830000000 1.0
C      1  0.3963370000000  0.5131410000000  0.5090380000000 1.0
C      1  0.4991640000000  0.3752700000000  0.4985040000000 1.0
C      1  0.4791310000000  0.5670110000000  0.5362500000000 1.0
C      1  0.5586330000000  0.5664690000000  0.4755080000000 1.0
C      1  0.4498300000000  0.5634320000000  0.5202640000000 1.0
C      1  0.5378060000000  0.4286080000000  0.4327680000000 1.0
C      1  0.4921910000000  0.5269410000000  0.5623850000000 1.0
C      1  0.5400150000000  0.5475800000000  0.4541780000000 1.0
C      1  0.4517820000000  0.4815590000000  0.4961310000000 1.0
C      1  0.5153300000000  0.5170320000000  0.5416840000000 1.0
C      1  0.5685210000000  0.4373490000000  0.4783780000000 1.0
C      1  0.5410900000000  0.5905030000000  0.5141440000000 1.0
C      1  0.4238600000000  0.4934880000000  0.5070170000000 1.0
C      1  0.4850970000000  0.5991920000000  0.5013500000000 1.0
C      1  0.4830330000000  0.4592770000000  0.5878240000000 1.0
C      1  0.4065820000000  0.4691960000000  0.5210160000000 1.0
C      1  0.5374160000000  0.4515920000000  0.5414340000000 1.0
C      1  0.4632070000000  0.5374180000000  0.3989520000000 1.0
C      1  0.4148880000000  0.4907480000000  0.4387420000000 1.0
C      1  0.3970750000000  0.5186260000000  0.5389730000000 1.0
C      1  0.5686410000000  0.4274860000000  0.5070000000000 1.0
C      1  0.5501650000000  0.4519210000000  0.4183880000000 1.0
C      1  0.4627940000000  0.5126090000000  0.5041000000000 1.0
C      1  0.6012810000000  0.4627650000000  0.5141150000000 1.0
C      1  0.4349670000000  0.5287290000000  0.5883970000000 1.0
C      1  0.4453570000000  0.5867220000000  0.5428100000000 1.0
C      1  0.4765350000000  0.4274780000000  0.4922420000000 1.0
C      1  0.5067580000000  0.4157660000000  0.4351510000000 1.0
C      1  0.5426500000000  0.5922380000000  0.4357130000000 1.0
C      1  0.5252870000000  0.3861130000000  0.4946410000000 1.0
C      1  0.4401270000000  0.5123240000000  0.4444090000000 1.0
C      1  0.4827160000000  0.5924180000000  0.4364010000000 1.0
C      1  0.6133220000000  0.4805830000000  0.4914250000000 1.0
C      1  0.5870180000000  0.5013150000000  0.4829440000000 1.0
C      1  0.4225210000000  0.4690510000000  0.5870610000000 1.0
C      1  0.5624420000000  0.4187960000000  0.5646810000000 1.0
C      1  0.4415930000000  0.4826330000000  0.3981210000000 1.0
C      1  0.5759820000000  0.5566620000000  0.4181090000000 1.0
C      1  0.4667520000000  0.5697060000000  0.3906380000000 1.0
C      1  0.4229150000000  0.4449390000000  0.4712700000000 1.0
C      1  0.4669160000000  0.4025190000000  0.5107670000000 1.0
C      1  0.4803820000000  0.4906770000000  0.6092620000000 1.0
C      1  0.4152180000000  0.4705350000000  0.5538810000000 1.0
C      1  0.4930600000000  0.4131020000000  0.4661780000000 1.0
C      1  0.4276950000000  0.4529430000000  0.4395900000000 1.0
C      1  0.5460720000000  0.5582880000000  0.5060430000000 1.0
C      1  0.4245120000000  0.4722620000000  0.4179790000000 1.0
C      1  0.5287740000000  0.5554700000000  0.3986380000000 1.0
C      1  0.5631040000000  0.5207920000000  0.5519130000000 1.0
C      1  0.5827180000000  0.4585810000000  0.4405330000000 1.0
C      1  0.3944260000000  0.4971720000000  0.5557960000000 1.0
C      1  0.4056940000000  0.5393250000000  0.4929800000000 1.0
C      1  0.4600470000000  0.5336950000000  0.4618090000000 1.0
C      1  0.4752030000000  0.5998630000000  0.5323610000000 1.0
C      1  0.5083360000000  0.5615670000000  0.5937840000000 1.0
C      1  0.5052780000000  0.4291810000000  0.5737680000000 1.0
C      1  0.5416750000000  0.5910250000000  0.5461980000000 1.0
C      1  0.5371570000000  0.6086820000000  0.4869490000000 1.0
C      1  0.4214290000000  0.5597820000000  0.5027950000000 1.0
C      1  0.5702310000000  0.5441120000000  0.5756440000000 1.0
C      1  0.5488240000000  0.5949520000000  0.4638540000000 1.0
C      1  0.4607460000000  0.4179460000000  0.4567560000000 1.0
C      1  0.5819540000000  0.5685120000000  0.5274700000000 1.0
C      1  0.4489840000000  0.4478070000000  0.4929160000000 1.0
C      1  0.5759260000000  0.5451730000000  0.5042880000000 1.0
C      1  0.4943810000000  0.5199020000000  0.4938010000000 1.0
C      1  0.4341150000000  0.5849800000000  0.4909340000000 1.0
C      1  0.5593530000000  0.4811790000000  0.4331540000000 1.0
C      1  0.4820140000000  0.4974640000000  0.5759740000000 1.0
C      1  0.4246410000000  0.5489590000000  0.4456460000000 1.0
C      1  0.5332130000000  0.4961550000000  0.3957310000000 1.0
C      1  0.5922920000000  0.5069540000000  0.5630100000000 1.0
C      1  0.5270170000000  0.4700960000000  0.4126000000000 1.0
C      1  0.5530940000000  0.5716990000000  0.4161060000000 1.0
C      1  0.4453120000000  0.4817990000000  0.5468270000000 1.0
C      1  0.5182540000000  0.5587440000000  0.4778240000000 1.0
C      1  0.4900100000000  0.5607010000000  0.5658250000000 1.0
C      1  0.4607000000000  0.3994930000000  0.5737220000000 1.0
C      1  0.4676680000000  0.5336260000000  0.5849760000000 1.0
C      1  0.4054940000000  0.4738060000000  0.4667970000000 1.0
C      1  0.5659500000000  0.5693930000000  0.5562370000000 1.0
C      1  0.4702910000000  0.5684350000000  0.4229250000000 1.0
C      1  0.5533980000000  0.5345900000000  0.6036090000000 1.0
C      1  0.5150090000000  0.5894410000000  0.4326360000000 1.0
C      1  0.3886660000000  0.4826170000000  0.4950100000000 1.0
C      1  0.5098850000000  0.6170460000000  0.4856880000000 1.0
C      1  0.4248530000000  0.5490370000000  0.5690410000000 1.0
C      1  0.4928270000000  0.4704070000000  0.5584230000000 1.0
C      1  0.5206180000000  0.5671570000000  0.5531110000000 1.0
C      1  0.5890330000000  0.5398050000000  0.5408210000000 1.0
C      1  0.4784270000000  0.5060740000000  0.4671430000000 1.0
C      1  0.5113100000000  0.4856190000000  0.3755360000000 1.0
C      1  0.4154260000000  0.4176630000000  0.5122160000000 1.0
C      1  0.5295180000000  0.5017590000000  0.5664660000000 1.0
C      1  0.4464150000000  0.5645930000000  0.4578130000000 1.0
C      1  0.5493350000000  0.3969000000000  0.5492040000000 1.0
C      1  0.5513910000000  0.4906460000000  0.4648400000000 1.0
C      1  0.4938930000000  0.5733660000000  0.4624310000000 1.0
C      1  0.5496880000000  0.5104200000000  0.5222710000000 1.0
C      1  0.4969160000000  0.6060500000000  0.4628030000000 1.0
C      1  0.4787800000000  0.4784470000000  0.4155030000000 1.0
C      1  0.5337050000000  0.4295170000000  0.5662270000000 1.0
C      1  0.4945360000000  0.5510230000000  0.3965750000000 1.0
C      1  0.5528930000000  0.4707070000000  0.5940280000000 1.0
C      1  0.4583150000000  0.4523540000000  0.4543600000000 1.0
C      1  0.4986260000000  0.4423810000000  0.5089100000000 1.0
C      1  0.4803780000000  0.4695380000000  0.5100830000000 1.0
C      1  0.4575060000000  0.4563770000000  0.5315500000000 1.0
C      1  0.4903080000000  0.5162010000000  0.4183360000000 1.0
C      1  0.5496500000000  0.4530700000000  0.5144270000000 1.0
C      1  0.4281640000000  0.4463160000000  0.5177490000000 1.0
C      1  0.5585920000000  0.5067590000000  0.4147290000000 1.0
C      1  0.4644350000000  0.5734500000000  0.5829520000000 1.0
C      1  0.4982340000000  0.4896630000000  0.5309110000000 1.0
C      1  0.5481280000000  0.4112450000000  0.4565880000000 1.0
C      1  0.4883490000000  0.3802180000000  0.5248890000000 1.0
C      1  0.4227160000000  0.4374520000000  0.5562720000000 1.0
C      1  0.4502360000000  0.3995660000000  0.4813270000000 1.0
C      1  0.5392030000000  0.4156540000000  0.5041530000000 1.0
C      1  0.5993250000000  0.5119410000000  0.4464410000000 1.0
C      1  0.5209000000000  0.4460570000000  0.4565540000000 1.0
C      1  0.4432650000000  0.4872910000000  0.4662090000000 1.0
C      1  0.5341790000000  0.4808080000000  0.6124610000000 1.0
C      1  0.4481230000000  0.5001480000000  0.5754710000000 1.0
C      1  0.5045810000000  0.4428010000000  0.5423820000000 1.0
C      1  0.5897420000000  0.5507880000000  0.4760940000000 1.0
C      1  0.5249540000000  0.4017870000000  0.4696700000000 1.0
C      1  0.5117380000000  0.5023890000000  0.5875620000000 1.0
C      1  0.5084060000000  0.5374880000000  0.4465860000000 1.0
C      1  0.5577560000000  0.4914970000000  0.5683540000000 1.0
C      1  0.4171700000000  0.5369520000000  0.5443040000000 1.0
C      1  0.4814680000000  0.4635710000000  0.4766100000000 1.0
C      1  0.5082720000000  0.5942930000000  0.5380360000000 1.0
C      1  0.5595240000000  0.5197100000000  0.4910580000000 1.0
C      1  0.5209220000000  0.5391600000000  0.5165500000000 1.0
C      1  0.4541010000000  0.5256320000000  0.5537700000000 1.0
C      1  0.5274050000000  0.4859380000000  0.5144960000000 1.0
C      1  0.4807630000000  0.3837920000000  0.4782620000000 1.0
C      1  0.5040420000000  0.4648120000000  0.4337210000000 1.0
C      1  0.5893610000000  0.4408320000000  0.5259620000000 1.0
C      1  0.4230010000000  0.4149580000000  0.4846890000000 1.0
C      1  0.5189880000000  0.4700400000000  0.4884850000000 1.0
C      1  0.5963210000000  0.5100810000000  0.5327080000000 1.0
C      1  0.5059340000000  0.4706070000000  0.6109490000000 1.0
C      1  0.5771440000000  0.5843510000000  0.4977610000000 1.0
C      1  0.5099000000000  0.5607900000000  0.4244190000000 1.0
C      1  0.4108630000000  0.5331110000000  0.4646080000000 1.0
C      1  0.5238780000000  0.5088830000000  0.4565810000000 1.0
C      1  0.4539270000000  0.4340230000000  0.5550780000000 1.0
C      1  0.4671330000000  0.5028720000000  0.5346910000000 1.0
C      1  0.4675750000000  0.4833730000000  0.4439390000000 1.0
C      1  0.5031070000000  0.4833870000000  0.4621960000000 1.0
C      1  0.5130650000000  0.5802020000000  0.5009120000000 1.0
C      1  0.5833420000000  0.4903620000000  0.5149250000000 1.0
C      1  0.5377550000000  0.5116150000000  0.6164050000000 1.0
END
