TITL C-2848506-1665-555 -0.00234709791638205 125000 -583.158097595308 0 0 107 (C1) n - 1
REM
REM in /home/bkarasulu/work/CARBON/AIRSS/Generating-Clusters/AIREBO/with-SteepDescent/Only-C1/SD-CG-opt/Try1-1.4A-POS3A/HFTN-CG
REM
REM
REM
REM
REM
REM ./C.cell (11c1c37f851c82e70ff6c80c92926a4b)
REM
REM compiler GCC version 9.2.1 20190827 (Red Hat 9.2.1-1)
REM options -cpp -mtune=generic -march=x86-64 -g -O0 -fpre-include=/usr/include/finclude/math-vector-fortran.h
REM seed 1326012856 481066388 -1180039322 -541043472 -1612664081 1257883023 1616954934 -955894645 -59311500 -420967556 -1574774411 -89326140 -1146095486 2070032356 100367542 -1456452060 387072217 1826810079 -1796725380 -100858444 1706198963 -1238803453 -1643293978 -463412731 1898981982 75073326 -31474809 -636027761 -1269427049 251066099 -1777018940 -948780654 1866421225
REM
CELL 1.54180   50.00000   50.00000   50.00000   90.00000   90.00000   90.00000
LATT -1
SFAC C  
C      1  0.4671970000000  0.5309370000000  0.4094550000000 1.0
C      1  0.4326320000000  0.4398470000000  0.4639770000000 1.0
C      1  0.5335970000000  0.5651890000000  0.5507210000000 1.0
C      1  0.4555590000000  0.5257080000000  0.4584730000000 1.0
C      1  0.4866260000000  0.5154840000000  0.4491050000000 1.0
C      1  0.4984590000000  0.4371810000000  0.4404300000000 1.0
C      1  0.5023390000000  0.5144840000000  0.5407670000000 1.0
C      1  0.4724040000000  0.5526280000000  0.5555440000000 1.0
C      1  0.4590000000000  0.4348230000000  0.4596990000000 1.0
C      1  0.5948770000000  0.5146470000000  0.5037710000000 1.0
C      1  0.4237610000000  0.5724690000000  0.5175970000000 1.0
C      1  0.5760080000000  0.5464860000000  0.5264180000000 1.0
C      1  0.5414580000000  0.4139210000000  0.5104890000000 1.0
C      1  0.4089630000000  0.5185320000000  0.5195360000000 1.0
C      1  0.4394560000000  0.5039510000000  0.5653240000000 1.0
C      1  0.4816590000000  0.4938840000000  0.4065630000000 1.0
C      1  0.4615060000000  0.5686700000000  0.5276130000000 1.0
C      1  0.5824200000000  0.4913560000000  0.5151640000000 1.0
C      1  0.5494060000000  0.4845630000000  0.5196400000000 1.0
C      1  0.4650920000000  0.5012520000000  0.5468250000000 1.0
C      1  0.4612300000000  0.4377140000000  0.5085910000000 1.0
C      1  0.4298870000000  0.4667310000000  0.5302950000000 1.0
C      1  0.5790340000000  0.4562230000000  0.4576480000000 1.0
C      1  0.5068130000000  0.5360680000000  0.5666810000000 1.0
C      1  0.5486680000000  0.5790560000000  0.4735410000000 1.0
C      1  0.5622740000000  0.4471960000000  0.5412840000000 1.0
C      1  0.4498690000000  0.5229940000000  0.5914980000000 1.0
C      1  0.5015980000000  0.5574340000000  0.4864010000000 1.0
C      1  0.4721960000000  0.5287120000000  0.5353640000000 1.0
C      1  0.4733300000000  0.4588030000000  0.4435740000000 1.0
C      1  0.5500720000000  0.4386920000000  0.4714050000000 1.0
C      1  0.4452980000000  0.5125840000000  0.4858330000000 1.0
C      1  0.4572170000000  0.4818770000000  0.4269260000000 1.0
C      1  0.4787920000000  0.5058260000000  0.5865090000000 1.0
C      1  0.5350500000000  0.4869000000000  0.4930370000000 1.0
C      1  0.5538530000000  0.4641140000000  0.5696180000000 1.0
C      1  0.4268110000000  0.5417110000000  0.5057090000000 1.0
C      1  0.4745690000000  0.4712670000000  0.5445340000000 1.0
C      1  0.5913340000000  0.4690630000000  0.4837710000000 1.0
C      1  0.5278380000000  0.5753550000000  0.4547690000000 1.0
C      1  0.5030740000000  0.4053810000000  0.4375470000000 1.0
C      1  0.5019030000000  0.4181620000000  0.4675170000000 1.0
C      1  0.4477730000000  0.5144710000000  0.4209600000000 1.0
C      1  0.5253700000000  0.4246410000000  0.4839340000000 1.0
C      1  0.4188810000000  0.4879520000000  0.4688870000000 1.0
C      1  0.5341160000000  0.4749580000000  0.5461270000000 1.0
C      1  0.5307260000000  0.4602780000000  0.4262110000000 1.0
C      1  0.4864350000000  0.4837570000000  0.4616140000000 1.0
C      1  0.4781130000000  0.5680170000000  0.4483920000000 1.0
C      1  0.4587120000000  0.5319260000000  0.5097280000000 1.0
C      1  0.4498280000000  0.5724890000000  0.4957560000000 1.0
C      1  0.4545640000000  0.4513590000000  0.5357740000000 1.0
C      1  0.5616140000000  0.5309430000000  0.4487390000000 1.0
C      1  0.5049520000000  0.5280660000000  0.4748390000000 1.0
C      1  0.5036420000000  0.4965990000000  0.5696700000000 1.0
C      1  0.4778750000000  0.4808090000000  0.4943970000000 1.0
C      1  0.4872450000000  0.5436030000000  0.4299750000000 1.0
C      1  0.4193190000000  0.4811810000000  0.5503060000000 1.0
C      1  0.5315030000000  0.5061810000000  0.4219540000000 1.0
C      1  0.4158110000000  0.5056420000000  0.4928560000000 1.0
C      1  0.4901760000000  0.4348360000000  0.5661850000000 1.0
C      1  0.5711940000000  0.4805050000000  0.4394390000000 1.0
C      1  0.5112820000000  0.5595880000000  0.5135010000000 1.0
C      1  0.5479830000000  0.4827390000000  0.4234060000000 1.0
C      1  0.5598400000000  0.5196720000000  0.4782300000000 1.0
C      1  0.5171570000000  0.5450600000000  0.4459570000000 1.0
C      1  0.5140480000000  0.4609000000000  0.5266880000000 1.0
C      1  0.4783730000000  0.5143940000000  0.4899480000000 1.0
C      1  0.5684130000000  0.4913840000000  0.4715370000000 1.0
C      1  0.5070190000000  0.4318250000000  0.5399390000000 1.0
C      1  0.5035600000000  0.5022360000000  0.4227640000000 1.0
C      1  0.4779100000000  0.5400030000000  0.5845940000000 1.0
C      1  0.4916530000000  0.4273390000000  0.5129250000000 1.0
C      1  0.4751070000000  0.4191370000000  0.4838020000000 1.0
C      1  0.4277080000000  0.4634710000000  0.4777460000000 1.0
C      1  0.4764740000000  0.5152660000000  0.3847690000000 1.0
C      1  0.5255230000000  0.4556480000000  0.4979440000000 1.0
C      1  0.5522800000000  0.5318070000000  0.5392470000000 1.0
C      1  0.5315600000000  0.5227140000000  0.5832400000000 1.0
C      1  0.5393300000000  0.5298440000000  0.4336720000000 1.0
C      1  0.4368910000000  0.4993430000000  0.4478700000000 1.0
C      1  0.5116310000000  0.4654980000000  0.4522150000000 1.0
C      1  0.5761610000000  0.5410580000000  0.4944380000000 1.0
C      1  0.5579090000000  0.5676170000000  0.4979170000000 1.0
C      1  0.5197820000000  0.4606480000000  0.5734450000000 1.0
C      1  0.5256570000000  0.5304600000000  0.5218480000000 1.0
C      1  0.5424000000000  0.4703570000000  0.4652190000000 1.0
C      1  0.4939960000000  0.4858330000000  0.5239190000000 1.0
C      1  0.4922720000000  0.5750480000000  0.5300500000000 1.0
C      1  0.4242840000000  0.5273150000000  0.5455790000000 1.0
C      1  0.5341830000000  0.4899170000000  0.5830420000000 1.0
C      1  0.5617840000000  0.5036940000000  0.5427530000000 1.0
C      1  0.4945710000000  0.4527400000000  0.4927280000000 1.0
C      1  0.4996370000000  0.5755280000000  0.4649860000000 1.0
C      1  0.4469730000000  0.4673830000000  0.5004090000000 1.0
C      1  0.5460190000000  0.5434740000000  0.5669500000000 1.0
C      1  0.5394140000000  0.4287070000000  0.5339370000000 1.0
C      1  0.4863800000000  0.4676610000000  0.5742330000000 1.0
C      1  0.5412140000000  0.5672890000000  0.5208470000000 1.0
C      1  0.5731380000000  0.4343980000000  0.4905680000000 1.0
C      1  0.5298520000000  0.5177620000000  0.4916720000000 1.0
C      1  0.4242680000000  0.5496670000000  0.4753540000000 1.0
C      1  0.5778250000000  0.4577400000000  0.5128920000000 1.0
C      1  0.5020470000000  0.5689320000000  0.5593840000000 1.0
C      1  0.4349180000000  0.5537600000000  0.5427630000000 1.0
C      1  0.4540240000000  0.5589530000000  0.4646860000000 1.0
C      1  0.4565770000000  0.4801050000000  0.5854800000000 1.0
END
