TITL C-2847945-6269-218 0.000871773718434259 125000 -519.605760038842 0 0 98 (C1) n - 1
REM
REM in /home/bkarasulu/work/CARBON/AIRSS/Generating-Clusters/AIREBO/with-SteepDescent/Only-C1/SD-CG-opt/Try1-1.4A-POS3A/HFTN-CG
REM
REM
REM
REM
REM
REM ./C.cell (11c1c37f851c82e70ff6c80c92926a4b)
REM
REM compiler GCC version 9.2.1 20190827 (Red Hat 9.2.1-1)
REM options -cpp -mtune=generic -march=x86-64 -g -O0 -fpre-include=/usr/include/finclude/math-vector-fortran.h
REM seed -1867202112 -288155152 -1274632947 1313811235 1064007118 -525361286 -929551229 -500626453 -1399980719 -2043218671 737829392 -2113620554 -413085314 -1207652673 2023984425 1958628217 -2033124191 618111812 -2011446084 -1414739704 168173753 1090298961 -1850117458 1288465477 -579711766 -1835408091 165214559 -1702922741 -954616957 -15950643 -1279742548 736968580 -1771911638
REM
CELL 1.54180   50.00000   50.00000   50.00000   90.00000   90.00000   90.00000
LATT -1
SFAC C  
C      1  0.5494870000000  0.5469170000000  0.5285720000000 1.0
C      1  0.4858630000000  0.4989530000000  0.4516220000000 1.0
C      1  0.5455030000000  0.5168400000000  0.5291920000000 1.0
C      1  0.5370570000000  0.4629910000000  0.5245730000000 1.0
C      1  0.5716460000000  0.4693550000000  0.4476220000000 1.0
C      1  0.5944780000000  0.5073430000000  0.4754680000000 1.0
C      1  0.4179790000000  0.4776250000000  0.5470410000000 1.0
C      1  0.5459780000000  0.4884600000000  0.5123540000000 1.0
C      1  0.5214660000000  0.5291530000000  0.5001810000000 1.0
C      1  0.4431450000000  0.5338730000000  0.5434510000000 1.0
C      1  0.4841910000000  0.5237220000000  0.5170820000000 1.0
C      1  0.5203550000000  0.4692660000000  0.5781180000000 1.0
C      1  0.5773630000000  0.4965690000000  0.5136760000000 1.0
C      1  0.5138740000000  0.5114370000000  0.5282640000000 1.0
C      1  0.5771520000000  0.4687260000000  0.5276960000000 1.0
C      1  0.5443130000000  0.5631390000000  0.5573670000000 1.0
C      1  0.4443290000000  0.5054750000000  0.4322960000000 1.0
C      1  0.4929670000000  0.4640570000000  0.5645140000000 1.0
C      1  0.4687030000000  0.5038020000000  0.5369590000000 1.0
C      1  0.5779130000000  0.4952520000000  0.4575090000000 1.0
C      1  0.4761860000000  0.4304350000000  0.5335630000000 1.0
C      1  0.4062410000000  0.4796710000000  0.4559980000000 1.0
C      1  0.4569260000000  0.5674240000000  0.4828560000000 1.0
C      1  0.5249990000000  0.4842560000000  0.4859260000000 1.0
C      1  0.5236440000000  0.4349760000000  0.5385960000000 1.0
C      1  0.5246610000000  0.4635940000000  0.6048710000000 1.0
C      1  0.5639680000000  0.4740290000000  0.5519610000000 1.0
C      1  0.4838790000000  0.5029670000000  0.5633350000000 1.0
C      1  0.4596460000000  0.5329820000000  0.5726180000000 1.0
C      1  0.5805840000000  0.5248770000000  0.4992130000000 1.0
C      1  0.4550810000000  0.4315780000000  0.5002340000000 1.0
C      1  0.4830340000000  0.5767920000000  0.4969920000000 1.0
C      1  0.4461080000000  0.4720980000000  0.4385460000000 1.0
C      1  0.4678080000000  0.5274760000000  0.4266270000000 1.0
C      1  0.4806870000000  0.5272080000000  0.4644910000000 1.0
C      1  0.5839030000000  0.5270270000000  0.5327140000000 1.0
C      1  0.4564840000000  0.4958240000000  0.4689730000000 1.0
C      1  0.5079510000000  0.4406890000000  0.5089690000000 1.0
C      1  0.4913920000000  0.4790650000000  0.4858790000000 1.0
C      1  0.5574140000000  0.5012570000000  0.5555790000000 1.0
C      1  0.4405850000000  0.4362930000000  0.5260220000000 1.0
C      1  0.4325870000000  0.5304830000000  0.5105670000000 1.0
C      1  0.4606310000000  0.5010820000000  0.5843400000000 1.0
C      1  0.5020540000000  0.4565740000000  0.4389430000000 1.0
C      1  0.5119070000000  0.5568250000000  0.5645750000000 1.0
C      1  0.4800470000000  0.5083030000000  0.4900730000000 1.0
C      1  0.4979260000000  0.5693500000000  0.4301950000000 1.0
C      1  0.5144060000000  0.4884550000000  0.4339860000000 1.0
C      1  0.4185970000000  0.4535010000000  0.5398610000000 1.0
C      1  0.5226060000000  0.5758140000000  0.5349100000000 1.0
C      1  0.5118200000000  0.4272910000000  0.4532330000000 1.0
C      1  0.4630170000000  0.5611880000000  0.5394600000000 1.0
C      1  0.5639110000000  0.4398700000000  0.4522320000000 1.0
C      1  0.4941970000000  0.5482750000000  0.5383720000000 1.0
C      1  0.5352430000000  0.5661790000000  0.5058240000000 1.0
C      1  0.5256480000000  0.4631930000000  0.4625270000000 1.0
C      1  0.5758290000000  0.5535090000000  0.5476660000000 1.0
C      1  0.4740680000000  0.4541170000000  0.4305420000000 1.0
C      1  0.4337940000000  0.4987020000000  0.5050670000000 1.0
C      1  0.5420120000000  0.4369840000000  0.5047590000000 1.0
C      1  0.5705030000000  0.4445240000000  0.5132400000000 1.0
C      1  0.5451690000000  0.5625930000000  0.4735030000000 1.0
C      1  0.5195990000000  0.5631400000000  0.4510990000000 1.0
C      1  0.4570620000000  0.4563500000000  0.4666260000000 1.0
C      1  0.4804480000000  0.4124330000000  0.5045390000000 1.0
C      1  0.5542990000000  0.5117140000000  0.4525620000000 1.0
C      1  0.4129070000000  0.5276320000000  0.4652010000000 1.0
C      1  0.4348030000000  0.5014340000000  0.5374890000000 1.0
C      1  0.5536460000000  0.5351390000000  0.4907750000000 1.0
C      1  0.4726050000000  0.5593210000000  0.4333300000000 1.0
C      1  0.4816710000000  0.5496410000000  0.5761360000000 1.0
C      1  0.4638540000000  0.4746820000000  0.5236330000000 1.0
C      1  0.4659310000000  0.4699530000000  0.5764430000000 1.0
C      1  0.5329820000000  0.5165340000000  0.4267800000000 1.0
C      1  0.5048780000000  0.5568730000000  0.5008500000000 1.0
C      1  0.5285010000000  0.5123830000000  0.4714510000000 1.0
C      1  0.4511780000000  0.5329700000000  0.4557240000000 1.0
C      1  0.4894520000000  0.5806100000000  0.5289930000000 1.0
C      1  0.5102460000000  0.4999390000000  0.5678290000000 1.0
C      1  0.4821470000000  0.4486240000000  0.4882550000000 1.0
C      1  0.4931810000000  0.4600560000000  0.5326960000000 1.0
C      1  0.5389500000000  0.4568930000000  0.5579700000000 1.0
C      1  0.4971970000000  0.4206550000000  0.4761100000000 1.0
C      1  0.5058910000000  0.4856020000000  0.5141980000000 1.0
C      1  0.4574200000000  0.4540050000000  0.5493380000000 1.0
C      1  0.5433240000000  0.4710560000000  0.4381700000000 1.0
C      1  0.5403140000000  0.4252790000000  0.4496760000000 1.0
C      1  0.4323350000000  0.5440000000000  0.4811630000000 1.0
C      1  0.4459570000000  0.4377430000000  0.4404250000000 1.0
C      1  0.5132910000000  0.5147610000000  0.4040290000000 1.0
C      1  0.4884210000000  0.5035140000000  0.4180200000000 1.0
C      1  0.5384100000000  0.5049040000000  0.5772680000000 1.0
C      1  0.4526510000000  0.4749380000000  0.4947570000000 1.0
C      1  0.4601050000000  0.5466760000000  0.5096300000000 1.0
C      1  0.5093560000000  0.5355630000000  0.4627280000000 1.0
C      1  0.4251160000000  0.5001090000000  0.4578760000000 1.0
C      1  0.5449190000000  0.5422790000000  0.4457520000000 1.0
C      1  0.4560380000000  0.5723100000000  0.4510820000000 1.0
END
