TITL C-2847955-7945-647 0.000544104196163731 125000 -522.116647417842 0 0 96 (C1) n - 1
REM
REM in /home/bkarasulu/work/CARBON/AIRSS/Generating-Clusters/AIREBO/with-SteepDescent/Only-C1/SD-CG-opt/Try1-1.4A-POS3A/HFTN-CG
REM
REM
REM
REM
REM
REM ./C.cell (11c1c37f851c82e70ff6c80c92926a4b)
REM
REM compiler GCC version 9.2.1 20190827 (Red Hat 9.2.1-1)
REM options -cpp -mtune=generic -march=x86-64 -g -O0 -fpre-include=/usr/include/finclude/math-vector-fortran.h
REM seed 1741273830 -1568376209 1365028941 -1803115022 1824491690 -1436276978 920848020 -620130873 1264326793 178014012 -2048738407 1843674304 -1029285063 -1889471330 -1974002933 1746000916 -2080102618 1156854790 140432644 334491402 1914064680 -657093203 842001492 -439291872 -1540950401 -390765816 -281018712 -49379449 2073636019 -898619879 -187319812 1526416869 -1158521038
REM
CELL 1.54180   50.00000   50.00000   50.00000   90.00000   90.00000   90.00000
LATT -1
SFAC C  
C      1  0.5032470000000  0.4365450000000  0.5509550000000 1.0
C      1  0.5309040000000  0.5332690000000  0.4365360000000 1.0
C      1  0.4803360000000  0.5739830000000  0.4768990000000 1.0
C      1  0.5119480000000  0.5750120000000  0.5175400000000 1.0
C      1  0.4976820000000  0.4768580000000  0.4710810000000 1.0
C      1  0.4063840000000  0.4496990000000  0.4801880000000 1.0
C      1  0.4884910000000  0.5932130000000  0.5554140000000 1.0
C      1  0.4697070000000  0.5042180000000  0.4635330000000 1.0
C      1  0.5945100000000  0.5087700000000  0.4904770000000 1.0
C      1  0.4257810000000  0.4428730000000  0.5288440000000 1.0
C      1  0.5077590000000  0.4670180000000  0.4988550000000 1.0
C      1  0.4542560000000  0.5639520000000  0.4768880000000 1.0
C      1  0.5366200000000  0.4338170000000  0.4567110000000 1.0
C      1  0.5490540000000  0.4916960000000  0.4479770000000 1.0
C      1  0.4553300000000  0.4438850000000  0.5226160000000 1.0
C      1  0.5253900000000  0.4955020000000  0.4928870000000 1.0
C      1  0.4259420000000  0.4232430000000  0.4783480000000 1.0
C      1  0.4710300000000  0.4890030000000  0.5292050000000 1.0
C      1  0.4883970000000  0.5282810000000  0.4127450000000 1.0
C      1  0.5318990000000  0.5906530000000  0.5066810000000 1.0
C      1  0.5570280000000  0.4721360000000  0.5216260000000 1.0
C      1  0.5227930000000  0.4604330000000  0.5942490000000 1.0
C      1  0.5049200000000  0.4885070000000  0.4220120000000 1.0
C      1  0.4491210000000  0.5343380000000  0.5608760000000 1.0
C      1  0.5481780000000  0.4533820000000  0.5597170000000 1.0
C      1  0.4849330000000  0.5394250000000  0.4524200000000 1.0
C      1  0.4327900000000  0.4612790000000  0.4686710000000 1.0
C      1  0.5837270000000  0.4737720000000  0.5238120000000 1.0
C      1  0.5613070000000  0.5337960000000  0.4299120000000 1.0
C      1  0.5469720000000  0.4688820000000  0.4936440000000 1.0
C      1  0.5189560000000  0.5619850000000  0.4435850000000 1.0
C      1  0.5772950000000  0.5436990000000  0.5170700000000 1.0
C      1  0.5443070000000  0.5651510000000  0.4614610000000 1.0
C      1  0.5492740000000  0.4183230000000  0.5044750000000 1.0
C      1  0.5272480000000  0.5284470000000  0.5718050000000 1.0
C      1  0.4725660000000  0.4581910000000  0.4708460000000 1.0
C      1  0.5543140000000  0.5357410000000  0.4739400000000 1.0
C      1  0.5360530000000  0.4408460000000  0.4871050000000 1.0
C      1  0.5175980000000  0.5126850000000  0.5212450000000 1.0
C      1  0.4423430000000  0.5630140000000  0.5028110000000 1.0
C      1  0.4416290000000  0.5739110000000  0.5290730000000 1.0
C      1  0.4316560000000  0.5165380000000  0.5484660000000 1.0
C      1  0.4855070000000  0.3944800000000  0.5232050000000 1.0
C      1  0.4474440000000  0.4741420000000  0.5725970000000 1.0
C      1  0.5652580000000  0.4772950000000  0.4700870000000 1.0
C      1  0.5108470000000  0.4658890000000  0.5666190000000 1.0
C      1  0.5387440000000  0.5121570000000  0.5448980000000 1.0
C      1  0.5211680000000  0.4480810000000  0.4396590000000 1.0
C      1  0.5069190000000  0.5761540000000  0.5455280000000 1.0
C      1  0.4671450000000  0.4903730000000  0.5834700000000 1.0
C      1  0.4551810000000  0.5350600000000  0.4625690000000 1.0
C      1  0.4409340000000  0.4867330000000  0.4684060000000 1.0
C      1  0.5213110000000  0.5589600000000  0.5617870000000 1.0
C      1  0.4634390000000  0.4608050000000  0.5019940000000 1.0
C      1  0.4154590000000  0.4731460000000  0.5346350000000 1.0
C      1  0.4938190000000  0.4907040000000  0.5667460000000 1.0
C      1  0.4752240000000  0.5024200000000  0.4149140000000 1.0
C      1  0.4720460000000  0.5389670000000  0.5144100000000 1.0
C      1  0.5637070000000  0.5330920000000  0.5378520000000 1.0
C      1  0.5161790000000  0.5251400000000  0.4105830000000 1.0
C      1  0.4784500000000  0.4688210000000  0.4200290000000 1.0
C      1  0.4845150000000  0.4264270000000  0.4687340000000 1.0
C      1  0.4730420000000  0.4315810000000  0.5387840000000 1.0
C      1  0.5297110000000  0.5141610000000  0.4646620000000 1.0
C      1  0.4879260000000  0.5579250000000  0.4260980000000 1.0
C      1  0.4899440000000  0.4463960000000  0.4417420000000 1.0
C      1  0.5054600000000  0.5356390000000  0.4750230000000 1.0
C      1  0.4447420000000  0.5616420000000  0.5541660000000 1.0
C      1  0.4958430000000  0.5579600000000  0.4991860000000 1.0
C      1  0.4432540000000  0.4886270000000  0.5440300000000 1.0
C      1  0.6003290000000  0.4878810000000  0.5071790000000 1.0
C      1  0.4929070000000  0.5785380000000  0.4526750000000 1.0
C      1  0.4113530000000  0.4307840000000  0.5061420000000 1.0
C      1  0.4267400000000  0.4562800000000  0.5604090000000 1.0
C      1  0.5341200000000  0.4067610000000  0.5211320000000 1.0
C      1  0.5026450000000  0.4765660000000  0.5274570000000 1.0
C      1  0.4699150000000  0.4922600000000  0.4953750000000 1.0
C      1  0.5701220000000  0.5554050000000  0.4473270000000 1.0
C      1  0.5324020000000  0.4789500000000  0.5437820000000 1.0
C      1  0.5042140000000  0.4173810000000  0.5228820000000 1.0
C      1  0.5687110000000  0.5075260000000  0.4296270000000 1.0
C      1  0.4510650000000  0.4332970000000  0.4622250000000 1.0
C      1  0.4745730000000  0.5187160000000  0.5657180000000 1.0
C      1  0.4401070000000  0.5319930000000  0.5048680000000 1.0
C      1  0.5760900000000  0.5295980000000  0.4926930000000 1.0
C      1  0.4352310000000  0.5154250000000  0.4789200000000 1.0
C      1  0.4875300000000  0.5195770000000  0.4951260000000 1.0
C      1  0.5932120000000  0.5653440000000  0.5194350000000 1.0
C      1  0.4196740000000  0.5260480000000  0.5264180000000 1.0
C      1  0.5490710000000  0.6073580000000  0.4960570000000 1.0
C      1  0.5293160000000  0.4740590000000  0.4332660000000 1.0
C      1  0.5042060000000  0.4345520000000  0.4952570000000 1.0
C      1  0.4879410000000  0.5166070000000  0.5345220000000 1.0
C      1  0.5012130000000  0.5005310000000  0.4520490000000 1.0
C      1  0.5511670000000  0.5467930000000  0.5604980000000 1.0
C      1  0.5332530000000  0.4330200000000  0.5633460000000 1.0
END
