TITL C-2847955-7945-694 -0.000686133395891975 125000 -567.533879876695 0 0 102 (C1) n - 1
REM
REM in /home/bkarasulu/work/CARBON/AIRSS/Generating-Clusters/AIREBO/with-SteepDescent/Only-C1/SD-CG-opt/Try1-1.4A-POS3A/HFTN-CG
REM
REM
REM
REM
REM
REM ./C.cell (11c1c37f851c82e70ff6c80c92926a4b)
REM
REM compiler GCC version 9.2.1 20190827 (Red Hat 9.2.1-1)
REM options -cpp -mtune=generic -march=x86-64 -g -O0 -fpre-include=/usr/include/finclude/math-vector-fortran.h
REM seed -540759645 401176441 5612287 -751172782 -490146177 1699778492 1465251017 1530313529 184051373 1188093372 719805742 2084043003 205856704 1812562594 2049950625 1704877230 1805107504 761658529 1971553771 196991361 244754439 -585861982 -680055705 717936363 320455658 917728312 863393199 -2080107845 51794451 -1289861479 19132747 -1263705950 187940150
REM
CELL 1.54180   50.00000   50.00000   50.00000   90.00000   90.00000   90.00000
LATT -1
SFAC C  
C      1  0.5120380000000  0.4884390000000  0.5023150000000 1.0
C      1  0.5500180000000  0.5322470000000  0.5695710000000 1.0
C      1  0.5012900000000  0.4304050000000  0.4608240000000 1.0
C      1  0.5137570000000  0.5845990000000  0.4616160000000 1.0
C      1  0.5207580000000  0.5510850000000  0.5147870000000 1.0
C      1  0.4514050000000  0.5416150000000  0.5299620000000 1.0
C      1  0.5450760000000  0.4864460000000  0.4669520000000 1.0
C      1  0.4915830000000  0.4561410000000  0.4771260000000 1.0
C      1  0.4841190000000  0.4427870000000  0.5521230000000 1.0
C      1  0.4879640000000  0.5165060000000  0.4525230000000 1.0
C      1  0.5570970000000  0.4875920000000  0.5445070000000 1.0
C      1  0.4399690000000  0.4376800000000  0.5342970000000 1.0
C      1  0.4538020000000  0.5699260000000  0.4556320000000 1.0
C      1  0.4844420000000  0.5699260000000  0.4522090000000 1.0
C      1  0.5271120000000  0.5185470000000  0.5071980000000 1.0
C      1  0.5519800000000  0.4818910000000  0.4180310000000 1.0
C      1  0.5269740000000  0.4991330000000  0.4233840000000 1.0
C      1  0.5163770000000  0.4980880000000  0.4556740000000 1.0
C      1  0.4451830000000  0.5219480000000  0.4866900000000 1.0
C      1  0.5817130000000  0.5156180000000  0.4755180000000 1.0
C      1  0.5133280000000  0.5780460000000  0.5099720000000 1.0
C      1  0.5040510000000  0.5391770000000  0.5813770000000 1.0
C      1  0.4196690000000  0.4558310000000  0.4922100000000 1.0
C      1  0.5013030000000  0.4566250000000  0.5078820000000 1.0
C      1  0.4749660000000  0.5360490000000  0.5735690000000 1.0
C      1  0.5146330000000  0.4356260000000  0.5388990000000 1.0
C      1  0.4319410000000  0.4983580000000  0.4311940000000 1.0
C      1  0.5060820000000  0.5469390000000  0.5510440000000 1.0
C      1  0.4883320000000  0.4383380000000  0.4333540000000 1.0
C      1  0.5599610000000  0.4713740000000  0.5219760000000 1.0
C      1  0.5017320000000  0.4807920000000  0.5847190000000 1.0
C      1  0.5538950000000  0.5175320000000  0.4580780000000 1.0
C      1  0.4940930000000  0.4942250000000  0.5544290000000 1.0
C      1  0.5281580000000  0.4144810000000  0.4956440000000 1.0
C      1  0.4836430000000  0.4277820000000  0.5038700000000 1.0
C      1  0.4730660000000  0.5594980000000  0.4889470000000 1.0
C      1  0.4340330000000  0.4678490000000  0.5472960000000 1.0
C      1  0.4972030000000  0.5441060000000  0.4702810000000 1.0
C      1  0.4792180000000  0.4610800000000  0.5738100000000 1.0
C      1  0.4406440000000  0.5253550000000  0.4338270000000 1.0
C      1  0.5496390000000  0.5707140000000  0.4953950000000 1.0
C      1  0.4136580000000  0.4866040000000  0.5308660000000 1.0
C      1  0.5248800000000  0.5248820000000  0.4748030000000 1.0
C      1  0.4647810000000  0.4531010000000  0.4277470000000 1.0
C      1  0.4703300000000  0.5746840000000  0.5178070000000 1.0
C      1  0.4146970000000  0.5131620000000  0.5400270000000 1.0
C      1  0.4058610000000  0.5356230000000  0.5233520000000 1.0
C      1  0.5657790000000  0.5068050000000  0.4285520000000 1.0
C      1  0.5585600000000  0.4534580000000  0.4847870000000 1.0
C      1  0.5423240000000  0.4804600000000  0.4975180000000 1.0
C      1  0.5538350000000  0.4252050000000  0.4367910000000 1.0
C      1  0.4405260000000  0.5196940000000  0.5502470000000 1.0
C      1  0.5243510000000  0.5483680000000  0.4287760000000 1.0
C      1  0.4214470000000  0.4891900000000  0.4567120000000 1.0
C      1  0.4534340000000  0.4886490000000  0.5286560000000 1.0
C      1  0.5010500000000  0.4064710000000  0.4979620000000 1.0
C      1  0.5282280000000  0.5264040000000  0.5886880000000 1.0
C      1  0.5365020000000  0.4267870000000  0.5206690000000 1.0
C      1  0.5339100000000  0.4214170000000  0.4644020000000 1.0
C      1  0.5435300000000  0.5698250000000  0.4671720000000 1.0
C      1  0.4537050000000  0.4776840000000  0.4360740000000 1.0
C      1  0.5583090000000  0.5261290000000  0.5184020000000 1.0
C      1  0.5312100000000  0.4798010000000  0.5577880000000 1.0
C      1  0.5977200000000  0.4924430000000  0.4768570000000 1.0
C      1  0.5620190000000  0.4408540000000  0.5224400000000 1.0
C      1  0.5110000000000  0.5967940000000  0.5338690000000 1.0
C      1  0.4276600000000  0.5484020000000  0.5110350000000 1.0
C      1  0.4557270000000  0.4769170000000  0.5693390000000 1.0
C      1  0.5019500000000  0.4706100000000  0.4525900000000 1.0
C      1  0.4264410000000  0.4327660000000  0.5048920000000 1.0
C      1  0.5812760000000  0.5312980000000  0.4974000000000 1.0
C      1  0.4646670000000  0.5068560000000  0.5659050000000 1.0
C      1  0.5216770000000  0.5060240000000  0.5383440000000 1.0
C      1  0.5378750000000  0.4546000000000  0.4581080000000 1.0
C      1  0.5460310000000  0.5487580000000  0.4481410000000 1.0
C      1  0.4916880000000  0.5215220000000  0.5342820000000 1.0
C      1  0.4964150000000  0.5816440000000  0.4883710000000 1.0
C      1  0.5838730000000  0.4494980000000  0.4985610000000 1.0
C      1  0.4902960000000  0.5741650000000  0.5431810000000 1.0
C      1  0.5093920000000  0.5240110000000  0.4261670000000 1.0
C      1  0.5343060000000  0.4735240000000  0.5882770000000 1.0
C      1  0.4417430000000  0.4697050000000  0.4733500000000 1.0
C      1  0.5242510000000  0.5011640000000  0.6004310000000 1.0
C      1  0.4828800000000  0.4946540000000  0.4929420000000 1.0
C      1  0.4140840000000  0.4828950000000  0.5031140000000 1.0
C      1  0.5093480000000  0.5722290000000  0.4307590000000 1.0
C      1  0.5598500000000  0.5584080000000  0.5173820000000 1.0
C      1  0.6028440000000  0.4687580000000  0.4904010000000 1.0
C      1  0.5609970000000  0.5149410000000  0.5458610000000 1.0
C      1  0.4569030000000  0.4234130000000  0.5083950000000 1.0
C      1  0.5562950000000  0.4558850000000  0.4295530000000 1.0
C      1  0.5165130000000  0.4527460000000  0.4317010000000 1.0
C      1  0.4415690000000  0.5548640000000  0.4824950000000 1.0
C      1  0.4687830000000  0.4901760000000  0.4623220000000 1.0
C      1  0.4654350000000  0.5153850000000  0.5134840000000 1.0
C      1  0.4669890000000  0.5545720000000  0.5531710000000 1.0
C      1  0.4213020000000  0.5023560000000  0.4836180000000 1.0
C      1  0.5390360000000  0.5505710000000  0.5432550000000 1.0
C      1  0.4663950000000  0.4572490000000  0.5269400000000 1.0
C      1  0.4653780000000  0.4665710000000  0.4942450000000 1.0
C      1  0.5094210000000  0.4684690000000  0.5366660000000 1.0
C      1  0.4568170000000  0.5295060000000  0.4556460000000 1.0
END
