TITL C-2848498-1409-584 0.00290158099818817 125000 -894.609252572129 0 0 173 (C1) n - 1
REM
REM in /home/bkarasulu/work/CARBON/AIRSS/Generating-Clusters/AIREBO/with-SteepDescent/Only-C1/SD-CG-opt/Try1-1.4A-POS3A/HFTN-CG
REM
REM
REM
REM
REM
REM ./C.cell (11c1c37f851c82e70ff6c80c92926a4b)
REM
REM compiler GCC version 9.2.1 20190827 (Red Hat 9.2.1-1)
REM options -cpp -mtune=generic -march=x86-64 -g -O0 -fpre-include=/usr/include/finclude/math-vector-fortran.h
REM seed 2109580990 -1785981572 -894313193 -835536889 -91567975 -1457892804 -317580023 -350721572 1476912296 1808955709 -536245906 -96239191 -1982254271 -674895857 766779586 -1250979244 -684548543 1758228866 1095402191 -221037420 763716456 2093760546 1332521174 226536339 671316584 1590125913 -2020720460 176367509 76002048 1319460422 -410968393 2122831022 -345310457
REM
CELL 1.54180   50.00000   50.00000   50.00000   90.00000   90.00000   90.00000
LATT -1
SFAC C  
C      1  0.5684650000000  0.5071480000000  0.5659830000000 1.0
C      1  0.4824130000000  0.5107430000000  0.3975740000000 1.0
C      1  0.4524920000000  0.5910760000000  0.4881750000000 1.0
C      1  0.5494500000000  0.6122130000000  0.5068270000000 1.0
C      1  0.5393620000000  0.4302290000000  0.5170660000000 1.0
C      1  0.4730550000000  0.4783050000000  0.5940930000000 1.0
C      1  0.5241770000000  0.4747240000000  0.5125400000000 1.0
C      1  0.5696120000000  0.5528690000000  0.5414360000000 1.0
C      1  0.4129750000000  0.4983980000000  0.5477210000000 1.0
C      1  0.5168890000000  0.5497770000000  0.5511940000000 1.0
C      1  0.5456460000000  0.3979670000000  0.5241400000000 1.0
C      1  0.4966700000000  0.6120040000000  0.5483660000000 1.0
C      1  0.5060860000000  0.5285740000000  0.3908660000000 1.0
C      1  0.5261170000000  0.4467040000000  0.4128160000000 1.0
C      1  0.5844950000000  0.5705150000000  0.4846930000000 1.0
C      1  0.4259310000000  0.4980100000000  0.4574590000000 1.0
C      1  0.6005390000000  0.4911650000000  0.5002410000000 1.0
C      1  0.4843110000000  0.5348000000000  0.4915340000000 1.0
C      1  0.5496570000000  0.4223250000000  0.5547840000000 1.0
C      1  0.4164930000000  0.4321080000000  0.5162990000000 1.0
C      1  0.5683910000000  0.4791960000000  0.5690250000000 1.0
C      1  0.4839630000000  0.4837980000000  0.4827430000000 1.0
C      1  0.5579150000000  0.5565070000000  0.4423540000000 1.0
C      1  0.4066390000000  0.5256370000000  0.4528330000000 1.0
C      1  0.4855130000000  0.5540570000000  0.5632870000000 1.0
C      1  0.4039980000000  0.5362200000000  0.5073220000000 1.0
C      1  0.5509290000000  0.5437590000000  0.4031340000000 1.0
C      1  0.4313020000000  0.5557830000000  0.5358990000000 1.0
C      1  0.4473690000000  0.4328840000000  0.5847430000000 1.0
C      1  0.4877180000000  0.5240090000000  0.6076820000000 1.0
C      1  0.5214110000000  0.5267090000000  0.5863450000000 1.0
C      1  0.4449390000000  0.4670040000000  0.3995290000000 1.0
C      1  0.4075270000000  0.4591300000000  0.5203910000000 1.0
C      1  0.5204820000000  0.3957890000000  0.5027520000000 1.0
C      1  0.5281370000000  0.4440570000000  0.6009350000000 1.0
C      1  0.5513090000000  0.4614290000000  0.5199670000000 1.0
C      1  0.5216540000000  0.5046940000000  0.5004360000000 1.0
C      1  0.5652090000000  0.5519650000000  0.5839480000000 1.0
C      1  0.5491720000000  0.3926140000000  0.4846950000000 1.0
C      1  0.5519310000000  0.5171220000000  0.5387880000000 1.0
C      1  0.4571030000000  0.4466550000000  0.4464640000000 1.0
C      1  0.5071720000000  0.4101500000000  0.5298890000000 1.0
C      1  0.5247800000000  0.5619370000000  0.4369820000000 1.0
C      1  0.4600240000000  0.4806300000000  0.5145350000000 1.0
C      1  0.5474810000000  0.4647510000000  0.5536020000000 1.0
C      1  0.5422220000000  0.4731550000000  0.4056510000000 1.0
C      1  0.4894170000000  0.5982980000000  0.4528140000000 1.0
C      1  0.4287870000000  0.4449740000000  0.5672220000000 1.0
C      1  0.5885850000000  0.4609830000000  0.4894150000000 1.0
C      1  0.5666680000000  0.4133830000000  0.4776070000000 1.0
C      1  0.3963190000000  0.5057100000000  0.4999970000000 1.0
C      1  0.5571140000000  0.5767830000000  0.5621260000000 1.0
C      1  0.5516240000000  0.5328470000000  0.4834350000000 1.0
C      1  0.4641290000000  0.4472980000000  0.4163900000000 1.0
C      1  0.4345700000000  0.4889480000000  0.5937740000000 1.0
C      1  0.4291800000000  0.5261720000000  0.4855700000000 1.0
C      1  0.4541540000000  0.5847550000000  0.5361740000000 1.0
C      1  0.4655900000000  0.5607770000000  0.4818790000000 1.0
C      1  0.4855390000000  0.4559670000000  0.4626300000000 1.0
C      1  0.4542030000000  0.4592630000000  0.4919080000000 1.0
C      1  0.4510890000000  0.3985390000000  0.5462300000000 1.0
C      1  0.4389280000000  0.5264230000000  0.5810440000000 1.0
C      1  0.5063290000000  0.5182790000000  0.4730930000000 1.0
C      1  0.5562190000000  0.4909790000000  0.4557190000000 1.0
C      1  0.4581600000000  0.5522390000000  0.4266880000000 1.0
C      1  0.4754230000000  0.4781770000000  0.3992370000000 1.0
C      1  0.4243880000000  0.4743470000000  0.4982230000000 1.0
C      1  0.5171020000000  0.4962570000000  0.4495290000000 1.0
C      1  0.5826020000000  0.4701080000000  0.4606730000000 1.0
C      1  0.4286010000000  0.4289640000000  0.4868800000000 1.0
C      1  0.5290380000000  0.5878450000000  0.5189130000000 1.0
C      1  0.4834810000000  0.4075060000000  0.4701200000000 1.0
C      1  0.4824520000000  0.4797100000000  0.4384890000000 1.0
C      1  0.4781000000000  0.5065710000000  0.4581750000000 1.0
C      1  0.5353130000000  0.5735470000000  0.4821750000000 1.0
C      1  0.4908510000000  0.5606600000000  0.5232130000000 1.0
C      1  0.5067390000000  0.4271900000000  0.4227300000000 1.0
C      1  0.5027230000000  0.4279540000000  0.4539050000000 1.0
C      1  0.5542630000000  0.5248400000000  0.5875250000000 1.0
C      1  0.5096180000000  0.4616770000000  0.4859800000000 1.0
C      1  0.4705420000000  0.5813810000000  0.4319940000000 1.0
C      1  0.4720410000000  0.5089110000000  0.5023470000000 1.0
C      1  0.4496430000000  0.5485800000000  0.4571760000000 1.0
C      1  0.5097690000000  0.4340620000000  0.5058420000000 1.0
C      1  0.5285160000000  0.5833640000000  0.5708330000000 1.0
C      1  0.4828890000000  0.4259610000000  0.4092200000000 1.0
C      1  0.5620080000000  0.5242230000000  0.4522260000000 1.0
C      1  0.4504720000000  0.4751120000000  0.4628940000000 1.0
C      1  0.5573260000000  0.4288420000000  0.4549140000000 1.0
C      1  0.4702840000000  0.6017360000000  0.5114720000000 1.0
C      1  0.4129620000000  0.5529440000000  0.4723980000000 1.0
C      1  0.4616890000000  0.5089090000000  0.5975600000000 1.0
C      1  0.5040520000000  0.4796180000000  0.4156540000000 1.0
C      1  0.5361210000000  0.4994580000000  0.6010730000000 1.0
C      1  0.5881890000000  0.5717890000000  0.5224890000000 1.0
C      1  0.4677830000000  0.5769490000000  0.5618020000000 1.0
C      1  0.4626150000000  0.4367400000000  0.5479610000000 1.0
C      1  0.3984960000000  0.4869210000000  0.5258980000000 1.0
C      1  0.4755760000000  0.4286440000000  0.5774410000000 1.0
C      1  0.5649570000000  0.4765670000000  0.4259090000000 1.0
C      1  0.4497110000000  0.4821180000000  0.4296180000000 1.0
C      1  0.5160670000000  0.5753940000000  0.5943150000000 1.0
C      1  0.5318030000000  0.4849740000000  0.4746630000000 1.0
C      1  0.5314060000000  0.4719020000000  0.5827010000000 1.0
C      1  0.5935890000000  0.5183770000000  0.4548170000000 1.0
C      1  0.4926900000000  0.5591780000000  0.4451420000000 1.0
C      1  0.5734730000000  0.4470850000000  0.4405770000000 1.0
C      1  0.5040640000000  0.4341150000000  0.5800930000000 1.0
C      1  0.4959800000000  0.5747370000000  0.4754380000000 1.0
C      1  0.4315480000000  0.4246820000000  0.5411740000000 1.0
C      1  0.5444840000000  0.5239380000000  0.4235320000000 1.0
C      1  0.4884820000000  0.4745700000000  0.5293290000000 1.0
C      1  0.4994520000000  0.3867990000000  0.4798380000000 1.0
C      1  0.5925020000000  0.4929580000000  0.4394200000000 1.0
C      1  0.5267990000000  0.5398450000000  0.4627650000000 1.0
C      1  0.4239890000000  0.5197460000000  0.4241790000000 1.0
C      1  0.5091600000000  0.5020910000000  0.5674390000000 1.0
C      1  0.5230530000000  0.5003460000000  0.3994140000000 1.0
C      1  0.4561700000000  0.5132040000000  0.4183730000000 1.0
C      1  0.5308920000000  0.4454840000000  0.4649690000000 1.0
C      1  0.5012910000000  0.4717350000000  0.5669190000000 1.0
C      1  0.5004800000000  0.5483350000000  0.5916110000000 1.0
C      1  0.4253330000000  0.5615280000000  0.5029150000000 1.0
C      1  0.5236400000000  0.4664680000000  0.4401550000000 1.0
C      1  0.5021230000000  0.5057670000000  0.5282580000000 1.0
C      1  0.5205970000000  0.5501670000000  0.4051670000000 1.0
C      1  0.6036190000000  0.5195600000000  0.4817920000000 1.0
C      1  0.5162650000000  0.4589450000000  0.5412190000000 1.0
C      1  0.5215020000000  0.5934050000000  0.4504520000000 1.0
C      1  0.4824210000000  0.5290970000000  0.4330590000000 1.0
C      1  0.5551760000000  0.4551820000000  0.4867560000000 1.0
C      1  0.4701670000000  0.4658430000000  0.5638360000000 1.0
C      1  0.5003480000000  0.4607810000000  0.6052860000000 1.0
C      1  0.4600770000000  0.4160540000000  0.4858210000000 1.0
C      1  0.4293040000000  0.5051000000000  0.5082310000000 1.0
C      1  0.5524550000000  0.5122210000000  0.5082600000000 1.0
C      1  0.4809310000000  0.4477440000000  0.5098150000000 1.0
C      1  0.5823140000000  0.4285030000000  0.4973520000000 1.0
C      1  0.5238700000000  0.5210520000000  0.5468930000000 1.0
C      1  0.5135360000000  0.5164200000000  0.4278240000000 1.0
C      1  0.5840330000000  0.4596240000000  0.5290330000000 1.0
C      1  0.4631520000000  0.4227540000000  0.5168990000000 1.0
C      1  0.5711020000000  0.4878870000000  0.5130090000000 1.0
C      1  0.4826040000000  0.5312780000000  0.5382110000000 1.0
C      1  0.5117190000000  0.5541230000000  0.4971520000000 1.0
C      1  0.4162800000000  0.4564760000000  0.4711500000000 1.0
C      1  0.5005060000000  0.5960490000000  0.5015550000000 1.0
C      1  0.4499600000000  0.5180160000000  0.4637860000000 1.0
C      1  0.4540040000000  0.4861580000000  0.5457390000000 1.0
C      1  0.5271490000000  0.3763480000000  0.4689690000000 1.0
C      1  0.5201650000000  0.4279570000000  0.5520680000000 1.0
C      1  0.5572630000000  0.5582800000000  0.5012830000000 1.0
C      1  0.3920320000000  0.4761000000000  0.4595950000000 1.0
C      1  0.4785650000000  0.4010870000000  0.5355940000000 1.0
C      1  0.3887600000000  0.5034840000000  0.4706690000000 1.0
C      1  0.4295450000000  0.5274560000000  0.5506660000000 1.0
C      1  0.4295520000000  0.4762560000000  0.5652860000000 1.0
C      1  0.4185850000000  0.4701280000000  0.4395940000000 1.0
C      1  0.5622790000000  0.5731620000000  0.4648240000000 1.0
C      1  0.5072990000000  0.5816710000000  0.5443180000000 1.0
C      1  0.5025170000000  0.4942920000000  0.5998620000000 1.0
C      1  0.5393950000000  0.5566970000000  0.5286630000000 1.0
C      1  0.5608310000000  0.5902460000000  0.5308280000000 1.0
C      1  0.4339250000000  0.5774090000000  0.4640100000000 1.0
C      1  0.5274590000000  0.6037530000000  0.4823140000000 1.0
C      1  0.4560580000000  0.6018430000000  0.4556960000000 1.0
C      1  0.4531430000000  0.5166830000000  0.5295400000000 1.0
C      1  0.5841950000000  0.5250510000000  0.5441430000000 1.0
C      1  0.6034380000000  0.5184750000000  0.5204380000000 1.0
C      1  0.5945930000000  0.5448740000000  0.5026250000000 1.0
C      1  0.4377130000000  0.4264310000000  0.4547760000000 1.0
C      1  0.4579430000000  0.5584810000000  0.5149290000000 1.0
C      1  0.5711180000000  0.4280420000000  0.5290340000000 1.0
END
