TITL C-2847944-5688-56 2691.60969658192 125000 -760.053617175488 0 0 138 (C1) n - 1
REM
REM in /home/bkarasulu/work/CARBON/AIRSS/Generating-Clusters/AIREBO/with-SteepDescent/Only-C1/SD-CG-opt/Try1-1.4A-POS3A/HFTN-CG
REM
REM
REM
REM
REM
REM ./C.cell (11c1c37f851c82e70ff6c80c92926a4b)
REM
REM compiler GCC version 9.2.1 20190827 (Red Hat 9.2.1-1)
REM options -cpp -mtune=generic -march=x86-64 -g -O0 -fpre-include=/usr/include/finclude/math-vector-fortran.h
REM seed -1192748026 -53810644 369704562 635049967 2055290990 1734856150 1668325130 1957460089 -607373771 1650880664 37308460 -1614937948 658475075 598472596 604101105 -6853402 -1892042087 1625806051 1581890689 -405200943 -1566529038 -751345670 145935981 1160952501 511689198 787356072 314664424 1495171018 -1772501095 -115885651 2023325853 488339366 2012562044
REM
CELL 1.54180   50.00000   50.00000   50.00000   90.00000   90.00000   90.00000
LATT -1
SFAC C  
C      1  0.4205340000000  0.5114360000000  0.4963180000000 1.0
C      1  0.5489210000000  0.5671370000000  0.5650400000000 1.0
C      1  0.4954780000000  0.5542560000000  0.4850660000000 1.0
C      1  0.5193250000000  0.4838950000000  0.4556800000000 1.0
C      1  0.5832080000000  0.5376340000000  0.5027170000000 1.0
C      1  0.4964830000000  0.5210740000000  0.5624940000000 1.0
C      1  0.4928420000000  0.5942480000000  0.4561560000000 1.0
C      1  0.3871260000000  0.5375040000000  0.4569020000000 1.0
C      1  0.5864470000000  0.4688060000000  0.5565520000000 1.0
C      1  0.4502070000000  0.4140250000000  0.5127130000000 1.0
C      1  0.4385970000000  0.4392950000000  0.5324400000000 1.0
C      1  0.5834840000000  0.4695360000000  0.4597380000000 1.0
C      1  0.4236660000000  0.5390280000000  0.4556010000000 1.0
C      1  0.5182640000000  0.4268500000000  0.5800220000000 1.0
C      1  0.4918990000000  0.5970310000000  0.5149890000000 1.0
C      1  0.5484000000000  0.4941190000000  0.4594920000000 1.0
C      1  0.4498230000000  0.5721010000000  0.5228760000000 1.0
C      1  0.4138320000000  0.4534730000000  0.5469830000000 1.0
C      1  0.5808580000000  0.4234420000000  0.5344750000000 1.0
C      1  0.5216980000000  0.5171860000000  0.5470680000000 1.0
C      1  0.4924420000000  0.4824270000000  0.4715210000000 1.0
C      1  0.5110790000000  0.4873060000000  0.5063710000000 1.0
C      1  0.5259210000000  0.4230450000000  0.6059000000000 1.0
C      1  0.5359020000000  0.5612300000000  0.4858280000000 1.0
C      1  0.4872630000000  0.5651190000000  0.4108730000000 1.0
C      1  0.4599510000000  0.4740560000000  0.4950030000000 1.0
C      1  0.4422080000000  0.4085220000000  0.4861300000000 1.0
C      1  0.4440470000000  0.4954880000000  0.5460060000000 1.0
C      1  0.5253840000000  0.4748370000000  0.5559980000000 1.0
C      1  0.5670130000000  0.4872660000000  0.4836340000000 1.0
C      1  0.4096030000000  0.5378070000000  0.4855860000000 1.0
C      1  0.4726950000000  0.4392510000000  0.5088480000000 1.0
C      1  0.4699570000000  0.5516280000000  0.5267530000000 1.0
C      1  0.5352540000000  0.5202650000000  0.4525400000000 1.0
C      1  0.5030800000000  0.5124530000000  0.4447580000000 1.0
C      1  0.4566770000000  0.4420900000000  0.5831290000000 1.0
C      1  0.5889790000000  0.5129940000000  0.4802290000000 1.0
C      1  0.5164980000000  0.4529400000000  0.5312050000000 1.0
C      1  0.4598670000000  0.4814730000000  0.4618140000000 1.0
C      1  0.4570390000000  0.5509590000000  0.5771210000000 1.0
C      1  0.5923470000000  0.5241620000000  0.4517540000000 1.0
C      1  0.5538500000000  0.5330560000000  0.5657870000000 1.0
C      1  0.5477630000000  0.5003390000000  0.5586690000000 1.0
C      1  0.5851140000000  0.5109340000000  0.4290900000000 1.0
C      1  0.4611520000000  0.5927970000000  0.5007160000000 1.0
C      1  0.4773460000000  0.4359940000000  0.4249480000000 1.0
C      1  0.5063640000000  0.5704880000000  0.4370520000000 1.0
C      1  0.5301000000000  0.4237230000000  0.4752570000000 1.0
C      1  0.4850220000000  0.4563660000000  0.5436200000000 1.0
C      1  0.4706710000000  0.5374040000000  0.4852010000000 1.0
C      1  0.4885520000000  0.4181350000000  0.4786720000000 1.0
C      1  0.4831740000000  0.4969920000000  0.3960670000000 1.0
C      1  0.4831610000000  0.4508760000000  0.4724250000000 1.0
C      1  0.5742510000000  0.4869670000000  0.5727930000000 1.0
C      1  0.5184040000000  0.4082620000000  0.5596040000000 1.0
C      1  0.5197260000000  0.5336160000000  0.4743310000000 1.0
C      1  0.4661580000000  0.5253300000000  0.5126820000000 1.0
C      1  0.5682120000000  0.5531580000000  0.4788960000000 1.0
C      1  0.5007260000000  0.5110190000000  0.4857690000000 1.0
C      1  0.5524330000000  0.5824960000000  0.5878080000000 1.0
C      1  0.5232900000000  0.4424790000000  0.4234000000000 1.0
C      1  0.5409630000000  0.4500520000000  0.4458220000000 1.0
C      1  0.4153820000000  0.4783460000000  0.5510820000000 1.0
C      1  0.5878210000000  0.4742050000000  0.5230110000000 1.0
C      1  0.5497380000000  0.5721720000000  0.5149040000000 1.0
C      1  0.5825200000000  0.5509850000000  0.4557640000000 1.0
C      1  0.5354250000000  0.5812210000000  0.5376540000000 1.0
C      1  0.4900060000000  0.4126730000000  0.5122090000000 1.0
C      1  0.4562500000000  0.5315350000000  0.4583520000000 1.0
C      1  0.4382140000000  0.5151600000000  0.5210440000000 1.0
C      1  0.5910820000000  0.5063370000000  0.5132850000000 1.0
C      1  0.5089150000000  0.4103010000000  0.4565850000000 1.0
C      1  0.5016970000000  0.4551000000000  0.5006520000000 1.0
C      1  0.5430040000000  0.4976450000000  0.5056180000000 1.0
C      1  0.4826490000000  0.4523530000000  0.4022300000000 1.0
C      1  0.4717860000000  0.5430440000000  0.4078700000000 1.0
C      1  0.4444300000000  0.5634890000000  0.4613330000000 1.0
C      1  0.4376870000000  0.5767810000000  0.4852750000000 1.0
C      1  0.5003780000000  0.5599630000000  0.5339640000000 1.0
C      1  0.4089080000000  0.4820840000000  0.4851820000000 1.0
C      1  0.4990890000000  0.4832470000000  0.5747820000000 1.0
C      1  0.4585760000000  0.4201190000000  0.4669150000000 1.0
C      1  0.5590930000000  0.4404940000000  0.4722930000000 1.0
C      1  0.4442640000000  0.4717640000000  0.3755640000000 1.0
C      1  0.5488120000000  0.4574200000000  0.5264580000000 1.0
C      1  0.5142550000000  0.3970650000000  0.5005000000000 1.0
C      1  0.4609760000000  0.5260470000000  0.5988500000000 1.0
C      1  0.4723010000000  0.4306940000000  0.5619460000000 1.0
C      1  0.5053840000000  0.4514200000000  0.5704110000000 1.0
C      1  0.4874820000000  0.5053000000000  0.5229980000000 1.0
C      1  0.4707690000000  0.5084860000000  0.4442430000000 1.0
C      1  0.5109390000000  0.4896340000000  0.4003550000000 1.0
C      1  0.4788860000000  0.5464730000000  0.5558200000000 1.0
C      1  0.5660710000000  0.4664360000000  0.4371610000000 1.0
C      1  0.4709990000000  0.5801300000000  0.5759050000000 1.0
C      1  0.4771290000000  0.4964820000000  0.5541730000000 1.0
C      1  0.4341630000000  0.5297220000000  0.5698150000000 1.0
C      1  0.4524150000000  0.4634210000000  0.5499490000000 1.0
C      1  0.5160420000000  0.5491580000000  0.5108360000000 1.0
C      1  0.5733080000000  0.5517740000000  0.5489080000000 1.0
C      1  0.5016150000000  0.5601860000000  0.5914580000000 1.0
C      1  0.4231640000000  0.5605760000000  0.5297930000000 1.0
C      1  0.4676820000000  0.4733170000000  0.3896810000000 1.0
C      1  0.5259460000000  0.5222100000000  0.5190330000000 1.0
C      1  0.5725600000000  0.5575380000000  0.5222270000000 1.0
C      1  0.5326840000000  0.6072030000000  0.4598570000000 1.0
C      1  0.4716630000000  0.5157640000000  0.4135000000000 1.0
C      1  0.5225560000000  0.4562590000000  0.4738060000000 1.0
C      1  0.4746270000000  0.4776960000000  0.5192470000000 1.0
C      1  0.5278790000000  0.5102900000000  0.4131840000000 1.0
C      1  0.5018140000000  0.5782520000000  0.5626180000000 1.0
C      1  0.5100250000000  0.5983490000000  0.5364500000000 1.0
C      1  0.4461790000000  0.4745090000000  0.5815010000000 1.0
C      1  0.5470560000000  0.5357550000000  0.4250130000000 1.0
C      1  0.4310830000000  0.4956760000000  0.4679550000000 1.0
C      1  0.5561970000000  0.4969680000000  0.4267260000000 1.0
C      1  0.4890110000000  0.5837260000000  0.4838330000000 1.0
C      1  0.5030080000000  0.4240630000000  0.4325600000000 1.0
C      1  0.5696630000000  0.4573880000000  0.4996770000000 1.0
C      1  0.5298350000000  0.5796950000000  0.4599420000000 1.0
C      1  0.4254420000000  0.5344140000000  0.5430800000000 1.0
C      1  0.4183240000000  0.5624790000000  0.5002380000000 1.0
C      1  0.5070660000000  0.6192660000000  0.4545610000000 1.0
C      1  0.5021330000000  0.4853230000000  0.6054450000000 1.0
C      1  0.5132290000000  0.5390740000000  0.4259930000000 1.0
C      1  0.4136330000000  0.4565390000000  0.4911440000000 1.0
C      1  0.4911550000000  0.4093140000000  0.5434060000000 1.0
C      1  0.4413360000000  0.4508720000000  0.5025240000000 1.0
C      1  0.5633810000000  0.4970260000000  0.5293040000000 1.0
C      1  0.4903650000000  0.5346520000000  0.5919380000000 1.0
C      1  0.4606520000000  0.4491850000000  0.4490610000000 1.0
C      1  0.4206250000000  0.4706050000000  0.3643070000000 1.0
C      1  0.4417250000000  0.5025880000000  0.5890240000000 1.0
C      1  0.5242190000000  0.4204860000000  0.5311450000000 1.0
C      1  0.5712780000000  0.4245110000000  0.5082430000000 1.0
C      1  0.5430140000000  0.4134900000000  0.5048040000000 1.0
C      1  0.5112260000000  0.4610280000000  0.4048970000000 1.0
C      1  0.5693790000000  0.4471720000000  0.5460020000000 1.0
END
