TITL C-2847948-6138-570 -0.00178270024106595 125000 -361.344842570814 0 0 65 (C1) n - 1
REM
REM in /home/bkarasulu/work/CARBON/AIRSS/Generating-Clusters/AIREBO/with-SteepDescent/Only-C1/SD-CG-opt/Try1-1.4A-POS3A/HFTN-CG
REM
REM
REM
REM
REM
REM ./C.cell (11c1c37f851c82e70ff6c80c92926a4b)
REM
REM compiler GCC version 9.2.1 20190827 (Red Hat 9.2.1-1)
REM options -cpp -mtune=generic -march=x86-64 -g -O0 -fpre-include=/usr/include/finclude/math-vector-fortran.h
REM seed 774961305 -1411031759 -1564922701 -536583011 1413022233 -1857567899 -1034378188 2127558428 282537918 -1768461047 379518250 507210247 884008020 745062994 -217497271 -1429086289 171434085 -357316779 -308464067 1694922335 -2083023262 1758138092 -1093635762 -1773999206 1660065207 1967148887 -322282912 907247773 947404465 363046901 1357111089 633592327 213350014
REM
CELL 1.54180   50.00000   50.00000   50.00000   90.00000   90.00000   90.00000
LATT -1
SFAC C  
C      1  0.4906910000000  0.5275060000000  0.4667370000000 1.0
C      1  0.5662350000000  0.4381440000000  0.5227640000000 1.0
C      1  0.5115560000000  0.4672890000000  0.5105350000000 1.0
C      1  0.5242270000000  0.4981450000000  0.5644470000000 1.0
C      1  0.4904770000000  0.5451950000000  0.4420520000000 1.0
C      1  0.4501850000000  0.5574330000000  0.5466720000000 1.0
C      1  0.5471220000000  0.4754220000000  0.4554020000000 1.0
C      1  0.4662830000000  0.4438800000000  0.4858150000000 1.0
C      1  0.4483780000000  0.4981430000000  0.4478030000000 1.0
C      1  0.4521090000000  0.4701480000000  0.5424840000000 1.0
C      1  0.4942100000000  0.5528520000000  0.5121290000000 1.0
C      1  0.4262240000000  0.4895160000000  0.4378730000000 1.0
C      1  0.4225140000000  0.5095870000000  0.5078370000000 1.0
C      1  0.5301670000000  0.5625290000000  0.4820830000000 1.0
C      1  0.4427650000000  0.4584570000000  0.4938620000000 1.0
C      1  0.4363400000000  0.4796330000000  0.5160970000000 1.0
C      1  0.5441470000000  0.5511330000000  0.4596170000000 1.0
C      1  0.5735590000000  0.5035690000000  0.5044300000000 1.0
C      1  0.4849560000000  0.5692100000000  0.4562580000000 1.0
C      1  0.5493860000000  0.5634420000000  0.4363760000000 1.0
C      1  0.4814760000000  0.4511230000000  0.4626900000000 1.0
C      1  0.5281500000000  0.5131420000000  0.5052040000000 1.0
C      1  0.5538580000000  0.5256230000000  0.4673940000000 1.0
C      1  0.5638330000000  0.4542320000000  0.4668810000000 1.0
C      1  0.5523730000000  0.4830110000000  0.5412350000000 1.0
C      1  0.4883090000000  0.4967800000000  0.4777030000000 1.0
C      1  0.4609050000000  0.5160940000000  0.4719710000000 1.0
C      1  0.5761130000000  0.4974140000000  0.5304700000000 1.0
C      1  0.5306210000000  0.4350380000000  0.4780820000000 1.0
C      1  0.5203760000000  0.5576010000000  0.5333500000000 1.0
C      1  0.4824120000000  0.5511590000000  0.5425190000000 1.0
C      1  0.5557370000000  0.4508650000000  0.5438690000000 1.0
C      1  0.4733950000000  0.5621790000000  0.4874540000000 1.0
C      1  0.5255210000000  0.4129470000000  0.4662230000000 1.0
C      1  0.4790230000000  0.4279940000000  0.5056550000000 1.0
C      1  0.5633880000000  0.5295850000000  0.4960500000000 1.0
C      1  0.4803610000000  0.5190350000000  0.5863520000000 1.0
C      1  0.4496330000000  0.5411010000000  0.4847510000000 1.0
C      1  0.5630400000000  0.4470240000000  0.4966370000000 1.0
C      1  0.5039160000000  0.5296260000000  0.4942340000000 1.0
C      1  0.5243030000000  0.4722370000000  0.4385810000000 1.0
C      1  0.5199930000000  0.5227220000000  0.5745310000000 1.0
C      1  0.5348980000000  0.4655430000000  0.4920400000000 1.0
C      1  0.4910690000000  0.5205900000000  0.4273440000000 1.0
C      1  0.5049880000000  0.5735410000000  0.4798340000000 1.0
C      1  0.5241510000000  0.4989750000000  0.5309940000000 1.0
C      1  0.4341820000000  0.5785550000000  0.5504500000000 1.0
C      1  0.4253310000000  0.5345140000000  0.4951730000000 1.0
C      1  0.4358070000000  0.5080170000000  0.5353770000000 1.0
C      1  0.4936610000000  0.4900610000000  0.5061510000000 1.0
C      1  0.4938700000000  0.4269750000000  0.5295940000000 1.0
C      1  0.4505500000000  0.5275940000000  0.5462330000000 1.0
C      1  0.4792100000000  0.4715460000000  0.5448690000000 1.0
C      1  0.4970350000000  0.4699200000000  0.4481610000000 1.0
C      1  0.5467370000000  0.4959810000000  0.4824860000000 1.0
C      1  0.4808990000000  0.4959490000000  0.4443280000000 1.0
C      1  0.5043380000000  0.4543390000000  0.5379910000000 1.0
C      1  0.5372600000000  0.5457240000000  0.5086620000000 1.0
C      1  0.5283310000000  0.4710010000000  0.4117620000000 1.0
C      1  0.5109880000000  0.5445360000000  0.5597160000000 1.0
C      1  0.4962550000000  0.4052210000000  0.5459550000000 1.0
C      1  0.5272740000000  0.4652900000000  0.5557970000000 1.0
C      1  0.4915260000000  0.4994160000000  0.5387870000000 1.0
C      1  0.4794800000000  0.5202060000000  0.5558040000000 1.0
C      1  0.4038940000000  0.4787400000000  0.4293840000000 1.0
END
