TITL C-2848496-4490-694 0.000600936995632839 125000 -479.999824892943 0 0 90 (C1) n - 1
REM
REM in /home/bkarasulu/work/CARBON/AIRSS/Generating-Clusters/AIREBO/with-SteepDescent/Only-C1/SD-CG-opt/Try1-1.4A-POS3A/HFTN-CG
REM
REM
REM
REM
REM
REM ./C.cell (11c1c37f851c82e70ff6c80c92926a4b)
REM
REM compiler GCC version 9.2.1 20190827 (Red Hat 9.2.1-1)
REM options -cpp -mtune=generic -march=x86-64 -g -O0 -fpre-include=/usr/include/finclude/math-vector-fortran.h
REM seed -1871573870 1768050339 871580225 279805114 -1299771563 -875313270 -1424321463 617748867 1177507616 1138440993 1417790352 511353928 84608392 -118053193 761500738 -556815948 -1987700788 1791602490 1795278452 -1620895393 -1565590354 -307038095 1610958035 815719273 836002996 -1017795097 1310393914 -177635594 997168817 267779400 -920814950 -1770020101 1735352690
REM
CELL 1.54180   50.00000   50.00000   50.00000   90.00000   90.00000   90.00000
LATT -1
SFAC C  
C      1  0.4959460000000  0.4449570000000  0.4634020000000 1.0
C      1  0.5054010000000  0.5263460000000  0.4204810000000 1.0
C      1  0.5111300000000  0.4170400000000  0.5323410000000 1.0
C      1  0.4629580000000  0.5441440000000  0.4488380000000 1.0
C      1  0.4729960000000  0.4581320000000  0.5663750000000 1.0
C      1  0.5295280000000  0.4285300000000  0.5123820000000 1.0
C      1  0.4979170000000  0.4930410000000  0.5222460000000 1.0
C      1  0.4578160000000  0.4746440000000  0.5262190000000 1.0
C      1  0.5158460000000  0.4225910000000  0.5628910000000 1.0
C      1  0.5117500000000  0.4654290000000  0.5179170000000 1.0
C      1  0.5360500000000  0.4994630000000  0.4790940000000 1.0
C      1  0.5490910000000  0.4508660000000  0.5261750000000 1.0
C      1  0.4345000000000  0.5104340000000  0.4594950000000 1.0
C      1  0.4688250000000  0.4148170000000  0.5244160000000 1.0
C      1  0.4188520000000  0.4757670000000  0.5175960000000 1.0
C      1  0.5159820000000  0.4532520000000  0.5481890000000 1.0
C      1  0.4860420000000  0.4384830000000  0.5417360000000 1.0
C      1  0.5866870000000  0.5043960000000  0.5266430000000 1.0
C      1  0.4759380000000  0.4987060000000  0.4999370000000 1.0
C      1  0.5171080000000  0.5741310000000  0.5091980000000 1.0
C      1  0.5355860000000  0.5329240000000  0.5692870000000 1.0
C      1  0.4450080000000  0.4601970000000  0.4762680000000 1.0
C      1  0.4450650000000  0.5306450000000  0.5206210000000 1.0
C      1  0.4621550000000  0.5132430000000  0.4399060000000 1.0
C      1  0.4632590000000  0.5772570000000  0.4903110000000 1.0
C      1  0.4754680000000  0.5420840000000  0.5661090000000 1.0
C      1  0.5392580000000  0.5143580000000  0.5157610000000 1.0
C      1  0.4966530000000  0.4048470000000  0.4849970000000 1.0
C      1  0.5252980000000  0.5623450000000  0.5644300000000 1.0
C      1  0.4459110000000  0.4892910000000  0.4914600000000 1.0
C      1  0.5410730000000  0.4826260000000  0.5170190000000 1.0
C      1  0.5529110000000  0.4966090000000  0.5609150000000 1.0
C      1  0.4368000000000  0.5558830000000  0.4910280000000 1.0
C      1  0.5072880000000  0.5507410000000  0.4357440000000 1.0
C      1  0.4297690000000  0.5603090000000  0.5240780000000 1.0
C      1  0.5234760000000  0.5131820000000  0.4533470000000 1.0
C      1  0.4337550000000  0.4652270000000  0.5415050000000 1.0
C      1  0.4553000000000  0.5590220000000  0.5465210000000 1.0
C      1  0.5101020000000  0.5760540000000  0.4796210000000 1.0
C      1  0.5122450000000  0.4935510000000  0.4279590000000 1.0
C      1  0.4978250000000  0.5663400000000  0.5578450000000 1.0
C      1  0.4252370000000  0.5059940000000  0.5095050000000 1.0
C      1  0.4862540000000  0.5277630000000  0.4929100000000 1.0
C      1  0.4901610000000  0.5084760000000  0.4575530000000 1.0
C      1  0.4269520000000  0.5243800000000  0.4828270000000 1.0
C      1  0.5205460000000  0.4879980000000  0.5671490000000 1.0
C      1  0.5201620000000  0.5268570000000  0.4905060000000 1.0
C      1  0.4614660000000  0.4798770000000  0.4317080000000 1.0
C      1  0.5187740000000  0.4432270000000  0.4382600000000 1.0
C      1  0.5506020000000  0.5694980000000  0.5104510000000 1.0
C      1  0.5510820000000  0.4386800000000  0.4880720000000 1.0
C      1  0.5855790000000  0.4890460000000  0.4977670000000 1.0
C      1  0.4793020000000  0.4564320000000  0.5131740000000 1.0
C      1  0.5361480000000  0.4703980000000  0.4349890000000 1.0
C      1  0.5208090000000  0.5508330000000  0.4663200000000 1.0
C      1  0.4771880000000  0.5173370000000  0.4098880000000 1.0
C      1  0.4818330000000  0.5642630000000  0.4442130000000 1.0
C      1  0.5465690000000  0.5369860000000  0.4532010000000 1.0
C      1  0.4772580000000  0.5120950000000  0.5518400000000 1.0
C      1  0.5676850000000  0.5345730000000  0.4726170000000 1.0
C      1  0.4870610000000  0.4881570000000  0.5739240000000 1.0
C      1  0.5626530000000  0.5091100000000  0.5378030000000 1.0
C      1  0.4707960000000  0.4443860000000  0.4849990000000 1.0
C      1  0.4190190000000  0.4591400000000  0.4957030000000 1.0
C      1  0.4790040000000  0.5172880000000  0.5896400000000 1.0
C      1  0.4948900000000  0.4944820000000  0.3987290000000 1.0
C      1  0.4908800000000  0.4714480000000  0.4425380000000 1.0
C      1  0.6145520000000  0.4982840000000  0.5131580000000 1.0
C      1  0.5425960000000  0.5611480000000  0.5371290000000 1.0
C      1  0.5174110000000  0.4742930000000  0.4855810000000 1.0
C      1  0.4897520000000  0.4825560000000  0.4746710000000 1.0
C      1  0.5393010000000  0.4606750000000  0.4676290000000 1.0
C      1  0.4993090000000  0.5471950000000  0.5175760000000 1.0
C      1  0.4682370000000  0.5552370000000  0.5155990000000 1.0
C      1  0.5660980000000  0.4659000000000  0.5015510000000 1.0
C      1  0.5693230000000  0.5030100000000  0.4765250000000 1.0
C      1  0.4742380000000  0.4156730000000  0.4972440000000 1.0
C      1  0.5612230000000  0.4822740000000  0.4535070000000 1.0
C      1  0.5437540000000  0.4654030000000  0.5567880000000 1.0
C      1  0.4411000000000  0.4818550000000  0.4529280000000 1.0
C      1  0.4452300000000  0.4573260000000  0.5662910000000 1.0
C      1  0.5201160000000  0.4273510000000  0.4797240000000 1.0
C      1  0.5075500000000  0.5076850000000  0.5460050000000 1.0
C      1  0.4837290000000  0.5801120000000  0.4698690000000 1.0
C      1  0.4930570000000  0.4455360000000  0.4206180000000 1.0
C      1  0.4971520000000  0.5827560000000  0.5353550000000 1.0
C      1  0.5674370000000  0.5565430000000  0.4914480000000 1.0
C      1  0.4601310000000  0.5054000000000  0.5292920000000 1.0
C      1  0.5232400000000  0.5331950000000  0.5372800000000 1.0
C      1  0.4629860000000  0.5399630000000  0.4776380000000 1.0
END
