TITL C-2848499-1157-729 0.00126750434100317 125000 -574.575781987642 0 0 110 (C1) n - 1
REM
REM in /home/bkarasulu/work/CARBON/AIRSS/Generating-Clusters/AIREBO/with-SteepDescent/Only-C1/SD-CG-opt/Try1-1.4A-POS3A/HFTN-CG
REM
REM
REM
REM
REM
REM ./C.cell (11c1c37f851c82e70ff6c80c92926a4b)
REM
REM compiler GCC version 9.2.1 20190827 (Red Hat 9.2.1-1)
REM options -cpp -mtune=generic -march=x86-64 -g -O0 -fpre-include=/usr/include/finclude/math-vector-fortran.h
REM seed -1016852877 -995876801 -1594933473 435928050 -1763205218 1632976649 65974322 -568288963 -677912007 711393448 1273501932 -1473399924 -925900149 -1970478090 1010710891 -1751063489 1002132817 -1858390480 -2112344248 821680025 37308082 358716432 1765978909 -267756356 1233821378 778169738 -1714857525 672263594 1585274403 1579495149 539073539 1731091287 657137338
REM
CELL 1.54180   50.00000   50.00000   50.00000   90.00000   90.00000   90.00000
LATT -1
SFAC C  
C      1  0.5409370000000  0.4679360000000  0.5693850000000 1.0
C      1  0.4678840000000  0.4260420000000  0.4916090000000 1.0
C      1  0.5291910000000  0.5448800000000  0.4251100000000 1.0
C      1  0.5171960000000  0.4745440000000  0.4130970000000 1.0
C      1  0.4605000000000  0.4999290000000  0.5375080000000 1.0
C      1  0.5384080000000  0.5773180000000  0.5479260000000 1.0
C      1  0.4795070000000  0.5086310000000  0.4075420000000 1.0
C      1  0.5707530000000  0.5007350000000  0.5327160000000 1.0
C      1  0.4551810000000  0.4758950000000  0.4606450000000 1.0
C      1  0.5807740000000  0.5054300000000  0.4415390000000 1.0
C      1  0.4896390000000  0.5527350000000  0.5674530000000 1.0
C      1  0.4981040000000  0.5455350000000  0.4303750000000 1.0
C      1  0.5435830000000  0.5111250000000  0.5901120000000 1.0
C      1  0.4500180000000  0.4720530000000  0.5490890000000 1.0
C      1  0.4931070000000  0.4591110000000  0.4117510000000 1.0
C      1  0.5644130000000  0.4708390000000  0.4725050000000 1.0
C      1  0.5089490000000  0.5901790000000  0.5046940000000 1.0
C      1  0.5041670000000  0.5144920000000  0.4719300000000 1.0
C      1  0.4670060000000  0.5389580000000  0.4424870000000 1.0
C      1  0.5078750000000  0.4568620000000  0.4487900000000 1.0
C      1  0.4683940000000  0.5315930000000  0.4754470000000 1.0
C      1  0.4495600000000  0.4617580000000  0.5796210000000 1.0
C      1  0.4194370000000  0.5114380000000  0.5415260000000 1.0
C      1  0.5051090000000  0.5003780000000  0.5433470000000 1.0
C      1  0.5794930000000  0.4878470000000  0.5113110000000 1.0
C      1  0.4431510000000  0.5033640000000  0.5103710000000 1.0
C      1  0.4395430000000  0.4574530000000  0.5030900000000 1.0
C      1  0.5497710000000  0.4830390000000  0.5462810000000 1.0
C      1  0.5283550000000  0.4065100000000  0.4972960000000 1.0
C      1  0.4696490000000  0.5728110000000  0.4406800000000 1.0
C      1  0.5335620000000  0.4956670000000  0.4341480000000 1.0
C      1  0.5937020000000  0.5365570000000  0.5583990000000 1.0
C      1  0.5222720000000  0.5540050000000  0.5635470000000 1.0
C      1  0.5017230000000  0.4276350000000  0.4948600000000 1.0
C      1  0.5681210000000  0.4579740000000  0.5037950000000 1.0
C      1  0.4815010000000  0.5090350000000  0.4967060000000 1.0
C      1  0.5329120000000  0.4354420000000  0.4380280000000 1.0
C      1  0.5412550000000  0.5302350000000  0.5649290000000 1.0
C      1  0.4473310000000  0.5048670000000  0.4766430000000 1.0
C      1  0.5484980000000  0.4101080000000  0.5160010000000 1.0
C      1  0.4151040000000  0.5073590000000  0.4822490000000 1.0
C      1  0.5127010000000  0.5368480000000  0.5156210000000 1.0
C      1  0.5515950000000  0.5128590000000  0.4573400000000 1.0
C      1  0.5428950000000  0.5441260000000  0.4497800000000 1.0
C      1  0.5393220000000  0.4836250000000  0.5139210000000 1.0
C      1  0.4912520000000  0.5253640000000  0.5819760000000 1.0
C      1  0.4692220000000  0.4444030000000  0.5864520000000 1.0
C      1  0.4715670000000  0.5040260000000  0.5690900000000 1.0
C      1  0.4232240000000  0.4669560000000  0.4681380000000 1.0
C      1  0.4554600000000  0.4502750000000  0.5268620000000 1.0
C      1  0.5535650000000  0.5514380000000  0.5319060000000 1.0
C      1  0.5037220000000  0.4681490000000  0.5043270000000 1.0
C      1  0.4326470000000  0.5647920000000  0.5015760000000 1.0
C      1  0.5883270000000  0.5049230000000  0.4892580000000 1.0
C      1  0.5569240000000  0.4390270000000  0.5301350000000 1.0
C      1  0.5392420000000  0.4912130000000  0.4804920000000 1.0
C      1  0.4873630000000  0.4836940000000  0.4528570000000 1.0
C      1  0.5697620000000  0.5285920000000  0.5463070000000 1.0
C      1  0.4857550000000  0.5205370000000  0.5284210000000 1.0
C      1  0.5402790000000  0.5176000000000  0.5101880000000 1.0
C      1  0.5394710000000  0.4415320000000  0.5590660000000 1.0
C      1  0.5448200000000  0.4408870000000  0.4858680000000 1.0
C      1  0.4655180000000  0.4793820000000  0.5013420000000 1.0
C      1  0.4749550000000  0.4556980000000  0.4795540000000 1.0
C      1  0.4371200000000  0.5340660000000  0.5060680000000 1.0
C      1  0.4873940000000  0.5798780000000  0.4600010000000 1.0
C      1  0.4705620000000  0.5066690000000  0.4342050000000 1.0
C      1  0.5296820000000  0.4224450000000  0.4672910000000 1.0
C      1  0.5140760000000  0.5840670000000  0.4741190000000 1.0
C      1  0.5411730000000  0.5849620000000  0.5149070000000 1.0
C      1  0.4802550000000  0.5746900000000  0.5826030000000 1.0
C      1  0.5405690000000  0.4661860000000  0.4495740000000 1.0
C      1  0.5083510000000  0.5411530000000  0.4855730000000 1.0
C      1  0.5381840000000  0.5198390000000  0.4089660000000 1.0
C      1  0.4568980000000  0.5643560000000  0.5231230000000 1.0
C      1  0.4718390000000  0.4632220000000  0.4305790000000 1.0
C      1  0.4839130000000  0.5597340000000  0.4836560000000 1.0
C      1  0.5885130000000  0.4881940000000  0.4635050000000 1.0
C      1  0.4392820000000  0.4384750000000  0.4775150000000 1.0
C      1  0.5298400000000  0.4872060000000  0.5874480000000 1.0
C      1  0.5332460000000  0.5105450000000  0.5423340000000 1.0
C      1  0.4146620000000  0.4909740000000  0.5186370000000 1.0
C      1  0.4657480000000  0.5420350000000  0.5455830000000 1.0
C      1  0.5945740000000  0.5384170000000  0.4844050000000 1.0
C      1  0.4925220000000  0.4450630000000  0.5700530000000 1.0
C      1  0.5010830000000  0.4928720000000  0.5821750000000 1.0
C      1  0.4410510000000  0.4943090000000  0.5732060000000 1.0
C      1  0.4346580000000  0.5388680000000  0.4457170000000 1.0
C      1  0.4049620000000  0.4804100000000  0.4916670000000 1.0
C      1  0.5299040000000  0.4509490000000  0.5132730000000 1.0
C      1  0.4800720000000  0.5743550000000  0.5103820000000 1.0
C      1  0.5081150000000  0.4290830000000  0.5275480000000 1.0
C      1  0.4392740000000  0.5252740000000  0.5592080000000 1.0
C      1  0.4965310000000  0.4273660000000  0.4615560000000 1.0
C      1  0.5081440000000  0.5163490000000  0.4432150000000 1.0
C      1  0.5128920000000  0.4309230000000  0.5553380000000 1.0
C      1  0.5077430000000  0.4841070000000  0.4800860000000 1.0
C      1  0.4717890000000  0.4149400000000  0.4510010000000 1.0
C      1  0.4259880000000  0.5137480000000  0.4333010000000 1.0
C      1  0.4613340000000  0.4127670000000  0.5166110000000 1.0
C      1  0.5523140000000  0.5562740000000  0.5001380000000 1.0
C      1  0.5163110000000  0.5643540000000  0.5255490000000 1.0
C      1  0.5626060000000  0.5269750000000  0.4862740000000 1.0
C      1  0.4258070000000  0.5536390000000  0.4694530000000 1.0
C      1  0.4927840000000  0.4726310000000  0.5571130000000 1.0
C      1  0.5325830000000  0.5575650000000  0.4743290000000 1.0
C      1  0.4838040000000  0.4690160000000  0.5280660000000 1.0
C      1  0.5077560000000  0.5132160000000  0.4093540000000 1.0
C      1  0.4091260000000  0.5354590000000  0.4886290000000 1.0
C      1  0.4297420000000  0.4881220000000  0.4416530000000 1.0
END
