TITL C-2847953-8112-654 0.000744306481202148 125000 -790.831557914578 0 0 144 (C1) n - 1
REM
REM in /home/bkarasulu/work/CARBON/AIRSS/Generating-Clusters/AIREBO/with-SteepDescent/Only-C1/SD-CG-opt/Try1-1.4A-POS3A/HFTN-CG
REM
REM
REM
REM
REM
REM ./C.cell (11c1c37f851c82e70ff6c80c92926a4b)
REM
REM compiler GCC version 9.2.1 20190827 (Red Hat 9.2.1-1)
REM options -cpp -mtune=generic -march=x86-64 -g -O0 -fpre-include=/usr/include/finclude/math-vector-fortran.h
REM seed -66103178 -130728283 1177049609 53351214 -696383118 -1531327995 1652212019 -888504914 150153089 644803043 892656137 1575249033 -1767943636 538724429 -879884108 -562421540 -1107798209 -1257687075 -687913120 1449118695 2093925007 -1601749204 1239957846 1472872256 -2096098595 388756319 -1239569696 -553971259 1375271021 687479994 1064460981 768919793 1220371985
REM
CELL 1.54180   50.00000   50.00000   50.00000   90.00000   90.00000   90.00000
LATT -1
SFAC C  
C      1  0.4588610000000  0.5430870000000  0.4778200000000 1.0
C      1  0.4712760000000  0.5899390000000  0.4693250000000 1.0
C      1  0.4286910000000  0.5253810000000  0.5773360000000 1.0
C      1  0.5777350000000  0.4934660000000  0.5745940000000 1.0
C      1  0.5237840000000  0.5010080000000  0.5275240000000 1.0
C      1  0.5268990000000  0.4028820000000  0.4799280000000 1.0
C      1  0.5329450000000  0.4409390000000  0.4245700000000 1.0
C      1  0.4144630000000  0.5469190000000  0.4871970000000 1.0
C      1  0.5227390000000  0.5112190000000  0.4109830000000 1.0
C      1  0.5784420000000  0.5614490000000  0.5094360000000 1.0
C      1  0.5846410000000  0.4903180000000  0.4744110000000 1.0
C      1  0.5078810000000  0.4204200000000  0.5616030000000 1.0
C      1  0.5411110000000  0.4720280000000  0.5063040000000 1.0
C      1  0.4597660000000  0.4168400000000  0.5174700000000 1.0
C      1  0.5341300000000  0.5279070000000  0.4849990000000 1.0
C      1  0.4962370000000  0.4903050000000  0.5543940000000 1.0
C      1  0.4325790000000  0.4305380000000  0.5252650000000 1.0
C      1  0.5535660000000  0.5523770000000  0.5261910000000 1.0
C      1  0.5585960000000  0.4792740000000  0.4240950000000 1.0
C      1  0.5723220000000  0.5121700000000  0.4422250000000 1.0
C      1  0.5467950000000  0.5582720000000  0.5568080000000 1.0
C      1  0.4874560000000  0.4765490000000  0.4116770000000 1.0
C      1  0.4109450000000  0.4339750000000  0.5083770000000 1.0
C      1  0.5196270000000  0.4703210000000  0.5398660000000 1.0
C      1  0.5544640000000  0.5117620000000  0.4148510000000 1.0
C      1  0.4532050000000  0.4666010000000  0.4193580000000 1.0
C      1  0.5765130000000  0.4369150000000  0.4797710000000 1.0
C      1  0.4726610000000  0.4856500000000  0.5302550000000 1.0
C      1  0.4670350000000  0.4260490000000  0.4812670000000 1.0
C      1  0.4803900000000  0.5933430000000  0.5322570000000 1.0
C      1  0.4254440000000  0.5291770000000  0.4117320000000 1.0
C      1  0.4247960000000  0.5031340000000  0.5562340000000 1.0
C      1  0.5670660000000  0.6122170000000  0.4998150000000 1.0
C      1  0.4070280000000  0.5060990000000  0.5174370000000 1.0
C      1  0.4876240000000  0.5602160000000  0.4716730000000 1.0
C      1  0.5272660000000  0.5060710000000  0.4504430000000 1.0
C      1  0.5889450000000  0.5110400000000  0.5182560000000 1.0
C      1  0.5345180000000  0.4672390000000  0.4447670000000 1.0
C      1  0.4572270000000  0.4944400000000  0.4384960000000 1.0
C      1  0.4925240000000  0.4913500000000  0.4818610000000 1.0
C      1  0.4882390000000  0.5401810000000  0.5284180000000 1.0
C      1  0.4785410000000  0.5105450000000  0.5752360000000 1.0
C      1  0.4774990000000  0.5217770000000  0.4373500000000 1.0
C      1  0.5791620000000  0.4599970000000  0.4599980000000 1.0
C      1  0.5810840000000  0.5090220000000  0.5479170000000 1.0
C      1  0.4584420000000  0.5588380000000  0.5627720000000 1.0
C      1  0.4990470000000  0.4254300000000  0.5319890000000 1.0
C      1  0.5096660000000  0.5556050000000  0.4145290000000 1.0
C      1  0.5454170000000  0.5252900000000  0.5162580000000 1.0
C      1  0.5078060000000  0.4658970000000  0.5095690000000 1.0
C      1  0.5476780000000  0.4022570000000  0.4634070000000 1.0
C      1  0.4734690000000  0.5331730000000  0.5527240000000 1.0
C      1  0.5480750000000  0.5357600000000  0.5997430000000 1.0
C      1  0.4590250000000  0.4242630000000  0.5719840000000 1.0
C      1  0.5116380000000  0.5108790000000  0.5008280000000 1.0
C      1  0.5092820000000  0.4826890000000  0.4555850000000 1.0
C      1  0.5069670000000  0.4869690000000  0.6016940000000 1.0
C      1  0.5603810000000  0.5433080000000  0.4186270000000 1.0
C      1  0.5356150000000  0.4412840000000  0.5312680000000 1.0
C      1  0.6019440000000  0.5001180000000  0.4468260000000 1.0
C      1  0.4243650000000  0.4586490000000  0.4255380000000 1.0
C      1  0.5267940000000  0.4646530000000  0.5868870000000 1.0
C      1  0.4184480000000  0.4761110000000  0.5690640000000 1.0
C      1  0.4047000000000  0.5387660000000  0.5142180000000 1.0
C      1  0.4829440000000  0.5238360000000  0.5030410000000 1.0
C      1  0.5348740000000  0.5650890000000  0.4931930000000 1.0
C      1  0.5416750000000  0.5819600000000  0.4378970000000 1.0
C      1  0.4844340000000  0.4537940000000  0.5311160000000 1.0
C      1  0.4401650000000  0.5811900000000  0.4588790000000 1.0
C      1  0.4541290000000  0.5226930000000  0.5170770000000 1.0
C      1  0.5410430000000  0.5845760000000  0.5620620000000 1.0
C      1  0.5296880000000  0.5753440000000  0.5249400000000 1.0
C      1  0.4683010000000  0.4432120000000  0.4515560000000 1.0
C      1  0.4084960000000  0.4601960000000  0.4977960000000 1.0
C      1  0.4528840000000  0.4511600000000  0.5431620000000 1.0
C      1  0.4432620000000  0.4775940000000  0.5850240000000 1.0
C      1  0.4782610000000  0.4435150000000  0.4190470000000 1.0
C      1  0.5293720000000  0.4427000000000  0.4821080000000 1.0
C      1  0.5538370000000  0.5903700000000  0.4969160000000 1.0
C      1  0.5777380000000  0.4593680000000  0.5211790000000 1.0
C      1  0.5387760000000  0.5618300000000  0.4182060000000 1.0
C      1  0.4654550000000  0.5723770000000  0.4407070000000 1.0
C      1  0.4287490000000  0.4653740000000  0.4763510000000 1.0
C      1  0.5151960000000  0.5481350000000  0.4652740000000 1.0
C      1  0.5164750000000  0.4336790000000  0.5809880000000 1.0
C      1  0.5542250000000  0.4752440000000  0.5769940000000 1.0
C      1  0.4344110000000  0.4459960000000  0.4521220000000 1.0
C      1  0.5881660000000  0.5339130000000  0.4630470000000 1.0
C      1  0.4146660000000  0.5549850000000  0.5407710000000 1.0
C      1  0.4422870000000  0.4157640000000  0.4635540000000 1.0
C      1  0.4592310000000  0.4587060000000  0.4869010000000 1.0
C      1  0.4637820000000  0.4565140000000  0.5750090000000 1.0
C      1  0.4922680000000  0.4573350000000  0.4834440000000 1.0
C      1  0.5472620000000  0.5053640000000  0.5517370000000 1.0
C      1  0.4570750000000  0.4103080000000  0.5491480000000 1.0
C      1  0.5539590000000  0.5047760000000  0.4698680000000 1.0
C      1  0.5021340000000  0.5407400000000  0.6035990000000 1.0
C      1  0.5429910000000  0.4729510000000  0.4746540000000 1.0
C      1  0.5349380000000  0.5745390000000  0.4626440000000 1.0
C      1  0.4786870000000  0.5682900000000  0.5016280000000 1.0
C      1  0.5212770000000  0.4224450000000  0.5072050000000 1.0
C      1  0.5062680000000  0.5605460000000  0.5822960000000 1.0
C      1  0.4174700000000  0.5705490000000  0.4710620000000 1.0
C      1  0.5198670000000  0.5123230000000  0.5650930000000 1.0
C      1  0.4729950000000  0.6011850000000  0.5014780000000 1.0
C      1  0.5469240000000  0.4230790000000  0.5535080000000 1.0
C      1  0.5003440000000  0.5670420000000  0.5240550000000 1.0
C      1  0.5834130000000  0.5492170000000  0.4330260000000 1.0
C      1  0.4872830000000  0.5755310000000  0.5607180000000 1.0
C      1  0.5045510000000  0.4349960000000  0.4368050000000 1.0
C      1  0.4314590000000  0.5122670000000  0.5017070000000 1.0
C      1  0.4816980000000  0.5209030000000  0.4689950000000 1.0
C      1  0.5131370000000  0.4860990000000  0.4038290000000 1.0
C      1  0.4944200000000  0.4058980000000  0.4814340000000 1.0
C      1  0.4081480000000  0.4774800000000  0.5204040000000 1.0
C      1  0.4976180000000  0.5135340000000  0.5982520000000 1.0
C      1  0.4647870000000  0.4884360000000  0.4994030000000 1.0
C      1  0.5932060000000  0.4741080000000  0.5030540000000 1.0
C      1  0.4510780000000  0.5045180000000  0.5861670000000 1.0
C      1  0.5970280000000  0.5171300000000  0.4912650000000 1.0
C      1  0.4829640000000  0.4731600000000  0.4448840000000 1.0
C      1  0.5037330000000  0.4327310000000  0.4668450000000 1.0
C      1  0.5317040000000  0.5397750000000  0.5767060000000 1.0
C      1  0.4532950000000  0.5533610000000  0.5086000000000 1.0
C      1  0.4283280000000  0.5050820000000  0.4240950000000 1.0
C      1  0.5153750000000  0.5920170000000  0.5509210000000 1.0
C      1  0.5881940000000  0.5558810000000  0.4872600000000 1.0
C      1  0.5561460000000  0.4416090000000  0.5041500000000 1.0
C      1  0.5657040000000  0.4466070000000  0.4317190000000 1.0
C      1  0.4233100000000  0.4659180000000  0.5417600000000 1.0
C      1  0.5652210000000  0.4228570000000  0.4560670000000 1.0
C      1  0.4327790000000  0.5233510000000  0.4722690000000 1.0
C      1  0.5336000000000  0.4673730000000  0.4048110000000 1.0
C      1  0.4309850000000  0.5512210000000  0.5649210000000 1.0
C      1  0.4465880000000  0.4928710000000  0.4708560000000 1.0
C      1  0.4804700000000  0.5540140000000  0.4272000000000 1.0
C      1  0.4853690000000  0.4052380000000  0.5100880000000 1.0
C      1  0.4298260000000  0.5693460000000  0.5193210000000 1.0
C      1  0.5606460000000  0.4751820000000  0.5435910000000 1.0
C      1  0.5107300000000  0.5298870000000  0.4367440000000 1.0
C      1  0.4536190000000  0.5074040000000  0.5444160000000 1.0
C      1  0.4935160000000  0.4663000000000  0.5782830000000 1.0
C      1  0.4104270000000  0.4825320000000  0.4236670000000 1.0
C      1  0.5611910000000  0.4952340000000  0.5161310000000 1.0
END
