TITL C-2847949-8115-662 0.0015168375563364 125000 -484.513122226008 0 0 91 (C1) n - 1
REM
REM in /home/bkarasulu/work/CARBON/AIRSS/Generating-Clusters/AIREBO/with-SteepDescent/Only-C1/SD-CG-opt/Try1-1.4A-POS3A/HFTN-CG
REM
REM
REM
REM
REM
REM ./C.cell (11c1c37f851c82e70ff6c80c92926a4b)
REM
REM compiler GCC version 9.2.1 20190827 (Red Hat 9.2.1-1)
REM options -cpp -mtune=generic -march=x86-64 -g -O0 -fpre-include=/usr/include/finclude/math-vector-fortran.h
REM seed 779392902 1036805052 -1090779652 -70673823 -1741885541 1385289186 346016492 -1736098519 -849124550 -279821346 -536408091 985544063 -466117440 1155985325 -66967093 -1140881467 1602197140 1145068912 -428950550 1761312279 -1350780290 -819988235 642002984 86918969 -1208216619 1427912838 -944071409 -134388430 -40642845 -1908050888 34566921 668608649 773245187
REM
CELL 1.54180   50.00000   50.00000   50.00000   90.00000   90.00000   90.00000
LATT -1
SFAC C  
C      1  0.4491920000000  0.5524530000000  0.5231280000000 1.0
C      1  0.4941610000000  0.4984760000000  0.4546230000000 1.0
C      1  0.5652820000000  0.4563630000000  0.4467960000000 1.0
C      1  0.4798370000000  0.5207480000000  0.5312820000000 1.0
C      1  0.4084580000000  0.4885400000000  0.4193700000000 1.0
C      1  0.4780250000000  0.4535900000000  0.4439340000000 1.0
C      1  0.4382730000000  0.4565300000000  0.4781550000000 1.0
C      1  0.5124720000000  0.4745010000000  0.5815350000000 1.0
C      1  0.5356430000000  0.4690480000000  0.4448920000000 1.0
C      1  0.5657090000000  0.4828010000000  0.4867000000000 1.0
C      1  0.5093370000000  0.4638990000000  0.5267990000000 1.0
C      1  0.5006180000000  0.5165710000000  0.4124190000000 1.0
C      1  0.4883360000000  0.4575170000000  0.5698820000000 1.0
C      1  0.5088980000000  0.4894850000000  0.4072840000000 1.0
C      1  0.5071960000000  0.5644370000000  0.5134160000000 1.0
C      1  0.5107170000000  0.4877490000000  0.5025330000000 1.0
C      1  0.5225750000000  0.5388430000000  0.5754200000000 1.0
C      1  0.4323380000000  0.4950590000000  0.4693080000000 1.0
C      1  0.5566110000000  0.5021440000000  0.5624800000000 1.0
C      1  0.5447790000000  0.5341650000000  0.4450510000000 1.0
C      1  0.4601450000000  0.4948490000000  0.4906910000000 1.0
C      1  0.4614330000000  0.5371120000000  0.5693420000000 1.0
C      1  0.5753080000000  0.4980290000000  0.5343720000000 1.0
C      1  0.5442500000000  0.5017060000000  0.4730220000000 1.0
C      1  0.4934160000000  0.5387110000000  0.5579110000000 1.0
C      1  0.5287090000000  0.4177700000000  0.5185500000000 1.0
C      1  0.5226830000000  0.5336460000000  0.4180480000000 1.0
C      1  0.4611870000000  0.5340670000000  0.4454470000000 1.0
C      1  0.4665500000000  0.5753080000000  0.5383080000000 1.0
C      1  0.5452000000000  0.4866510000000  0.5276320000000 1.0
C      1  0.5624490000000  0.5539830000000  0.5121090000000 1.0
C      1  0.4952040000000  0.4985440000000  0.5889660000000 1.0
C      1  0.5281890000000  0.5109550000000  0.5357590000000 1.0
C      1  0.5305980000000  0.4365510000000  0.4481970000000 1.0
C      1  0.5059440000000  0.4690950000000  0.4556030000000 1.0
C      1  0.4947370000000  0.4923190000000  0.5297220000000 1.0
C      1  0.4947380000000  0.5527220000000  0.4605810000000 1.0
C      1  0.5852010000000  0.5002320000000  0.5066180000000 1.0
C      1  0.4370080000000  0.4692230000000  0.5542060000000 1.0
C      1  0.5266670000000  0.4404820000000  0.4985410000000 1.0
C      1  0.4335110000000  0.4404060000000  0.5378800000000 1.0
C      1  0.4991660000000  0.5909400000000  0.4740650000000 1.0
C      1  0.4445410000000  0.4269270000000  0.5198310000000 1.0
C      1  0.5374430000000  0.4889850000000  0.4106500000000 1.0
C      1  0.5040600000000  0.5064420000000  0.5591630000000 1.0
C      1  0.5800920000000  0.4660060000000  0.4649740000000 1.0
C      1  0.5481220000000  0.5307170000000  0.5641510000000 1.0
C      1  0.5370890000000  0.4800850000000  0.5668080000000 1.0
C      1  0.5523960000000  0.5437310000000  0.5396250000000 1.0
C      1  0.5537150000000  0.5631890000000  0.4849590000000 1.0
C      1  0.5231280000000  0.5686340000000  0.4836660000000 1.0
C      1  0.4929780000000  0.5663540000000  0.5430520000000 1.0
C      1  0.4648840000000  0.4929510000000  0.4596970000000 1.0
C      1  0.4807960000000  0.5180510000000  0.4330080000000 1.0
C      1  0.4567310000000  0.4996040000000  0.5382330000000 1.0
C      1  0.4239860000000  0.5371390000000  0.4900490000000 1.0
C      1  0.5004120000000  0.4594880000000  0.4881040000000 1.0
C      1  0.5098640000000  0.5373200000000  0.4841440000000 1.0
C      1  0.5165440000000  0.4278200000000  0.4701640000000 1.0
C      1  0.5378570000000  0.4587000000000  0.5433930000000 1.0
C      1  0.4696540000000  0.4662470000000  0.5009250000000 1.0
C      1  0.5758300000000  0.5214680000000  0.4869080000000 1.0
C      1  0.5426180000000  0.4281570000000  0.5454510000000 1.0
C      1  0.5172840000000  0.5538040000000  0.4412610000000 1.0
C      1  0.4706760000000  0.5359830000000  0.4780430000000 1.0
C      1  0.4576620000000  0.5239130000000  0.5066880000000 1.0
C      1  0.4842370000000  0.4346270000000  0.4714650000000 1.0
C      1  0.5131730000000  0.5076270000000  0.4787880000000 1.0
C      1  0.4236240000000  0.4803490000000  0.4975050000000 1.0
C      1  0.5267110000000  0.5392760000000  0.5199830000000 1.0
C      1  0.4242380000000  0.5000930000000  0.5443610000000 1.0
C      1  0.4932950000000  0.4679610000000  0.4177000000000 1.0
C      1  0.4454610000000  0.4749370000000  0.5217700000000 1.0
C      1  0.4248970000000  0.4849280000000  0.4384650000000 1.0
C      1  0.4961210000000  0.4435310000000  0.5466870000000 1.0
C      1  0.4440150000000  0.5552360000000  0.4693690000000 1.0
C      1  0.5174010000000  0.5960930000000  0.5197120000000 1.0
C      1  0.4579540000000  0.4363050000000  0.4930830000000 1.0
C      1  0.4677320000000  0.4911000000000  0.5927400000000 1.0
C      1  0.5784420000000  0.4494380000000  0.5046520000000 1.0
C      1  0.5646940000000  0.5433460000000  0.4664640000000 1.0
C      1  0.5452240000000  0.5260770000000  0.4967390000000 1.0
C      1  0.4265910000000  0.5110840000000  0.5118210000000 1.0
C      1  0.4614380000000  0.4694660000000  0.5743520000000 1.0
C      1  0.4488520000000  0.4647790000000  0.4495960000000 1.0
C      1  0.5114010000000  0.4197560000000  0.5454450000000 1.0
C      1  0.4725960000000  0.5748540000000  0.4720230000000 1.0
C      1  0.4754800000000  0.5594390000000  0.5021910000000 1.0
C      1  0.4437430000000  0.5288720000000  0.5464530000000 1.0
C      1  0.5448640000000  0.5014100000000  0.4400840000000 1.0
C      1  0.5486990000000  0.4614820000000  0.5050270000000 1.0
END
