TITL C-2847952-8118-6 0.00184377969210736 125000 -411.284379834492 0 0 77 (C1) n - 1
REM
REM in /home/bkarasulu/work/CARBON/AIRSS/Generating-Clusters/AIREBO/with-SteepDescent/Only-C1/SD-CG-opt/Try1-1.4A-POS3A/HFTN-CG
REM
REM
REM
REM
REM
REM ./C.cell (11c1c37f851c82e70ff6c80c92926a4b)
REM
REM compiler GCC version 9.2.1 20190827 (Red Hat 9.2.1-1)
REM options -cpp -mtune=generic -march=x86-64 -g -O0 -fpre-include=/usr/include/finclude/math-vector-fortran.h
REM seed -2126691039 -1620330361 -824024314 256555297 402081077 -277371325 -1931184981 1789299548 505620335 -1295330205 -1716694307 -943242825 1771613447 959824716 937626952 -2060752745 1705469057 1359134331 -1077939001 -1291895114 -699623867 1699225347 1493734129 1526223968 1611739282 1915886645 -753406390 -1574101410 482275882 300594640 2133749951 34401196 -915792166
REM
CELL 1.54180   50.00000   50.00000   50.00000   90.00000   90.00000   90.00000
LATT -1
SFAC C  
C      1  0.5109670000000  0.5802100000000  0.4760360000000 1.0
C      1  0.5235240000000  0.4795410000000  0.4388300000000 1.0
C      1  0.5588740000000  0.4394390000000  0.4179290000000 1.0
C      1  0.5213120000000  0.5268090000000  0.4794500000000 1.0
C      1  0.5846590000000  0.4669710000000  0.5189790000000 1.0
C      1  0.5306510000000  0.5081150000000  0.4339690000000 1.0
C      1  0.4303100000000  0.5071350000000  0.5166520000000 1.0
C      1  0.4432120000000  0.4749150000000  0.4565940000000 1.0
C      1  0.5530980000000  0.4933430000000  0.4786460000000 1.0
C      1  0.5546100000000  0.5194750000000  0.5003520000000 1.0
C      1  0.4761650000000  0.4624240000000  0.5224810000000 1.0
C      1  0.4930730000000  0.4617490000000  0.5710050000000 1.0
C      1  0.4434600000000  0.4565120000000  0.4837610000000 1.0
C      1  0.4646140000000  0.4817510000000  0.4310500000000 1.0
C      1  0.5358300000000  0.4504830000000  0.4258010000000 1.0
C      1  0.4895510000000  0.5612750000000  0.5039560000000 1.0
C      1  0.5299320000000  0.5557430000000  0.4426100000000 1.0
C      1  0.5235410000000  0.5540820000000  0.5314430000000 1.0
C      1  0.4152160000000  0.4918440000000  0.5345700000000 1.0
C      1  0.5226000000000  0.5156380000000  0.5764770000000 1.0
C      1  0.4907160000000  0.4428130000000  0.5436750000000 1.0
C      1  0.4935430000000  0.5107440000000  0.5734280000000 1.0
C      1  0.5206970000000  0.5025280000000  0.5267030000000 1.0
C      1  0.4933000000000  0.4288460000000  0.4776580000000 1.0
C      1  0.5417080000000  0.4512650000000  0.5391970000000 1.0
C      1  0.5267140000000  0.4242380000000  0.5083490000000 1.0
C      1  0.4329070000000  0.4762740000000  0.5511290000000 1.0
C      1  0.4999850000000  0.4592310000000  0.4639190000000 1.0
C      1  0.5395470000000  0.4958610000000  0.5610930000000 1.0
C      1  0.4594310000000  0.4984070000000  0.5178300000000 1.0
C      1  0.5119100000000  0.4129350000000  0.4883270000000 1.0
C      1  0.5532220000000  0.5073440000000  0.5321400000000 1.0
C      1  0.4613310000000  0.4822790000000  0.4914450000000 1.0
C      1  0.4641510000000  0.4256440000000  0.5303850000000 1.0
C      1  0.5035630000000  0.5925650000000  0.5027820000000 1.0
C      1  0.4838880000000  0.5613610000000  0.4704260000000 1.0
C      1  0.4816490000000  0.4858270000000  0.4575780000000 1.0
C      1  0.5995590000000  0.4642910000000  0.4922670000000 1.0
C      1  0.4786520000000  0.5110850000000  0.5428510000000 1.0
C      1  0.5209050000000  0.5494560000000  0.4992180000000 1.0
C      1  0.5112010000000  0.5305530000000  0.4471720000000 1.0
C      1  0.5276200000000  0.4767960000000  0.4724790000000 1.0
C      1  0.4783440000000  0.5313660000000  0.4515830000000 1.0
C      1  0.4355320000000  0.5237510000000  0.4644700000000 1.0
C      1  0.4765530000000  0.4858300000000  0.5737870000000 1.0
C      1  0.5674700000000  0.4506290000000  0.5337270000000 1.0
C      1  0.5185740000000  0.5266180000000  0.5467150000000 1.0
C      1  0.4709960000000  0.5109990000000  0.4778050000000 1.0
C      1  0.4461420000000  0.5276070000000  0.4945750000000 1.0
C      1  0.4953680000000  0.4824590000000  0.5372790000000 1.0
C      1  0.5475400000000  0.5200820000000  0.4596140000000 1.0
C      1  0.5138000000000  0.4798620000000  0.5023070000000 1.0
C      1  0.4940710000000  0.4701030000000  0.4238070000000 1.0
C      1  0.5073430000000  0.4436610000000  0.4345990000000 1.0
C      1  0.4934770000000  0.5491520000000  0.5458770000000 1.0
C      1  0.4493460000000  0.5244640000000  0.5537420000000 1.0
C      1  0.4505660000000  0.4930850000000  0.5648870000000 1.0
C      1  0.4275590000000  0.4993520000000  0.4573500000000 1.0
C      1  0.5577250000000  0.5495040000000  0.4846520000000 1.0
C      1  0.4997500000000  0.5097440000000  0.4939240000000 1.0
C      1  0.4472980000000  0.5416060000000  0.5255490000000 1.0
C      1  0.4912520000000  0.5302130000000  0.5177220000000 1.0
C      1  0.5353340000000  0.5679130000000  0.4668510000000 1.0
C      1  0.4527460000000  0.5518880000000  0.4605490000000 1.0
C      1  0.4700340000000  0.5489950000000  0.5609740000000 1.0
C      1  0.4455900000000  0.5709410000000  0.4856800000000 1.0
C      1  0.4821960000000  0.4573760000000  0.4928440000000 1.0
C      1  0.4469950000000  0.4540410000000  0.5378340000000 1.0
C      1  0.5807100000000  0.4964290000000  0.5230240000000 1.0
C      1  0.5839860000000  0.4945040000000  0.4900790000000 1.0
C      1  0.4670040000000  0.5150450000000  0.4281330000000 1.0
C      1  0.5145550000000  0.4514230000000  0.5210000000000 1.0
C      1  0.5219980000000  0.4707000000000  0.5551260000000 1.0
C      1  0.5780170000000  0.5241580000000  0.4745530000000 1.0
C      1  0.4442740000000  0.4403230000000  0.5068390000000 1.0
C      1  0.5483120000000  0.5644080000000  0.5127790000000 1.0
C      1  0.4581440000000  0.5639710000000  0.5091240000000 1.0
END
