TITL C-2848495-5024-683 0.000114770885547625 125000 -445.78996298633 0 0 84 (C1) n - 1
REM
REM in /home/bkarasulu/work/CARBON/AIRSS/Generating-Clusters/AIREBO/with-SteepDescent/Only-C1/SD-CG-opt/Try1-1.4A-POS3A/HFTN-CG
REM
REM
REM
REM
REM
REM ./C.cell (11c1c37f851c82e70ff6c80c92926a4b)
REM
REM compiler GCC version 9.2.1 20190827 (Red Hat 9.2.1-1)
REM options -cpp -mtune=generic -march=x86-64 -g -O0 -fpre-include=/usr/include/finclude/math-vector-fortran.h
REM seed 1195967824 1827396874 -128808991 657412564 517649725 1830848456 685012428 -422556112 -571555650 1500982266 -245163333 598299031 222939425 1914669848 -2053735078 926509225 676843904 -1766382084 -1161070984 1598044591 -1369839258 1683725212 527329332 690562355 770686936 -1284409696 84422924 -122610530 161104321 -1332584780 -1044942746 -1558331468 -874571085
REM
CELL 1.54180   50.00000   50.00000   50.00000   90.00000   90.00000   90.00000
LATT -1
SFAC C  
C      1  0.4692050000000  0.4644870000000  0.5969320000000 1.0
C      1  0.4852660000000  0.5213420000000  0.5380040000000 1.0
C      1  0.4488470000000  0.4921210000000  0.4815960000000 1.0
C      1  0.5026080000000  0.5008570000000  0.5874160000000 1.0
C      1  0.4765490000000  0.4841720000000  0.5789350000000 1.0
C      1  0.5567830000000  0.4970440000000  0.4507980000000 1.0
C      1  0.4917390000000  0.5336280000000  0.4671530000000 1.0
C      1  0.5194500000000  0.5472190000000  0.5662000000000 1.0
C      1  0.4522700000000  0.5769220000000  0.4742650000000 1.0
C      1  0.4811690000000  0.4521320000000  0.4948490000000 1.0
C      1  0.5204080000000  0.5167610000000  0.4313320000000 1.0
C      1  0.5455100000000  0.5358610000000  0.5573650000000 1.0
C      1  0.4737310000000  0.5576860000000  0.5497830000000 1.0
C      1  0.4541360000000  0.4425470000000  0.4653500000000 1.0
C      1  0.4765040000000  0.4827840000000  0.4990370000000 1.0
C      1  0.5296270000000  0.5844990000000  0.5020590000000 1.0
C      1  0.4361790000000  0.4634640000000  0.4683730000000 1.0
C      1  0.5206670000000  0.4622190000000  0.4988300000000 1.0
C      1  0.4577930000000  0.4929670000000  0.4487850000000 1.0
C      1  0.4502230000000  0.5251360000000  0.4831340000000 1.0
C      1  0.5397000000000  0.5568910000000  0.4865450000000 1.0
C      1  0.4547630000000  0.4234120000000  0.4878430000000 1.0
C      1  0.5161120000000  0.5766380000000  0.4718860000000 1.0
C      1  0.5060480000000  0.4912100000000  0.4260060000000 1.0
C      1  0.5651000000000  0.4918450000000  0.5492050000000 1.0
C      1  0.4843060000000  0.5737070000000  0.4350630000000 1.0
C      1  0.5288960000000  0.4813520000000  0.4571030000000 1.0
C      1  0.5001800000000  0.4499720000000  0.5433370000000 1.0
C      1  0.5211610000000  0.5295240000000  0.4818650000000 1.0
C      1  0.4544220000000  0.4923840000000  0.5595090000000 1.0
C      1  0.5678790000000  0.4845060000000  0.4788340000000 1.0
C      1  0.5499760000000  0.4660220000000  0.5443920000000 1.0
C      1  0.5593250000000  0.5384650000000  0.5052850000000 1.0
C      1  0.4996740000000  0.4902200000000  0.5180400000000 1.0
C      1  0.5324730000000  0.5590920000000  0.4474680000000 1.0
C      1  0.5776340000000  0.5107660000000  0.4978870000000 1.0
C      1  0.4392870000000  0.5555070000000  0.4771520000000 1.0
C      1  0.5344150000000  0.4451140000000  0.4728410000000 1.0
C      1  0.4905860000000  0.5408110000000  0.5670180000000 1.0
C      1  0.4309610000000  0.4914000000000  0.5110130000000 1.0
C      1  0.4785810000000  0.5520160000000  0.4909470000000 1.0
C      1  0.5255680000000  0.4951050000000  0.5743110000000 1.0
C      1  0.6057250000000  0.5111750000000  0.5031440000000 1.0
C      1  0.5245910000000  0.5704720000000  0.5300110000000 1.0
C      1  0.5692910000000  0.5345510000000  0.4730080000000 1.0
C      1  0.5167340000000  0.5179910000000  0.5096710000000 1.0
C      1  0.4875450000000  0.4189890000000  0.4902770000000 1.0
C      1  0.5125840000000  0.5392900000000  0.5338490000000 1.0
C      1  0.4479440000000  0.4368660000000  0.5128300000000 1.0
C      1  0.4799040000000  0.5783760000000  0.5083120000000 1.0
C      1  0.4613120000000  0.5325160000000  0.4530360000000 1.0
C      1  0.4489140000000  0.4677040000000  0.5376590000000 1.0
C      1  0.5492980000000  0.5091660000000  0.5661580000000 1.0
C      1  0.4870380000000  0.5022260000000  0.4753660000000 1.0
C      1  0.5421610000000  0.5274290000000  0.4551970000000 1.0
C      1  0.5387900000000  0.4820530000000  0.4246230000000 1.0
C      1  0.5264620000000  0.4127550000000  0.4835760000000 1.0
C      1  0.4236690000000  0.4587380000000  0.5174250000000 1.0
C      1  0.4659230000000  0.5301070000000  0.5114430000000 1.0
C      1  0.5511880000000  0.5492540000000  0.5328030000000 1.0
C      1  0.5492320000000  0.4564590000000  0.4444200000000 1.0
C      1  0.4850420000000  0.5769820000000  0.4687800000000 1.0
C      1  0.5028980000000  0.4037140000000  0.4638010000000 1.0
C      1  0.4205540000000  0.4824760000000  0.5492180000000 1.0
C      1  0.5330460000000  0.4895010000000  0.5120570000000 1.0
C      1  0.5221960000000  0.4406190000000  0.5231850000000 1.0
C      1  0.5605390000000  0.4963030000000  0.5206560000000 1.0
C      1  0.5597270000000  0.4587420000000  0.4910050000000 1.0
C      1  0.4153310000000  0.4714980000000  0.4883040000000 1.0
C      1  0.5082810000000  0.4331090000000  0.4546940000000 1.0
C      1  0.4859540000000  0.4538050000000  0.4612140000000 1.0
C      1  0.4908230000000  0.5734080000000  0.5327280000000 1.0
C      1  0.5071050000000  0.4765920000000  0.4742890000000 1.0
C      1  0.4510170000000  0.5416720000000  0.5381960000000 1.0
C      1  0.5142990000000  0.4144620000000  0.5107730000000 1.0
C      1  0.5211950000000  0.4718400000000  0.5533550000000 1.0
C      1  0.4930980000000  0.4906990000000  0.5499520000000 1.0
C      1  0.4748460000000  0.4511400000000  0.5282420000000 1.0
C      1  0.5538030000000  0.4524790000000  0.5186480000000 1.0
C      1  0.4408060000000  0.5102070000000  0.5351330000000 1.0
C      1  0.4834910000000  0.4790400000000  0.4385610000000 1.0
C      1  0.4313200000000  0.4935050000000  0.4270640000000 1.0
C      1  0.4476770000000  0.5198810000000  0.4306340000000 1.0
C      1  0.5029330000000  0.5524020000000  0.4429580000000 1.0
END
