TITL C-2847949-8115-519 0.00112868588538533 125000 -175.401278741837 0 0 34 (C1) n - 1
REM
REM in /home/bkarasulu/work/CARBON/AIRSS/Generating-Clusters/AIREBO/with-SteepDescent/Only-C1/SD-CG-opt/Try1-1.4A-POS3A/HFTN-CG
REM
REM
REM
REM
REM
REM ./C.cell (11c1c37f851c82e70ff6c80c92926a4b)
REM
REM compiler GCC version 9.2.1 20190827 (Red Hat 9.2.1-1)
REM options -cpp -mtune=generic -march=x86-64 -g -O0 -fpre-include=/usr/include/finclude/math-vector-fortran.h
REM seed 545779168 526594875 31603715 -1523077864 736152202 -1822927404 1332326981 889547261 904542347 1714871088 -1846943516 -525426191 989597884 1553489776 -1797195514 -2024836199 -747005379 2028166242 -712693603 -1199041040 -1967723063 -1607593975 -594414861 -462898413 -1522836721 -168777102 2038547246 -183460666 1461574060 1342119887 -1126303206 -2100901633 -2004405858
REM
CELL 1.54180   50.00000   50.00000   50.00000   90.00000   90.00000   90.00000
LATT -1
SFAC C  
C      1  0.5420290000000  0.4756550000000  0.4642900000000 1.0
C      1  0.4451020000000  0.4861800000000  0.4628460000000 1.0
C      1  0.5526170000000  0.4696960000000  0.5118560000000 1.0
C      1  0.4740670000000  0.4485470000000  0.4863630000000 1.0
C      1  0.4903230000000  0.4961840000000  0.4668660000000 1.0
C      1  0.5409280000000  0.5117810000000  0.5423420000000 1.0
C      1  0.4878420000000  0.4434190000000  0.5099790000000 1.0
C      1  0.5072410000000  0.5225320000000  0.4742800000000 1.0
C      1  0.5448330000000  0.5285390000000  0.5206590000000 1.0
C      1  0.4646190000000  0.5457270000000  0.4742490000000 1.0
C      1  0.4730490000000  0.5271450000000  0.5246500000000 1.0
C      1  0.4535210000000  0.4836500000000  0.5359360000000 1.0
C      1  0.4876940000000  0.4947150000000  0.5766380000000 1.0
C      1  0.5389090000000  0.5469500000000  0.4748070000000 1.0
C      1  0.5361620000000  0.4638500000000  0.5340030000000 1.0
C      1  0.4796710000000  0.4957480000000  0.5240310000000 1.0
C      1  0.4814320000000  0.5421420000000  0.5459200000000 1.0
C      1  0.5200210000000  0.5232960000000  0.4335250000000 1.0
C      1  0.5087890000000  0.4916250000000  0.5069460000000 1.0
C      1  0.5511690000000  0.5517350000000  0.5014490000000 1.0
C      1  0.5272700000000  0.4875580000000  0.5473130000000 1.0
C      1  0.5341380000000  0.5174200000000  0.4908190000000 1.0
C      1  0.5196320000000  0.5490380000000  0.4516500000000 1.0
C      1  0.4730190000000  0.4681220000000  0.4600740000000 1.0
C      1  0.5149270000000  0.4438600000000  0.5299450000000 1.0
C      1  0.4700090000000  0.4895680000000  0.4933590000000 1.0
C      1  0.4527110000000  0.5145600000000  0.4771980000000 1.0
C      1  0.4895700000000  0.5474380000000  0.4644300000000 1.0
C      1  0.4464280000000  0.4654860000000  0.4888600000000 1.0
C      1  0.5376910000000  0.4860870000000  0.4898570000000 1.0
C      1  0.4972180000000  0.4868820000000  0.5517730000000 1.0
C      1  0.4878680000000  0.4592490000000  0.5381760000000 1.0
C      1  0.4576530000000  0.5353530000000  0.5034130000000 1.0
C      1  0.5118470000000  0.5002640000000  0.4414980000000 1.0
END
