TITL C-2847953-8112-597 373.522118964566 125000 -781.784099513776 0 0 140 (C1) n - 1
REM
REM in /home/bkarasulu/work/CARBON/AIRSS/Generating-Clusters/AIREBO/with-SteepDescent/Only-C1/SD-CG-opt/Try1-1.4A-POS3A/HFTN-CG
REM
REM
REM
REM
REM
REM ./C.cell (11c1c37f851c82e70ff6c80c92926a4b)
REM
REM compiler GCC version 9.2.1 20190827 (Red Hat 9.2.1-1)
REM options -cpp -mtune=generic -march=x86-64 -g -O0 -fpre-include=/usr/include/finclude/math-vector-fortran.h
REM seed -937506596 1761633986 593546396 489304433 -582972961 -1558490617 1201578163 1994158429 296250737 -1552010455 -1142813026 1108000716 -811666870 330571669 -431603594 199559175 777252121 -569725589 784833885 819989386 854901961 990889973 563088973 -487458803 726577899 646094588 -954123851 1531802430 44045887 1599212202 319917600 2095288306 2051207289
REM
CELL 1.54180   50.00000   50.00000   50.00000   90.00000   90.00000   90.00000
LATT -1
SFAC C  
C      1  0.4827240000000  0.5234070000000  0.4512330000000 1.0
C      1  0.5143320000000  0.5309160000000  0.4062160000000 1.0
C      1  0.5588140000000  0.4431840000000  0.4847800000000 1.0
C      1  0.4328860000000  0.5468570000000  0.4376730000000 1.0
C      1  0.4947820000000  0.4565360000000  0.5468060000000 1.0
C      1  0.4337800000000  0.4275020000000  0.4556500000000 1.0
C      1  0.4694900000000  0.4576270000000  0.4336370000000 1.0
C      1  0.5222600000000  0.5686530000000  0.6000360000000 1.0
C      1  0.4017410000000  0.5463210000000  0.4976680000000 1.0
C      1  0.4825340000000  0.5533050000000  0.4350190000000 1.0
C      1  0.4895670000000  0.4506210000000  0.5796540000000 1.0
C      1  0.5649480000000  0.5025630000000  0.4395450000000 1.0
C      1  0.4550490000000  0.5612530000000  0.5544450000000 1.0
C      1  0.4277320000000  0.5384020000000  0.5135490000000 1.0
C      1  0.5181160000000  0.4454540000000  0.4335720000000 1.0
C      1  0.5150880000000  0.5131980000000  0.4491130000000 1.0
C      1  0.4530720000000  0.5247170000000  0.5704870000000 1.0
C      1  0.5117330000000  0.5264430000000  0.5230110000000 1.0
C      1  0.4560330000000  0.5514180000000  0.4187300000000 1.0
C      1  0.4059360000000  0.5023640000000  0.4472190000000 1.0
C      1  0.5811920000000  0.5019580000000  0.5792030000000 1.0
C      1  0.4701790000000  0.4296990000000  0.5633200000000 1.0
C      1  0.5984140000000  0.5332590000000  0.4821210000000 1.0
C      1  0.4907770000000  0.5154940000000  0.4019290000000 1.0
C      1  0.5681630000000  0.4529210000000  0.5744550000000 1.0
C      1  0.4938000000000  0.5274300000000  0.6000040000000 1.0
C      1  0.5084050000000  0.4834030000000  0.4613750000000 1.0
C      1  0.4719510000000  0.5386840000000  0.5889030000000 1.0
C      1  0.4992700000000  0.4734280000000  0.4292120000000 1.0
C      1  0.5236680000000  0.4633500000000  0.5201390000000 1.0
C      1  0.5492210000000  0.5657310000000  0.5425630000000 1.0
C      1  0.3860330000000  0.4929850000000  0.4652920000000 1.0
C      1  0.4266460000000  0.5582890000000  0.5361350000000 1.0
C      1  0.5202970000000  0.4240630000000  0.5006950000000 1.0
C      1  0.5549990000000  0.4361950000000  0.5325130000000 1.0
C      1  0.4369110000000  0.4578830000000  0.4811830000000 1.0
C      1  0.4997180000000  0.4390930000000  0.5180370000000 1.0
C      1  0.5016170000000  0.4963270000000  0.5150810000000 1.0
C      1  0.4429980000000  0.5551680000000  0.4690540000000 1.0
C      1  0.4638130000000  0.5161770000000  0.5415590000000 1.0
C      1  0.3895940000000  0.5001090000000  0.4925500000000 1.0
C      1  0.4817510000000  0.5022170000000  0.4246600000000 1.0
C      1  0.6171730000000  0.5121010000000  0.4671870000000 1.0
C      1  0.4523350000000  0.4798680000000  0.5537980000000 1.0
C      1  0.5410350000000  0.4826130000000  0.5978130000000 1.0
C      1  0.4495800000000  0.4059630000000  0.5042110000000 1.0
C      1  0.5915830000000  0.4625460000000  0.4242690000000 1.0
C      1  0.5710550000000  0.5468530000000  0.5572040000000 1.0
C      1  0.4615340000000  0.5800240000000  0.4724420000000 1.0
C      1  0.5069390000000  0.5832640000000  0.4852440000000 1.0
C      1  0.4193380000000  0.5251970000000  0.4575420000000 1.0
C      1  0.5320920000000  0.4850050000000  0.4095850000000 1.0
C      1  0.4689680000000  0.3983500000000  0.5304920000000 1.0
C      1  0.4367950000000  0.4897470000000  0.4693200000000 1.0
C      1  0.5399180000000  0.5337320000000  0.5357970000000 1.0
C      1  0.5097600000000  0.5547160000000  0.4210150000000 1.0
C      1  0.6281370000000  0.4415330000000  0.5334420000000 1.0
C      1  0.4515780000000  0.4408730000000  0.5456710000000 1.0
C      1  0.5710260000000  0.4940730000000  0.4948480000000 1.0
C      1  0.5475450000000  0.4295210000000  0.5060530000000 1.0
C      1  0.4874730000000  0.5623680000000  0.4990780000000 1.0
C      1  0.4213490000000  0.5130350000000  0.5741740000000 1.0
C      1  0.5217820000000  0.4815910000000  0.4919820000000 1.0
C      1  0.5407440000000  0.6009310000000  0.4494210000000 1.0
C      1  0.6004740000000  0.5022720000000  0.4951660000000 1.0
C      1  0.5632180000000  0.5253420000000  0.4605270000000 1.0
C      1  0.5563260000000  0.5384450000000  0.4110810000000 1.0
C      1  0.5601380000000  0.5393070000000  0.5122370000000 1.0
C      1  0.5558450000000  0.4319300000000  0.4587580000000 1.0
C      1  0.6031700000000  0.4413100000000  0.5414050000000 1.0
C      1  0.5370900000000  0.5131450000000  0.4231610000000 1.0
C      1  0.5384070000000  0.4653570000000  0.4274450000000 1.0
C      1  0.4261560000000  0.5164940000000  0.4875110000000 1.0
C      1  0.5101970000000  0.4217480000000  0.4743510000000 1.0
C      1  0.5722350000000  0.4481840000000  0.4396930000000 1.0
C      1  0.5277440000000  0.4273740000000  0.4525860000000 1.0
C      1  0.3819730000000  0.5264150000000  0.5002590000000 1.0
C      1  0.5669700000000  0.5210930000000  0.5644200000000 1.0
C      1  0.5125110000000  0.5875570000000  0.4555740000000 1.0
C      1  0.5314590000000  0.5627280000000  0.4430110000000 1.0
C      1  0.4447850000000  0.4357870000000  0.4324280000000 1.0
C      1  0.4108290000000  0.5679660000000  0.4491560000000 1.0
C      1  0.4924900000000  0.5166170000000  0.4893570000000 1.0
C      1  0.4166930000000  0.4900780000000  0.5060340000000 1.0
C      1  0.4269340000000  0.4840840000000  0.4382540000000 1.0
C      1  0.5522770000000  0.5182270000000  0.4907150000000 1.0
C      1  0.4494260000000  0.4743830000000  0.6011990000000 1.0
C      1  0.4363080000000  0.5099130000000  0.5254840000000 1.0
C      1  0.5678920000000  0.4784150000000  0.5872430000000 1.0
C      1  0.5025750000000  0.5645400000000  0.5294720000000 1.0
C      1  0.5558080000000  0.4742540000000  0.4521470000000 1.0
C      1  0.4775280000000  0.5649560000000  0.5751280000000 1.0
C      1  0.5637000000000  0.5726600000000  0.4474340000000 1.0
C      1  0.5220670000000  0.5344960000000  0.4916360000000 1.0
C      1  0.4305300000000  0.4706550000000  0.5298290000000 1.0
C      1  0.5194320000000  0.5669100000000  0.5507580000000 1.0
C      1  0.4832390000000  0.4625870000000  0.4640090000000 1.0
C      1  0.4657040000000  0.4712830000000  0.4892980000000 1.0
C      1  0.4826360000000  0.5780160000000  0.4540220000000 1.0
C      1  0.6154150000000  0.5021510000000  0.4426830000000 1.0
C      1  0.4729860000000  0.4272570000000  0.5149330000000 1.0
C      1  0.5259200000000  0.4140840000000  0.5651330000000 1.0
C      1  0.4806960000000  0.5385200000000  0.5300890000000 1.0
C      1  0.5181070000000  0.4689250000000  0.5767620000000 1.0
C      1  0.5069500000000  0.4790070000000  0.3965450000000 1.0
C      1  0.4550740000000  0.4271810000000  0.4794490000000 1.0
C      1  0.4573310000000  0.4554270000000  0.5154740000000 1.0
C      1  0.4692750000000  0.4995860000000  0.4714320000000 1.0
C      1  0.4219310000000  0.4208270000000  0.5077510000000 1.0
C      1  0.4733070000000  0.4614430000000  0.6036090000000 1.0
C      1  0.5629150000000  0.5612590000000  0.4183460000000 1.0
C      1  0.4833770000000  0.4883900000000  0.5428410000000 1.0
C      1  0.4640640000000  0.5675570000000  0.5231910000000 1.0
C      1  0.5812280000000  0.5544340000000  0.4995840000000 1.0
C      1  0.4589550000000  0.5900060000000  0.4981690000000 1.0
C      1  0.4996410000000  0.4966520000000  0.5703590000000 1.0
C      1  0.5785290000000  0.5531230000000  0.4649800000000 1.0
C      1  0.5260120000000  0.4430810000000  0.5473560000000 1.0
C      1  0.5379710000000  0.5117910000000  0.5580590000000 1.0
C      1  0.5272830000000  0.5665730000000  0.4981420000000 1.0
C      1  0.6158470000000  0.4921650000000  0.5158430000000 1.0
C      1  0.4158520000000  0.4331140000000  0.4825320000000 1.0
C      1  0.4221070000000  0.4374690000000  0.5307140000000 1.0
C      1  0.5099660000000  0.5564060000000  0.5777100000000 1.0
C      1  0.5526680000000  0.4732700000000  0.4830970000000 1.0
C      1  0.4406330000000  0.4876450000000  0.5784930000000 1.0
C      1  0.5471610000000  0.5769990000000  0.5134950000000 1.0
C      1  0.4733750000000  0.4022490000000  0.5570960000000 1.0
C      1  0.4151110000000  0.4960970000000  0.5480880000000 1.0
C      1  0.4108370000000  0.5623330000000  0.4776580000000 1.0
C      1  0.4450730000000  0.4742420000000  0.4217410000000 1.0
C      1  0.5767280000000  0.4436140000000  0.5488100000000 1.0
C      1  0.5930060000000  0.4903050000000  0.4309630000000 1.0
C      1  0.5332200000000  0.5361710000000  0.4598970000000 1.0
C      1  0.5293550000000  0.4826160000000  0.5477240000000 1.0
C      1  0.5396670000000  0.4426870000000  0.5784920000000 1.0
C      1  0.5156360000000  0.5228820000000  0.5769960000000 1.0
C      1  0.4840990000000  0.4319980000000  0.4716580000000 1.0
C      1  0.4270490000000  0.5451490000000  0.5663960000000 1.0
C      1  0.4731080000000  0.5422770000000  0.4783020000000 1.0
END
