TITL C-2847951-7423-271 -0.00172867765697446 125000 -930.955503189322 0 0 174 (C1) n - 1
REM
REM in /home/bkarasulu/work/CARBON/AIRSS/Generating-Clusters/AIREBO/with-SteepDescent/Only-C1/SD-CG-opt/Try1-1.4A-POS3A/HFTN-CG
REM
REM
REM
REM
REM
REM ./C.cell (11c1c37f851c82e70ff6c80c92926a4b)
REM
REM compiler GCC version 9.2.1 20190827 (Red Hat 9.2.1-1)
REM options -cpp -mtune=generic -march=x86-64 -g -O0 -fpre-include=/usr/include/finclude/math-vector-fortran.h
REM seed -1178900140 -1568433325 1375089458 1150173081 -731576059 935115582 2110553418 -1149451600 -1559489263 -1520122293 -2128307120 454410535 -2033204582 -31365716 547622238 -1484020953 -2031134288 247635623 1155516364 1707765663 -107873387 1489744259 2360670 197905884 293187946 -953626804 -1193413546 1308213718 -365405867 1971355789 -45159201 1349318660 -891585566
REM
CELL 1.54180   50.00000   50.00000   50.00000   90.00000   90.00000   90.00000
LATT -1
SFAC C  
C      1  0.4342170000000  0.4432480000000  0.4271070000000 1.0
C      1  0.5429220000000  0.5890770000000  0.5602170000000 1.0
C      1  0.4793070000000  0.4037850000000  0.5002970000000 1.0
C      1  0.4401330000000  0.5128960000000  0.5589000000000 1.0
C      1  0.4848190000000  0.5253930000000  0.5493570000000 1.0
C      1  0.5299440000000  0.5671330000000  0.5266260000000 1.0
C      1  0.4305910000000  0.5543300000000  0.4384400000000 1.0
C      1  0.4788670000000  0.4729260000000  0.4730750000000 1.0
C      1  0.5350950000000  0.5612400000000  0.5713380000000 1.0
C      1  0.5473350000000  0.4398720000000  0.5479820000000 1.0
C      1  0.5813860000000  0.4658530000000  0.4809140000000 1.0
C      1  0.4531540000000  0.5368380000000  0.3984380000000 1.0
C      1  0.5889380000000  0.4394230000000  0.4984270000000 1.0
C      1  0.5973540000000  0.5349640000000  0.4844610000000 1.0
C      1  0.5632740000000  0.5220900000000  0.5011860000000 1.0
C      1  0.4960480000000  0.4817360000000  0.6160220000000 1.0
C      1  0.5070810000000  0.4197740000000  0.5401540000000 1.0
C      1  0.4313440000000  0.5559060000000  0.4129900000000 1.0
C      1  0.4204350000000  0.4891160000000  0.4160840000000 1.0
C      1  0.5506190000000  0.4110880000000  0.4704450000000 1.0
C      1  0.6021090000000  0.5283900000000  0.5135350000000 1.0
C      1  0.5065420000000  0.5059580000000  0.4918390000000 1.0
C      1  0.5253570000000  0.4548480000000  0.5269490000000 1.0
C      1  0.4378800000000  0.4613030000000  0.5350170000000 1.0
C      1  0.4226710000000  0.5613760000000  0.5069090000000 1.0
C      1  0.4922130000000  0.4906970000000  0.4202290000000 1.0
C      1  0.4587090000000  0.6219760000000  0.4769250000000 1.0
C      1  0.6032590000000  0.5663210000000  0.4770950000000 1.0
C      1  0.4297380000000  0.4160500000000  0.5207320000000 1.0
C      1  0.5325840000000  0.4525620000000  0.5949090000000 1.0
C      1  0.5271570000000  0.5858340000000  0.4914140000000 1.0
C      1  0.5464710000000  0.5546360000000  0.6027060000000 1.0
C      1  0.5144990000000  0.5712310000000  0.4542900000000 1.0
C      1  0.5796980000000  0.4826250000000  0.4394720000000 1.0
C      1  0.4383680000000  0.5440160000000  0.5548210000000 1.0
C      1  0.4870390000000  0.5528480000000  0.4898010000000 1.0
C      1  0.5608090000000  0.5400020000000  0.4431930000000 1.0
C      1  0.5506560000000  0.5894030000000  0.4355290000000 1.0
C      1  0.4424270000000  0.3964640000000  0.4744700000000 1.0
C      1  0.5390110000000  0.5433720000000  0.5101000000000 1.0
C      1  0.4081890000000  0.4425720000000  0.4326590000000 1.0
C      1  0.3637980000000  0.5514440000000  0.5383870000000 1.0
C      1  0.4863290000000  0.5248220000000  0.4445460000000 1.0
C      1  0.4722250000000  0.5574520000000  0.4264810000000 1.0
C      1  0.5319640000000  0.5759550000000  0.4186640000000 1.0
C      1  0.5123420000000  0.5621740000000  0.3976830000000 1.0
C      1  0.5333890000000  0.4457110000000  0.4201480000000 1.0
C      1  0.5343890000000  0.4059110000000  0.5148100000000 1.0
C      1  0.4254140000000  0.4675450000000  0.5831680000000 1.0
C      1  0.5125950000000  0.4510560000000  0.4424070000000 1.0
C      1  0.5223430000000  0.5342670000000  0.5968920000000 1.0
C      1  0.5348440000000  0.4308870000000  0.6119140000000 1.0
C      1  0.5116200000000  0.4474510000000  0.4967120000000 1.0
C      1  0.5556920000000  0.5867610000000  0.5305440000000 1.0
C      1  0.4241330000000  0.4139330000000  0.4900560000000 1.0
C      1  0.5496460000000  0.5978390000000  0.4689150000000 1.0
C      1  0.5056720000000  0.4157770000000  0.5076060000000 1.0
C      1  0.5375360000000  0.3804390000000  0.5242820000000 1.0
C      1  0.5558870000000  0.4572290000000  0.5750950000000 1.0
C      1  0.5696760000000  0.5119290000000  0.4291770000000 1.0
C      1  0.3934480000000  0.4478380000000  0.4569160000000 1.0
C      1  0.3737450000000  0.5018910000000  0.4780280000000 1.0
C      1  0.4534250000000  0.4695580000000  0.4270170000000 1.0
C      1  0.4851580000000  0.4336750000000  0.4429930000000 1.0
C      1  0.4744060000000  0.4887870000000  0.3845760000000 1.0
C      1  0.5673900000000  0.4966800000000  0.4842170000000 1.0
C      1  0.3892130000000  0.5440020000000  0.5338030000000 1.0
C      1  0.4918580000000  0.4059170000000  0.4550470000000 1.0
C      1  0.4233940000000  0.4347420000000  0.5413960000000 1.0
C      1  0.5800590000000  0.5807150000000  0.4883350000000 1.0
C      1  0.4539360000000  0.4518540000000  0.5846310000000 1.0
C      1  0.4432760000000  0.5087460000000  0.5267050000000 1.0
C      1  0.5759440000000  0.4659410000000  0.5253260000000 1.0
C      1  0.4493880000000  0.4852770000000  0.4004300000000 1.0
C      1  0.5399300000000  0.5179740000000  0.4552850000000 1.0
C      1  0.4788800000000  0.5163510000000  0.4758170000000 1.0
C      1  0.4157710000000  0.4385760000000  0.5680960000000 1.0
C      1  0.5159450000000  0.5244870000000  0.5184430000000 1.0
C      1  0.5543270000000  0.4885970000000  0.5707150000000 1.0
C      1  0.4596390000000  0.4293800000000  0.5969230000000 1.0
C      1  0.5476180000000  0.5652760000000  0.4593110000000 1.0
C      1  0.5671120000000  0.5505560000000  0.4829620000000 1.0
C      1  0.5177570000000  0.5233320000000  0.5484610000000 1.0
C      1  0.5644680000000  0.4387270000000  0.4310780000000 1.0
C      1  0.6106040000000  0.5045200000000  0.5521920000000 1.0
C      1  0.5025890000000  0.5599900000000  0.5415740000000 1.0
C      1  0.4648310000000  0.4057360000000  0.6069650000000 1.0
C      1  0.3838860000000  0.4736000000000  0.4663370000000 1.0
C      1  0.5738090000000  0.4922340000000  0.5427010000000 1.0
C      1  0.4875980000000  0.5887450000000  0.4570970000000 1.0
C      1  0.5984740000000  0.5293660000000  0.5599510000000 1.0
C      1  0.5578960000000  0.5971950000000  0.5017910000000 1.0
C      1  0.4715700000000  0.4851390000000  0.4467040000000 1.0
C      1  0.4060990000000  0.5329730000000  0.5534750000000 1.0
C      1  0.4238310000000  0.5021830000000  0.4476370000000 1.0
C      1  0.5298070000000  0.4391180000000  0.4691970000000 1.0
C      1  0.5262060000000  0.4882580000000  0.5313120000000 1.0
C      1  0.4834620000000  0.4630380000000  0.4017360000000 1.0
C      1  0.5155300000000  0.5182820000000  0.4369960000000 1.0
C      1  0.4866510000000  0.5426870000000  0.3994490000000 1.0
C      1  0.5577450000000  0.4554750000000  0.4587620000000 1.0
C      1  0.4722100000000  0.3968860000000  0.4737060000000 1.0
C      1  0.4521650000000  0.5082620000000  0.4563950000000 1.0
C      1  0.4858410000000  0.4602550000000  0.5139160000000 1.0
C      1  0.4581320000000  0.5417710000000  0.4531690000000 1.0
C      1  0.5999590000000  0.4971780000000  0.5214430000000 1.0
C      1  0.5516480000000  0.5110700000000  0.5299750000000 1.0
C      1  0.4693580000000  0.5965330000000  0.4776580000000 1.0
C      1  0.4365510000000  0.5170550000000  0.4205520000000 1.0
C      1  0.4797290000000  0.5445050000000  0.5217010000000 1.0
C      1  0.4009940000000  0.5063620000000  0.5594880000000 1.0
C      1  0.5225100000000  0.4803730000000  0.6068980000000 1.0
C      1  0.4934200000000  0.6188050000000  0.5222140000000 1.0
C      1  0.4674960000000  0.4407580000000  0.4196050000000 1.0
C      1  0.5147520000000  0.5569060000000  0.4817790000000 1.0
C      1  0.4684760000000  0.4916380000000  0.5418220000000 1.0
C      1  0.5528310000000  0.4558670000000  0.5100390000000 1.0
C      1  0.5026620000000  0.5514190000000  0.5745590000000 1.0
C      1  0.5581780000000  0.4689770000000  0.4168860000000 1.0
C      1  0.4018470000000  0.5181450000000  0.4895060000000 1.0
C      1  0.6064270000000  0.4850420000000  0.4936260000000 1.0
C      1  0.4697900000000  0.5797780000000  0.5528330000000 1.0
C      1  0.5533170000000  0.4242880000000  0.5080390000000 1.0
C      1  0.4685390000000  0.4524940000000  0.5421410000000 1.0
C      1  0.5479920000000  0.4866330000000  0.4510920000000 1.0
C      1  0.4685570000000  0.5202520000000  0.5855640000000 1.0
C      1  0.4714280000000  0.5140980000000  0.5089230000000 1.0
C      1  0.4770980000000  0.5863370000000  0.5255950000000 1.0
C      1  0.5614960000000  0.5280880000000  0.5984290000000 1.0
C      1  0.5229770000000  0.4937900000000  0.5624850000000 1.0
C      1  0.4167650000000  0.4637760000000  0.4867270000000 1.0
C      1  0.5490400000000  0.5068910000000  0.4086320000000 1.0
C      1  0.5133660000000  0.5498130000000  0.4294200000000 1.0
C      1  0.5145360000000  0.4848990000000  0.4452650000000 1.0
C      1  0.5487530000000  0.5368850000000  0.5519290000000 1.0
C      1  0.5954190000000  0.4426500000000  0.5297000000000 1.0
C      1  0.5086070000000  0.5909530000000  0.5170670000000 1.0
C      1  0.4743150000000  0.4839240000000  0.6008820000000 1.0
C      1  0.5280190000000  0.4848720000000  0.4140400000000 1.0
C      1  0.4107860000000  0.4913450000000  0.4710910000000 1.0
C      1  0.4943100000000  0.4908160000000  0.5197320000000 1.0
C      1  0.5186430000000  0.4078240000000  0.4619300000000 1.0
C      1  0.4629530000000  0.4455530000000  0.4988350000000 1.0
C      1  0.4392450000000  0.4659620000000  0.5048230000000 1.0
C      1  0.4759490000000  0.4724510000000  0.5689010000000 1.0
C      1  0.5737700000000  0.5290380000000  0.5732910000000 1.0
C      1  0.4694310000000  0.5497070000000  0.5674710000000 1.0
C      1  0.5293980000000  0.5283820000000  0.4811100000000 1.0
C      1  0.4679620000000  0.5145630000000  0.4203310000000 1.0
C      1  0.4712740000000  0.4432510000000  0.4685650000000 1.0
C      1  0.4094020000000  0.4360160000000  0.4795270000000 1.0
C      1  0.5005810000000  0.4481370000000  0.5490300000000 1.0
C      1  0.5121780000000  0.4758830000000  0.4779910000000 1.0
C      1  0.5700810000000  0.5583050000000  0.5363610000000 1.0
C      1  0.4752950000000  0.5839000000000  0.4317160000000 1.0
C      1  0.4340990000000  0.5239980000000  0.4986140000000 1.0
C      1  0.5784460000000  0.4403870000000  0.5556240000000 1.0
C      1  0.4248550000000  0.4830020000000  0.5535110000000 1.0
C      1  0.4537700000000  0.5466070000000  0.4865680000000 1.0
C      1  0.5743430000000  0.4148450000000  0.4880660000000 1.0
C      1  0.4958540000000  0.5106050000000  0.3928850000000 1.0
C      1  0.5791830000000  0.5184590000000  0.4620180000000 1.0
C      1  0.5439590000000  0.4765650000000  0.4895520000000 1.0
C      1  0.6039640000000  0.4799940000000  0.4597740000000 1.0
C      1  0.4467060000000  0.4941370000000  0.5849900000000 1.0
C      1  0.4583960000000  0.5774010000000  0.5003030000000 1.0
C      1  0.5958240000000  0.5454010000000  0.5358570000000 1.0
C      1  0.4614160000000  0.4850980000000  0.4942650000000 1.0
C      1  0.5073670000000  0.4621260000000  0.5768300000000 1.0
C      1  0.4578510000000  0.4185590000000  0.5110640000000 1.0
C      1  0.5394960000000  0.5044010000000  0.5970630000000 1.0
C      1  0.4013140000000  0.5443320000000  0.5084490000000 1.0
C      1  0.4929810000000  0.5018260000000  0.5707230000000 1.0
C      1  0.4492960000000  0.5577230000000  0.5265080000000 1.0
END
