TITL C-2848508-1660-753 0.00329578351271965 125000 -936.686323239419 0 0 178 (C1) n - 1
REM
REM in /home/bkarasulu/work/CARBON/AIRSS/Generating-Clusters/AIREBO/with-SteepDescent/Only-C1/SD-CG-opt/Try1-1.4A-POS3A/HFTN-CG
REM
REM
REM
REM
REM
REM ./C.cell (11c1c37f851c82e70ff6c80c92926a4b)
REM
REM compiler GCC version 9.2.1 20190827 (Red Hat 9.2.1-1)
REM options -cpp -mtune=generic -march=x86-64 -g -O0 -fpre-include=/usr/include/finclude/math-vector-fortran.h
REM seed 1168072283 -2045143411 366754490 -2096020102 697375620 -757966794 -1839964496 2061244802 686818492 1096326989 1126661547 -1657652301 -499462571 -1462104485 983628552 -190303041 1600893808 1795389072 -326249361 -106076595 242166413 976052639 -135159180 1931531349 -788608694 -580588505 -1969452842 -1345213082 -1284311301 -167058291 -664102022 499998946 -429497160
REM
CELL 1.54180   50.00000   50.00000   50.00000   90.00000   90.00000   90.00000
LATT -1
SFAC C  
C      1  0.4719180000000  0.5576300000000  0.5425270000000 1.0
C      1  0.5347520000000  0.4543300000000  0.5877100000000 1.0
C      1  0.4503000000000  0.4866420000000  0.5474440000000 1.0
C      1  0.5113960000000  0.5585420000000  0.5722450000000 1.0
C      1  0.5408040000000  0.4302370000000  0.5326100000000 1.0
C      1  0.4618120000000  0.4373210000000  0.4883690000000 1.0
C      1  0.4742150000000  0.5889020000000  0.4454970000000 1.0
C      1  0.4906080000000  0.5091990000000  0.3859600000000 1.0
C      1  0.4489360000000  0.5386400000000  0.4683040000000 1.0
C      1  0.4965050000000  0.5365100000000  0.4054370000000 1.0
C      1  0.5279510000000  0.4378040000000  0.4005260000000 1.0
C      1  0.5141690000000  0.5515590000000  0.4579590000000 1.0
C      1  0.4948320000000  0.5777120000000  0.5274170000000 1.0
C      1  0.5339010000000  0.3955390000000  0.4772110000000 1.0
C      1  0.4502730000000  0.4740680000000  0.5744760000000 1.0
C      1  0.4562180000000  0.4466500000000  0.5746200000000 1.0
C      1  0.4236450000000  0.4682810000000  0.5143580000000 1.0
C      1  0.5357990000000  0.5360720000000  0.4795350000000 1.0
C      1  0.5387980000000  0.5233470000000  0.6060600000000 1.0
C      1  0.4788760000000  0.4780670000000  0.3863780000000 1.0
C      1  0.5699900000000  0.5601580000000  0.5815730000000 1.0
C      1  0.4508360000000  0.4913380000000  0.5973600000000 1.0
C      1  0.4173000000000  0.4314000000000  0.5281470000000 1.0
C      1  0.4592070000000  0.4576150000000  0.4248790000000 1.0
C      1  0.5299810000000  0.4849860000000  0.5072610000000 1.0
C      1  0.4774030000000  0.4230120000000  0.5224530000000 1.0
C      1  0.5143920000000  0.5316260000000  0.5143690000000 1.0
C      1  0.4276020000000  0.5832300000000  0.5324740000000 1.0
C      1  0.5596230000000  0.5595340000000  0.4292150000000 1.0
C      1  0.5118520000000  0.3921220000000  0.5028820000000 1.0
C      1  0.4941990000000  0.3983330000000  0.4500330000000 1.0
C      1  0.4699630000000  0.4721220000000  0.5259270000000 1.0
C      1  0.5376780000000  0.5531940000000  0.5895470000000 1.0
C      1  0.5500020000000  0.5450110000000  0.5586110000000 1.0
C      1  0.4603610000000  0.5018930000000  0.5011090000000 1.0
C      1  0.5375960000000  0.4400200000000  0.4586520000000 1.0
C      1  0.5862270000000  0.4296820000000  0.4633160000000 1.0
C      1  0.4221220000000  0.5274690000000  0.4336020000000 1.0
C      1  0.5037250000000  0.4921640000000  0.5774120000000 1.0
C      1  0.5009440000000  0.4299390000000  0.5346150000000 1.0
C      1  0.5487270000000  0.4806580000000  0.5555540000000 1.0
C      1  0.4420270000000  0.4370350000000  0.5508040000000 1.0
C      1  0.6156130000000  0.4679530000000  0.4586540000000 1.0
C      1  0.4212060000000  0.4936130000000  0.5371800000000 1.0
C      1  0.5046460000000  0.4657110000000  0.5953560000000 1.0
C      1  0.4618590000000  0.4095750000000  0.4500540000000 1.0
C      1  0.5017940000000  0.5825810000000  0.4643680000000 1.0
C      1  0.5425120000000  0.4401910000000  0.5650950000000 1.0
C      1  0.4828600000000  0.4415510000000  0.5857790000000 1.0
C      1  0.4228740000000  0.5676650000000  0.5034110000000 1.0
C      1  0.5032990000000  0.5554270000000  0.5031730000000 1.0
C      1  0.5625360000000  0.4428600000000  0.4823030000000 1.0
C      1  0.5540830000000  0.5996070000000  0.5027490000000 1.0
C      1  0.4399770000000  0.5286210000000  0.5765190000000 1.0
C      1  0.4709270000000  0.5560320000000  0.4044190000000 1.0
C      1  0.4810880000000  0.5716660000000  0.4890520000000 1.0
C      1  0.5686390000000  0.4761960000000  0.4795020000000 1.0
C      1  0.4747770000000  0.6050790000000  0.4892770000000 1.0
C      1  0.5821000000000  0.5222580000000  0.5463160000000 1.0
C      1  0.5749610000000  0.4363800000000  0.5122770000000 1.0
C      1  0.4376720000000  0.4190660000000  0.5038800000000 1.0
C      1  0.4182310000000  0.5140230000000  0.4610700000000 1.0
C      1  0.4298890000000  0.4208090000000  0.4467670000000 1.0
C      1  0.4654340000000  0.5115980000000  0.5304900000000 1.0
C      1  0.5354620000000  0.5831610000000  0.4248950000000 1.0
C      1  0.4581910000000  0.4040090000000  0.4813320000000 1.0
C      1  0.4440840000000  0.4842290000000  0.4676050000000 1.0
C      1  0.4695260000000  0.4678990000000  0.4556090000000 1.0
C      1  0.3805970000000  0.5359670000000  0.5319390000000 1.0
C      1  0.4148080000000  0.4947870000000  0.4956740000000 1.0
C      1  0.5811830000000  0.5614940000000  0.4917950000000 1.0
C      1  0.4726960000000  0.5057310000000  0.4141460000000 1.0
C      1  0.5444640000000  0.5569700000000  0.5307310000000 1.0
C      1  0.5592750000000  0.4814430000000  0.4485230000000 1.0
C      1  0.4552260000000  0.5930840000000  0.4676720000000 1.0
C      1  0.5053580000000  0.4837700000000  0.4486510000000 1.0
C      1  0.4993790000000  0.5096280000000  0.5309110000000 1.0
C      1  0.5694190000000  0.5298360000000  0.5952470000000 1.0
C      1  0.3889410000000  0.5148040000000  0.5469120000000 1.0
C      1  0.5017510000000  0.4921270000000  0.6172390000000 1.0
C      1  0.4960040000000  0.4708330000000  0.4767860000000 1.0
C      1  0.4281540000000  0.5587070000000  0.4416760000000 1.0
C      1  0.5097530000000  0.4115420000000  0.5560220000000 1.0
C      1  0.5272040000000  0.5167790000000  0.5770150000000 1.0
C      1  0.5108810000000  0.4523970000000  0.4245440000000 1.0
C      1  0.4527520000000  0.4690280000000  0.4967680000000 1.0
C      1  0.4453720000000  0.5346180000000  0.4098440000000 1.0
C      1  0.5677100000000  0.5128500000000  0.4352540000000 1.0
C      1  0.4005980000000  0.5436490000000  0.5078620000000 1.0
C      1  0.4589680000000  0.4426470000000  0.5278850000000 1.0
C      1  0.5835380000000  0.5107840000000  0.5783020000000 1.0
C      1  0.5263680000000  0.4093510000000  0.4491800000000 1.0
C      1  0.6115680000000  0.4951920000000  0.5308590000000 1.0
C      1  0.5417070000000  0.4645280000000  0.5306840000000 1.0
C      1  0.4587950000000  0.5417920000000  0.4394690000000 1.0
C      1  0.5432240000000  0.5009640000000  0.4192920000000 1.0
C      1  0.4725470000000  0.5794570000000  0.4187940000000 1.0
C      1  0.4826450000000  0.5124110000000  0.6091920000000 1.0
C      1  0.5857790000000  0.5116660000000  0.4863660000000 1.0
C      1  0.4809500000000  0.5950760000000  0.5531500000000 1.0
C      1  0.5201500000000  0.5692910000000  0.5447600000000 1.0
C      1  0.4813140000000  0.4040740000000  0.5028550000000 1.0
C      1  0.4851170000000  0.5761470000000  0.5753740000000 1.0
C      1  0.4212150000000  0.5432450000000  0.5349960000000 1.0
C      1  0.4941040000000  0.4307270000000  0.4396900000000 1.0
C      1  0.4353050000000  0.5677480000000  0.4737000000000 1.0
C      1  0.5192960000000  0.5186700000000  0.4232810000000 1.0
C      1  0.4406940000000  0.5624330000000  0.5552200000000 1.0
C      1  0.6138780000000  0.4731500000000  0.5090730000000 1.0
C      1  0.5604430000000  0.5174890000000  0.4652730000000 1.0
C      1  0.3973740000000  0.5217780000000  0.4867490000000 1.0
C      1  0.4398180000000  0.5010580000000  0.4093980000000 1.0
C      1  0.4620090000000  0.5355400000000  0.5993950000000 1.0
C      1  0.4470000000000  0.4450510000000  0.4605610000000 1.0
C      1  0.5889290000000  0.5539600000000  0.5565400000000 1.0
C      1  0.4970420000000  0.3809010000000  0.4743780000000 1.0
C      1  0.5588880000000  0.4736480000000  0.3750640000000 1.0
C      1  0.5500080000000  0.4779350000000  0.3986710000000 1.0
C      1  0.4120790000000  0.4808260000000  0.4566210000000 1.0
C      1  0.4126950000000  0.4956870000000  0.4260420000000 1.0
C      1  0.6091740000000  0.4416110000000  0.4546250000000 1.0
C      1  0.4953590000000  0.4164020000000  0.5798970000000 1.0
C      1  0.4660920000000  0.4301500000000  0.4245280000000 1.0
C      1  0.5136560000000  0.5988930000000  0.4369900000000 1.0
C      1  0.4907460000000  0.4318120000000  0.4713740000000 1.0
C      1  0.4933990000000  0.4789000000000  0.4171850000000 1.0
C      1  0.4875500000000  0.5089080000000  0.4851020000000 1.0
C      1  0.5947090000000  0.5275380000000  0.5150870000000 1.0
C      1  0.5596680000000  0.4992920000000  0.5042990000000 1.0
C      1  0.5561160000000  0.4678030000000  0.5984290000000 1.0
C      1  0.4505920000000  0.5412590000000  0.5229990000000 1.0
C      1  0.5908830000000  0.4610880000000  0.5307310000000 1.0
C      1  0.3884660000000  0.4849330000000  0.5401710000000 1.0
C      1  0.5458190000000  0.5297550000000  0.5114140000000 1.0
C      1  0.3937950000000  0.4557550000000  0.5248480000000 1.0
C      1  0.4649760000000  0.5091090000000  0.4621510000000 1.0
C      1  0.5292890000000  0.5904520000000  0.4827590000000 1.0
C      1  0.3870210000000  0.4782960000000  0.5021110000000 1.0
C      1  0.5327600000000  0.5000510000000  0.4560070000000 1.0
C      1  0.5776380000000  0.4924030000000  0.5306550000000 1.0
C      1  0.5171190000000  0.4455500000000  0.4852250000000 1.0
C      1  0.5430890000000  0.4635110000000  0.4268810000000 1.0
C      1  0.5710630000000  0.4380650000000  0.5460180000000 1.0
C      1  0.5622140000000  0.5810090000000  0.5207520000000 1.0
C      1  0.5189050000000  0.5067760000000  0.4836160000000 1.0
C      1  0.4182270000000  0.5199160000000  0.5586040000000 1.0
C      1  0.3838360000000  0.4921460000000  0.4718210000000 1.0
C      1  0.4144880000000  0.4473310000000  0.4627500000000 1.0
C      1  0.4167430000000  0.4416220000000  0.4944030000000 1.0
C      1  0.5509910000000  0.5809560000000  0.4544010000000 1.0
C      1  0.4369310000000  0.5169110000000  0.4893600000000 1.0
C      1  0.5168720000000  0.4484760000000  0.5167680000000 1.0
C      1  0.5976900000000  0.5427440000000  0.4782200000000 1.0
C      1  0.4901480000000  0.5118860000000  0.4394370000000 1.0
C      1  0.5982540000000  0.4646460000000  0.5637340000000 1.0
C      1  0.6019820000000  0.4822080000000  0.4823410000000 1.0
C      1  0.4620810000000  0.5612410000000  0.5810940000000 1.0
C      1  0.4585380000000  0.5939810000000  0.5330790000000 1.0
C      1  0.4959050000000  0.4849500000000  0.5077430000000 1.0
C      1  0.5839080000000  0.5567420000000  0.5252320000000 1.0
C      1  0.5507200000000  0.5131710000000  0.5557900000000 1.0
C      1  0.4695210000000  0.5283080000000  0.5596870000000 1.0
C      1  0.5524920000000  0.5656040000000  0.4818730000000 1.0
C      1  0.5256240000000  0.5035980000000  0.6256830000000 1.0
C      1  0.4564710000000  0.5711070000000  0.5082590000000 1.0
C      1  0.4760340000000  0.5041050000000  0.5793180000000 1.0
C      1  0.5172440000000  0.4894340000000  0.5498400000000 1.0
C      1  0.5390960000000  0.4210390000000  0.4937500000000 1.0
C      1  0.5772880000000  0.5377570000000  0.4243020000000 1.0
C      1  0.4893040000000  0.5445610000000  0.4379230000000 1.0
C      1  0.6214790000000  0.5311380000000  0.4944350000000 1.0
C      1  0.5272240000000  0.5502570000000  0.4272330000000 1.0
C      1  0.5024830000000  0.6014180000000  0.5044270000000 1.0
C      1  0.5027880000000  0.5292370000000  0.5600450000000 1.0
C      1  0.5433090000000  0.4295080000000  0.4276100000000 1.0
C      1  0.4541330000000  0.4727030000000  0.4024390000000 1.0
C      1  0.5262420000000  0.3995940000000  0.5300690000000 1.0
C      1  0.5751840000000  0.4817640000000  0.5768820000000 1.0
END
