TITL C-2847953-8112-553 0.00269906680140475 125000 -1065.83226299816 0 0 197 (C1) n - 1
REM
REM in /home/bkarasulu/work/CARBON/AIRSS/Generating-Clusters/AIREBO/with-SteepDescent/Only-C1/SD-CG-opt/Try1-1.4A-POS3A/HFTN-CG
REM
REM
REM
REM
REM
REM ./C.cell (11c1c37f851c82e70ff6c80c92926a4b)
REM
REM compiler GCC version 9.2.1 20190827 (Red Hat 9.2.1-1)
REM options -cpp -mtune=generic -march=x86-64 -g -O0 -fpre-include=/usr/include/finclude/math-vector-fortran.h
REM seed -1408661307 150192093 -1137545824 285777591 -675248290 1775367998 1102377242 -936125715 -1056023919 -826401029 -1119406526 1322343545 244041108 1821863698 957528226 1690741742 964886866 -1896911066 -189322746 190653828 -930892523 1900313330 -1002869896 -1507808272 -1517377859 -2104101339 -912046032 -409900216 -1009472035 146079672 -282678706 156589378 -622596858
REM
CELL 1.54180   50.00000   50.00000   50.00000   90.00000   90.00000   90.00000
LATT -1
SFAC C  
C      1  0.4567180000000  0.5922560000000  0.4793360000000 1.0
C      1  0.4931970000000  0.4542930000000  0.4131490000000 1.0
C      1  0.5312900000000  0.4984680000000  0.4989850000000 1.0
C      1  0.4769490000000  0.5026060000000  0.4265870000000 1.0
C      1  0.4691890000000  0.4074700000000  0.5521550000000 1.0
C      1  0.4885100000000  0.5432210000000  0.4138280000000 1.0
C      1  0.5427420000000  0.5713410000000  0.5493270000000 1.0
C      1  0.5265680000000  0.4628290000000  0.6067750000000 1.0
C      1  0.4685490000000  0.4733060000000  0.4268900000000 1.0
C      1  0.5690200000000  0.5670780000000  0.5337430000000 1.0
C      1  0.4291270000000  0.5559500000000  0.5535260000000 1.0
C      1  0.5731560000000  0.4239500000000  0.4800060000000 1.0
C      1  0.5355410000000  0.5652600000000  0.4894170000000 1.0
C      1  0.4779950000000  0.5033100000000  0.6207160000000 1.0
C      1  0.4625320000000  0.5639940000000  0.4358710000000 1.0
C      1  0.4702490000000  0.5560040000000  0.5862840000000 1.0
C      1  0.5567330000000  0.5304730000000  0.5773020000000 1.0
C      1  0.4750640000000  0.4266030000000  0.4158710000000 1.0
C      1  0.5101770000000  0.6119650000000  0.4766550000000 1.0
C      1  0.5282190000000  0.5774730000000  0.4353520000000 1.0
C      1  0.5080500000000  0.4712960000000  0.3872910000000 1.0
C      1  0.5326310000000  0.4368380000000  0.5872460000000 1.0
C      1  0.5545530000000  0.4345910000000  0.5636960000000 1.0
C      1  0.4362010000000  0.5323510000000  0.5769640000000 1.0
C      1  0.3990740000000  0.4930890000000  0.4809800000000 1.0
C      1  0.5093240000000  0.4682950000000  0.5361530000000 1.0
C      1  0.5263860000000  0.4306220000000  0.5333160000000 1.0
C      1  0.5265530000000  0.5381900000000  0.4801820000000 1.0
C      1  0.4923580000000  0.5877890000000  0.4619410000000 1.0
C      1  0.4080410000000  0.4812890000000  0.4565040000000 1.0
C      1  0.5074350000000  0.3842070000000  0.5293830000000 1.0
C      1  0.4514930000000  0.4663300000000  0.5292460000000 1.0
C      1  0.5615850000000  0.6003120000000  0.4721550000000 1.0
C      1  0.4577840000000  0.4118960000000  0.4975020000000 1.0
C      1  0.5154520000000  0.5373340000000  0.6035950000000 1.0
C      1  0.5005550000000  0.5356150000000  0.4426240000000 1.0
C      1  0.4395110000000  0.5139760000000  0.4496750000000 1.0
C      1  0.5602510000000  0.5491400000000  0.4617770000000 1.0
C      1  0.4858710000000  0.5769400000000  0.4353470000000 1.0
C      1  0.5375240000000  0.5237020000000  0.5209810000000 1.0
C      1  0.6028880000000  0.5213900000000  0.5567840000000 1.0
C      1  0.5934070000000  0.4655260000000  0.4649680000000 1.0
C      1  0.5880320000000  0.5095130000000  0.4972970000000 1.0
C      1  0.5549990000000  0.4479490000000  0.4777890000000 1.0
C      1  0.5739630000000  0.5775140000000  0.4494350000000 1.0
C      1  0.5505410000000  0.5191750000000  0.4664130000000 1.0
C      1  0.4782310000000  0.5405420000000  0.5018290000000 1.0
C      1  0.5413100000000  0.4712240000000  0.3802310000000 1.0
C      1  0.5733750000000  0.4762070000000  0.5730960000000 1.0
C      1  0.4484520000000  0.5172260000000  0.5324360000000 1.0
C      1  0.4919860000000  0.4963480000000  0.4778900000000 1.0
C      1  0.5592380000000  0.4652680000000  0.6001140000000 1.0
C      1  0.4266230000000  0.4524460000000  0.5434250000000 1.0
C      1  0.4269250000000  0.5241780000000  0.4221400000000 1.0
C      1  0.4804370000000  0.4561420000000  0.5375720000000 1.0
C      1  0.4131370000000  0.4938750000000  0.4293750000000 1.0
C      1  0.5927840000000  0.4821520000000  0.5114800000000 1.0
C      1  0.5276130000000  0.4005660000000  0.4727180000000 1.0
C      1  0.4333140000000  0.5379560000000  0.4712120000000 1.0
C      1  0.4200410000000  0.4834310000000  0.5933400000000 1.0
C      1  0.5203950000000  0.4370530000000  0.4240870000000 1.0
C      1  0.4701420000000  0.4922350000000  0.5699200000000 1.0
C      1  0.5095300000000  0.4244970000000  0.4480570000000 1.0
C      1  0.4541250000000  0.4579640000000  0.4756270000000 1.0
C      1  0.4919770000000  0.4698580000000  0.4986770000000 1.0
C      1  0.3988180000000  0.4420460000000  0.5174230000000 1.0
C      1  0.4236050000000  0.5169410000000  0.5503400000000 1.0
C      1  0.4192800000000  0.4204970000000  0.5341580000000 1.0
C      1  0.5219910000000  0.4986300000000  0.4019490000000 1.0
C      1  0.4613400000000  0.4961730000000  0.3823280000000 1.0
C      1  0.5010370000000  0.4841590000000  0.6145200000000 1.0
C      1  0.5910900000000  0.4593310000000  0.5518450000000 1.0
C      1  0.4979770000000  0.4140630000000  0.4874550000000 1.0
C      1  0.4438280000000  0.4185790000000  0.5548230000000 1.0
C      1  0.5220250000000  0.4608960000000  0.5077670000000 1.0
C      1  0.4320530000000  0.4561850000000  0.5963940000000 1.0
C      1  0.5169110000000  0.6011180000000  0.5414200000000 1.0
C      1  0.5021840000000  0.5038630000000  0.4481420000000 1.0
C      1  0.5482710000000  0.5616110000000  0.5752710000000 1.0
C      1  0.5288670000000  0.5473380000000  0.4483280000000 1.0
C      1  0.4507020000000  0.4368760000000  0.4338820000000 1.0
C      1  0.5439930000000  0.4648740000000  0.5610900000000 1.0
C      1  0.4239980000000  0.4937640000000  0.4999970000000 1.0
C      1  0.5037070000000  0.5681000000000  0.5149940000000 1.0
C      1  0.3904770000000  0.5363430000000  0.5148870000000 1.0
C      1  0.4439800000000  0.4713880000000  0.5016410000000 1.0
C      1  0.5804510000000  0.4960590000000  0.4154190000000 1.0
C      1  0.4009290000000  0.5406580000000  0.5419760000000 1.0
C      1  0.5348360000000  0.5307260000000  0.5538400000000 1.0
C      1  0.5809950000000  0.5761900000000  0.4826750000000 1.0
C      1  0.4730180000000  0.5740590000000  0.5284860000000 1.0
C      1  0.5077880000000  0.5390410000000  0.5261370000000 1.0
C      1  0.5118450000000  0.6062900000000  0.5079760000000 1.0
C      1  0.4942860000000  0.4332060000000  0.5223970000000 1.0
C      1  0.4766940000000  0.4399000000000  0.4936190000000 1.0
C      1  0.5350050000000  0.4967890000000  0.4535080000000 1.0
C      1  0.4226890000000  0.4730870000000  0.4123780000000 1.0
C      1  0.6144130000000  0.5468000000000  0.5134640000000 1.0
C      1  0.5667680000000  0.5090960000000  0.5435920000000 1.0
C      1  0.5025130000000  0.5260130000000  0.5632820000000 1.0
C      1  0.4772320000000  0.6172040000000  0.4698180000000 1.0
C      1  0.4044050000000  0.5566080000000  0.4916070000000 1.0
C      1  0.5767950000000  0.4375080000000  0.5307590000000 1.0
C      1  0.5341660000000  0.5828620000000  0.5184820000000 1.0
C      1  0.5931390000000  0.5024310000000  0.4396490000000 1.0
C      1  0.5476060000000  0.4959950000000  0.4242180000000 1.0
C      1  0.4851180000000  0.4103150000000  0.4393500000000 1.0
C      1  0.5006430000000  0.4644470000000  0.4543410000000 1.0
C      1  0.4038260000000  0.4909980000000  0.5733120000000 1.0
C      1  0.4739710000000  0.6011680000000  0.5578390000000 1.0
C      1  0.4655560000000  0.5118930000000  0.4774620000000 1.0
C      1  0.5548460000000  0.5290420000000  0.4203270000000 1.0
C      1  0.5002330000000  0.5584950000000  0.5732880000000 1.0
C      1  0.5424510000000  0.4898480000000  0.5420490000000 1.0
C      1  0.6053300000000  0.5343870000000  0.4907810000000 1.0
C      1  0.4593480000000  0.5177130000000  0.5888690000000 1.0
C      1  0.4529450000000  0.5623720000000  0.4653340000000 1.0
C      1  0.5473950000000  0.4365300000000  0.4329450000000 1.0
C      1  0.5113540000000  0.4792940000000  0.4265000000000 1.0
C      1  0.4912090000000  0.5655280000000  0.4832400000000 1.0
C      1  0.4560640000000  0.3796450000000  0.4868420000000 1.0
C      1  0.3992360000000  0.4973010000000  0.5402160000000 1.0
C      1  0.4410780000000  0.5206050000000  0.4994100000000 1.0
C      1  0.5638580000000  0.5609790000000  0.5030060000000 1.0
C      1  0.4990150000000  0.5880860000000  0.5591250000000 1.0
C      1  0.4897170000000  0.4975990000000  0.5177590000000 1.0
C      1  0.4152390000000  0.5754400000000  0.5299500000000 1.0
C      1  0.4107010000000  0.4732970000000  0.5236910000000 1.0
C      1  0.4016430000000  0.5414820000000  0.4342920000000 1.0
C      1  0.4902960000000  0.4970530000000  0.3781620000000 1.0
C      1  0.5792020000000  0.5097350000000  0.5733750000000 1.0
C      1  0.4789540000000  0.5405310000000  0.4636970000000 1.0
C      1  0.5247470000000  0.4738490000000  0.4764270000000 1.0
C      1  0.5332240000000  0.3930690000000  0.5218000000000 1.0
C      1  0.5160950000000  0.4246650000000  0.5652970000000 1.0
C      1  0.3881320000000  0.5077270000000  0.5096510000000 1.0
C      1  0.4646210000000  0.4155150000000  0.4643810000000 1.0
C      1  0.4778080000000  0.5322990000000  0.5407700000000 1.0
C      1  0.4513060000000  0.4898390000000  0.6051010000000 1.0
C      1  0.4786830000000  0.6057910000000  0.5018180000000 1.0
C      1  0.4962590000000  0.5008090000000  0.5852350000000 1.0
C      1  0.5284460000000  0.4195010000000  0.5009520000000 1.0
C      1  0.5053860000000  0.5204770000000  0.4977490000000 1.0
C      1  0.5588390000000  0.4840900000000  0.5128130000000 1.0
C      1  0.5509520000000  0.4152440000000  0.4557720000000 1.0
C      1  0.4040490000000  0.5466360000000  0.4613560000000 1.0
C      1  0.5639100000000  0.4742890000000  0.3951930000000 1.0
C      1  0.5278280000000  0.4903550000000  0.5868550000000 1.0
C      1  0.4652450000000  0.6059560000000  0.5306780000000 1.0
C      1  0.6070480000000  0.4781510000000  0.5372010000000 1.0
C      1  0.6005880000000  0.4593450000000  0.4929970000000 1.0
C      1  0.5348690000000  0.5182390000000  0.5958400000000 1.0
C      1  0.5768920000000  0.5035180000000  0.4681070000000 1.0
C      1  0.5252700000000  0.4399350000000  0.4739440000000 1.0
C      1  0.4881450000000  0.4457420000000  0.5845390000000 1.0
C      1  0.4244540000000  0.4512980000000  0.4603720000000 1.0
C      1  0.4432880000000  0.4471550000000  0.5696290000000 1.0
C      1  0.4621960000000  0.5145320000000  0.4061130000000 1.0
C      1  0.4117840000000  0.4456170000000  0.4891880000000 1.0
C      1  0.5249230000000  0.5635170000000  0.5925900000000 1.0
C      1  0.5052560000000  0.5726590000000  0.4107280000000 1.0
C      1  0.5577150000000  0.6025230000000  0.5037930000000 1.0
C      1  0.5706330000000  0.5306740000000  0.5175960000000 1.0
C      1  0.4576760000000  0.4859510000000  0.4566300000000 1.0
C      1  0.4845640000000  0.5326810000000  0.6060900000000 1.0
C      1  0.4283260000000  0.5483750000000  0.5143260000000 1.0
C      1  0.4294480000000  0.5797410000000  0.4922470000000 1.0
C      1  0.4219240000000  0.4490470000000  0.4265350000000 1.0
C      1  0.4883900000000  0.4166840000000  0.5700770000000 1.0
C      1  0.4692100000000  0.4619510000000  0.5652030000000 1.0
C      1  0.4485570000000  0.4772370000000  0.4022750000000 1.0
C      1  0.5497600000000  0.4525290000000  0.5216380000000 1.0
C      1  0.4801670000000  0.4029560000000  0.5215040000000 1.0
C      1  0.5200250000000  0.5517730000000  0.3911500000000 1.0
C      1  0.5319840000000  0.5893260000000  0.4656600000000 1.0
C      1  0.5042260000000  0.5247440000000  0.3895830000000 1.0
C      1  0.4857840000000  0.3837570000000  0.4939150000000 1.0
C      1  0.4763740000000  0.4459210000000  0.4542670000000 1.0
C      1  0.4543310000000  0.5430070000000  0.4145190000000 1.0
C      1  0.5614440000000  0.4629220000000  0.4256300000000 1.0
C      1  0.6191780000000  0.5010800000000  0.5482310000000 1.0
C      1  0.5473580000000  0.5489310000000  0.3964690000000 1.0
C      1  0.5898220000000  0.4626780000000  0.4387810000000 1.0
C      1  0.4662430000000  0.4934170000000  0.5386000000000 1.0
C      1  0.5548390000000  0.4128890000000  0.5390150000000 1.0
C      1  0.4616480000000  0.5572250000000  0.5549870000000 1.0
C      1  0.5569830000000  0.5628270000000  0.4246650000000 1.0
C      1  0.4554730000000  0.5621010000000  0.5052400000000 1.0
C      1  0.5933910000000  0.5495390000000  0.4702960000000 1.0
C      1  0.5112130000000  0.4658770000000  0.5700800000000 1.0
C      1  0.5940060000000  0.5444230000000  0.5381170000000 1.0
C      1  0.5902640000000  0.4345230000000  0.5019170000000 1.0
C      1  0.4325350000000  0.4182450000000  0.4557660000000 1.0
C      1  0.5662050000000  0.4757080000000  0.4810590000000 1.0
C      1  0.4634070000000  0.4579340000000  0.6044460000000 1.0
C      1  0.5116660000000  0.5010800000000  0.5420360000000 1.0
C      1  0.4284300000000  0.4209390000000  0.5032140000000 1.0
END
