TITL C-2848507-1641-413 0.00248697363646282 125000 -246.243103266658 0 0 44 (C1) n - 1
REM
REM in /home/bkarasulu/work/CARBON/AIRSS/Generating-Clusters/AIREBO/with-SteepDescent/Only-C1/SD-CG-opt/Try1-1.4A-POS3A/HFTN-CG
REM
REM
REM
REM
REM
REM ./C.cell (11c1c37f851c82e70ff6c80c92926a4b)
REM
REM compiler GCC version 9.2.1 20190827 (Red Hat 9.2.1-1)
REM options -cpp -mtune=generic -march=x86-64 -g -O0 -fpre-include=/usr/include/finclude/math-vector-fortran.h
REM seed -1136187228 1458533349 -1976512169 152912178 -329862222 -666726635 -1490370079 -2071288111 1661957294 452193719 -772334361 1416243796 -443422491 467842280 435592278 1841737094 -601201374 2074834587 -358502863 32418729 1563573538 -199320617 137131341 1370427686 -1994104430 1137365429 1006394040 2112034247 1288658963 369502624 793283564 -1920222207 -192655366
REM
CELL 1.54180   50.00000   50.00000   50.00000   90.00000   90.00000   90.00000
LATT -1
SFAC C  
C      1  0.5661740000000  0.4960600000000  0.4831640000000 1.0
C      1  0.4602680000000  0.4689790000000  0.5138560000000 1.0
C      1  0.4690580000000  0.4686280000000  0.4678320000000 1.0
C      1  0.5038480000000  0.4801900000000  0.4656310000000 1.0
C      1  0.5278640000000  0.5009770000000  0.5547110000000 1.0
C      1  0.4374410000000  0.4062380000000  0.4860890000000 1.0
C      1  0.5093190000000  0.5483800000000  0.4862480000000 1.0
C      1  0.5286580000000  0.5245350000000  0.4842960000000 1.0
C      1  0.4952130000000  0.5548210000000  0.4632060000000 1.0
C      1  0.5325280000000  0.5455810000000  0.5277050000000 1.0
C      1  0.5439040000000  0.4546710000000  0.4343280000000 1.0
C      1  0.4895890000000  0.5809440000000  0.4584580000000 1.0
C      1  0.4939380000000  0.4407360000000  0.5448820000000 1.0
C      1  0.5425650000000  0.4541230000000  0.4990730000000 1.0
C      1  0.5319290000000  0.4738440000000  0.4495070000000 1.0
C      1  0.4873680000000  0.4679150000000  0.5285930000000 1.0
C      1  0.4799740000000  0.4851910000000  0.4419150000000 1.0
C      1  0.4976370000000  0.4960570000000  0.5176270000000 1.0
C      1  0.4867530000000  0.5357540000000  0.4438180000000 1.0
C      1  0.5251110000000  0.5041860000000  0.4417240000000 1.0
C      1  0.5489210000000  0.5349090000000  0.5060920000000 1.0
C      1  0.5263660000000  0.4754980000000  0.5724600000000 1.0
C      1  0.4813080000000  0.5146190000000  0.5316380000000 1.0
C      1  0.5105050000000  0.5591550000000  0.5126090000000 1.0
C      1  0.4473850000000  0.5453630000000  0.5222350000000 1.0
C      1  0.5134690000000  0.4970070000000  0.4917330000000 1.0
C      1  0.4739060000000  0.5511210000000  0.5612590000000 1.0
C      1  0.5273810000000  0.4645450000000  0.5966750000000 1.0
C      1  0.4881100000000  0.5734880000000  0.5221150000000 1.0
C      1  0.4659530000000  0.5627280000000  0.5362990000000 1.0
C      1  0.5319820000000  0.5276810000000  0.5497940000000 1.0
C      1  0.4545340000000  0.5175670000000  0.5218420000000 1.0
C      1  0.4435430000000  0.4916030000000  0.5185670000000 1.0
C      1  0.5405080000000  0.4793070000000  0.4814560000000 1.0
C      1  0.5401260000000  0.5217230000000  0.4560920000000 1.0
C      1  0.4854990000000  0.5260180000000  0.5574910000000 1.0
C      1  0.5367250000000  0.4498420000000  0.5245810000000 1.0
C      1  0.4669760000000  0.4783690000000  0.4185250000000 1.0
C      1  0.4465950000000  0.4307610000000  0.4874010000000 1.0
C      1  0.5195540000000  0.4313390000000  0.5403660000000 1.0
C      1  0.4983330000000  0.5104750000000  0.4401880000000 1.0
C      1  0.4653080000000  0.5421990000000  0.4284560000000 1.0
C      1  0.5191660000000  0.4713350000000  0.5402010000000 1.0
C      1  0.4587070000000  0.4555380000000  0.4892630000000 1.0
END
