TITL C-2847952-8118-324 -0.000479730438314872 125000 -117.282045407601 0 0 22 (C1) n - 1
REM
REM in /home/bkarasulu/work/CARBON/AIRSS/Generating-Clusters/AIREBO/with-SteepDescent/Only-C1/SD-CG-opt/Try1-1.4A-POS3A/HFTN-CG
REM
REM
REM
REM
REM
REM ./C.cell (11c1c37f851c82e70ff6c80c92926a4b)
REM
REM compiler GCC version 9.2.1 20190827 (Red Hat 9.2.1-1)
REM options -cpp -mtune=generic -march=x86-64 -g -O0 -fpre-include=/usr/include/finclude/math-vector-fortran.h
REM seed -1525479805 2147390607 612844345 233633929 -341543729 1535329567 2124257062 1513355840 799184192 -1275163359 -421432373 -1877732674 -2125480663 78645604 -2112353346 -887234751 -1447934485 363009692 517427643 27409741 2115551355 917828665 977473863 -489038863 -277839289 1793008136 2056015799 165165936 1619897100 1693169627 262070189 860825796 -798329541
REM
CELL 1.54180   50.00000   50.00000   50.00000   90.00000   90.00000   90.00000
LATT -1
SFAC C  
C      1  0.4398900000000  0.4870120000000  0.5365280000000 1.0
C      1  0.4602100000000  0.5309350000000  0.5563830000000 1.0
C      1  0.4711800000000  0.4892390000000  0.4923390000000 1.0
C      1  0.5374020000000  0.5730380000000  0.4909150000000 1.0
C      1  0.5014950000000  0.4515410000000  0.5107470000000 1.0
C      1  0.5008690000000  0.4828110000000  0.5029110000000 1.0
C      1  0.5316710000000  0.5488290000000  0.5004300000000 1.0
C      1  0.5450660000000  0.5957950000000  0.4804090000000 1.0
C      1  0.5006160000000  0.4346720000000  0.4889370000000 1.0
C      1  0.4864420000000  0.4804080000000  0.4657650000000 1.0
C      1  0.4774900000000  0.4591140000000  0.4406310000000 1.0
C      1  0.5101720000000  0.4987160000000  0.4641150000000 1.0
C      1  0.4910310000000  0.4467170000000  0.4657840000000 1.0
C      1  0.5502260000000  0.4873310000000  0.4916930000000 1.0
C      1  0.4662350000000  0.5079470000000  0.5419350000000 1.0
C      1  0.5142290000000  0.5183520000000  0.5353250000000 1.0
C      1  0.5016240000000  0.4714730000000  0.5353440000000 1.0
C      1  0.5163810000000  0.5140090000000  0.4439650000000 1.0
C      1  0.5250070000000  0.4996120000000  0.4918570000000 1.0
C      1  0.5232270000000  0.5243840000000  0.5093920000000 1.0
C      1  0.4950780000000  0.4992210000000  0.5432240000000 1.0
C      1  0.4544600000000  0.4988450000000  0.5113710000000 1.0
END
