TITL C-2847952-8118-149 -0.00229550732323288 125000 -649.816082112006 0 0 126 (C1) n - 1
REM
REM in /home/bkarasulu/work/CARBON/AIRSS/Generating-Clusters/AIREBO/with-SteepDescent/Only-C1/SD-CG-opt/Try1-1.4A-POS3A/HFTN-CG
REM
REM
REM
REM
REM
REM ./C.cell (11c1c37f851c82e70ff6c80c92926a4b)
REM
REM compiler GCC version 9.2.1 20190827 (Red Hat 9.2.1-1)
REM options -cpp -mtune=generic -march=x86-64 -g -O0 -fpre-include=/usr/include/finclude/math-vector-fortran.h
REM seed -1060210743 1677460308 1833646941 -1497329410 -1131522530 -637533519 -1857818052 -1933194475 1726610517 -403165916 -597603457 -1455187103 987772642 677493619 -605932420 1695851163 -1034417924 -642107277 1977506921 276706131 -98839702 350545731 614662683 -1473827219 1047452347 310513247 -2035579323 -1388032009 453152469 1637166805 -296825990 1979780366 1125320776
REM
CELL 1.54180   50.00000   50.00000   50.00000   90.00000   90.00000   90.00000
LATT -1
SFAC C  
C      1  0.5022260000000  0.5518980000000  0.5763710000000 1.0
C      1  0.4963370000000  0.5072820000000  0.4522610000000 1.0
C      1  0.4314330000000  0.5535260000000  0.5537050000000 1.0
C      1  0.4982950000000  0.5380540000000  0.4546340000000 1.0
C      1  0.5616660000000  0.5597560000000  0.4788160000000 1.0
C      1  0.4558800000000  0.5798870000000  0.4733670000000 1.0
C      1  0.5736120000000  0.5474470000000  0.4141940000000 1.0
C      1  0.5157400000000  0.4423470000000  0.4998070000000 1.0
C      1  0.5927470000000  0.4678770000000  0.5175790000000 1.0
C      1  0.4187560000000  0.5013890000000  0.4604940000000 1.0
C      1  0.5876880000000  0.4455570000000  0.4922490000000 1.0
C      1  0.4569890000000  0.5156220000000  0.4097290000000 1.0
C      1  0.4849550000000  0.4920200000000  0.5913770000000 1.0
C      1  0.4843590000000  0.5719310000000  0.5044680000000 1.0
C      1  0.5410130000000  0.4198330000000  0.5030810000000 1.0
C      1  0.5396060000000  0.5096140000000  0.6130860000000 1.0
C      1  0.5530790000000  0.4693390000000  0.5160040000000 1.0
C      1  0.4349410000000  0.5217290000000  0.5124510000000 1.0
C      1  0.5039060000000  0.4041840000000  0.5113510000000 1.0
C      1  0.4089440000000  0.5058490000000  0.5280100000000 1.0
C      1  0.5103990000000  0.4360360000000  0.4464060000000 1.0
C      1  0.5154350000000  0.5067100000000  0.5567220000000 1.0
C      1  0.4381950000000  0.4443870000000  0.5317220000000 1.0
C      1  0.4444390000000  0.5019340000000  0.4382190000000 1.0
C      1  0.4466210000000  0.4286180000000  0.4690720000000 1.0
C      1  0.4356070000000  0.5644410000000  0.4540360000000 1.0
C      1  0.4835450000000  0.5792840000000  0.4536020000000 1.0
C      1  0.4678770000000  0.4702330000000  0.4143110000000 1.0
C      1  0.4840380000000  0.4559690000000  0.4383520000000 1.0
C      1  0.5659310000000  0.5155920000000  0.5541170000000 1.0
C      1  0.5293050000000  0.4642270000000  0.4484430000000 1.0
C      1  0.4025950000000  0.4747110000000  0.4937580000000 1.0
C      1  0.5466040000000  0.5075210000000  0.4545850000000 1.0
C      1  0.4540920000000  0.5064720000000  0.4808540000000 1.0
C      1  0.5877820000000  0.4971200000000  0.5008770000000 1.0
C      1  0.4930640000000  0.4372850000000  0.4756420000000 1.0
C      1  0.5104710000000  0.5119650000000  0.4150770000000 1.0
C      1  0.4499640000000  0.4583320000000  0.5028500000000 1.0
C      1  0.4851690000000  0.5286840000000  0.4139300000000 1.0
C      1  0.5050420000000  0.4732220000000  0.4705050000000 1.0
C      1  0.4315560000000  0.4669860000000  0.5538650000000 1.0
C      1  0.4768980000000  0.4945220000000  0.4021500000000 1.0
C      1  0.4374990000000  0.5352130000000  0.4369690000000 1.0
C      1  0.4573510000000  0.4387840000000  0.4404940000000 1.0
C      1  0.5674210000000  0.4303910000000  0.4750000000000 1.0
C      1  0.5431870000000  0.5254340000000  0.5227900000000 1.0
C      1  0.5333730000000  0.5249280000000  0.5769220000000 1.0
C      1  0.4582330000000  0.5552890000000  0.5585910000000 1.0
C      1  0.5214950000000  0.5938360000000  0.4875410000000 1.0
C      1  0.4738240000000  0.4596980000000  0.5250990000000 1.0
C      1  0.5198330000000  0.5351650000000  0.6036040000000 1.0
C      1  0.4723840000000  0.4854140000000  0.4509660000000 1.0
C      1  0.4470420000000  0.5853440000000  0.5023080000000 1.0
C      1  0.5164090000000  0.4293770000000  0.4139280000000 1.0
C      1  0.5205950000000  0.3977730000000  0.5394720000000 1.0
C      1  0.5959620000000  0.5251170000000  0.5449410000000 1.0
C      1  0.5202280000000  0.4011290000000  0.4849760000000 1.0
C      1  0.4745170000000  0.4126260000000  0.5126080000000 1.0
C      1  0.5160830000000  0.5417460000000  0.4809820000000 1.0
C      1  0.4999470000000  0.4677120000000  0.5127200000000 1.0
C      1  0.3925890000000  0.4902140000000  0.5138170000000 1.0
C      1  0.4772910000000  0.4866560000000  0.4958620000000 1.0
C      1  0.4685850000000  0.5428450000000  0.4472680000000 1.0
C      1  0.5927450000000  0.5190070000000  0.4787420000000 1.0
C      1  0.5145910000000  0.4295530000000  0.5313200000000 1.0
C      1  0.4681220000000  0.5793250000000  0.5283700000000 1.0
C      1  0.5222910000000  0.4955930000000  0.4373460000000 1.0
C      1  0.4661190000000  0.5303560000000  0.5018730000000 1.0
C      1  0.4687560000000  0.4305720000000  0.5392940000000 1.0
C      1  0.4242640000000  0.5495820000000  0.5272540000000 1.0
C      1  0.4551290000000  0.4952100000000  0.5192110000000 1.0
C      1  0.4486210000000  0.5405770000000  0.4745690000000 1.0
C      1  0.5122490000000  0.5393610000000  0.5463920000000 1.0
C      1  0.5269090000000  0.5880720000000  0.5151870000000 1.0
C      1  0.5353410000000  0.5780570000000  0.4680330000000 1.0
C      1  0.4889830000000  0.4429790000000  0.5637260000000 1.0
C      1  0.5428680000000  0.5425040000000  0.4984430000000 1.0
C      1  0.5902910000000  0.5467760000000  0.4821590000000 1.0
C      1  0.4894570000000  0.4878600000000  0.5611240000000 1.0
C      1  0.4646920000000  0.4721780000000  0.5513310000000 1.0
C      1  0.5365590000000  0.4218710000000  0.4635440000000 1.0
C      1  0.4669250000000  0.4232550000000  0.4869080000000 1.0
C      1  0.4853110000000  0.5609850000000  0.4246600000000 1.0
C      1  0.5456020000000  0.5414460000000  0.5526900000000 1.0
C      1  0.4390510000000  0.4709410000000  0.4253070000000 1.0
C      1  0.5749600000000  0.4793230000000  0.4553310000000 1.0
C      1  0.6172360000000  0.5375030000000  0.5507630000000 1.0
C      1  0.4609030000000  0.5154160000000  0.5528010000000 1.0
C      1  0.5195130000000  0.4473640000000  0.5567150000000 1.0
C      1  0.4221590000000  0.5709640000000  0.5072680000000 1.0
C      1  0.4973570000000  0.5415430000000  0.5093820000000 1.0
C      1  0.5424910000000  0.5397740000000  0.4590880000000 1.0
C      1  0.5041450000000  0.5038810000000  0.4851870000000 1.0
C      1  0.5528400000000  0.4948870000000  0.5972820000000 1.0
C      1  0.4792240000000  0.5401690000000  0.5383440000000 1.0
C      1  0.4843230000000  0.5013850000000  0.5323550000000 1.0
C      1  0.5586150000000  0.4360190000000  0.5177760000000 1.0
C      1  0.5740000000000  0.5123990000000  0.5226100000000 1.0
C      1  0.5005800000000  0.5752760000000  0.4025220000000 1.0
C      1  0.4781530000000  0.4590720000000  0.5864320000000 1.0
C      1  0.4163560000000  0.5190620000000  0.4840880000000 1.0
C      1  0.4338220000000  0.4791680000000  0.4813600000000 1.0
C      1  0.5706170000000  0.4669020000000  0.5435030000000 1.0
C      1  0.5122370000000  0.5119810000000  0.5172130000000 1.0
C      1  0.5259850000000  0.4821780000000  0.5219770000000 1.0
C      1  0.4340890000000  0.4573440000000  0.4558010000000 1.0
C      1  0.4910720000000  0.5255080000000  0.5941390000000 1.0
C      1  0.4689730000000  0.4612870000000  0.4748040000000 1.0
C      1  0.5106640000000  0.4025780000000  0.4525240000000 1.0
C      1  0.5575590000000  0.4888640000000  0.5663610000000 1.0
C      1  0.4341320000000  0.4966240000000  0.5435120000000 1.0
C      1  0.5151860000000  0.5672580000000  0.4503880000000 1.0
C      1  0.5689570000000  0.4729380000000  0.4861500000000 1.0
C      1  0.5183120000000  0.5639980000000  0.5239930000000 1.0
C      1  0.4482640000000  0.4605500000000  0.5809210000000 1.0
C      1  0.5347280000000  0.4913580000000  0.4771880000000 1.0
C      1  0.4836830000000  0.5742610000000  0.5582280000000 1.0
C      1  0.5798620000000  0.5098860000000  0.4527920000000 1.0
C      1  0.5390040000000  0.4578990000000  0.4804330000000 1.0
C      1  0.4624250000000  0.5155090000000  0.5831930000000 1.0
C      1  0.5600690000000  0.4629940000000  0.4384400000000 1.0
C      1  0.4185590000000  0.5494590000000  0.4877430000000 1.0
C      1  0.5297180000000  0.4776740000000  0.5528120000000 1.0
C      1  0.4937460000000  0.5875250000000  0.4836370000000 1.0
C      1  0.5672570000000  0.5353950000000  0.4360160000000 1.0
C      1  0.5526980000000  0.4466830000000  0.5624600000000 1.0
END
