TITL C-2847957-7266-676 -0.000457432197486324 125000 -205.215074276902 0 0 36 (C1) n - 1
REM
REM in /home/bkarasulu/work/CARBON/AIRSS/Generating-Clusters/AIREBO/with-SteepDescent/Only-C1/SD-CG-opt/Try1-1.4A-POS3A/HFTN-CG
REM
REM
REM
REM
REM
REM ./C.cell (11c1c37f851c82e70ff6c80c92926a4b)
REM
REM compiler GCC version 9.2.1 20190827 (Red Hat 9.2.1-1)
REM options -cpp -mtune=generic -march=x86-64 -g -O0 -fpre-include=/usr/include/finclude/math-vector-fortran.h
REM seed 2027343651 -1976360517 2098901575 -930453918 -1178076736 1648814990 1212145308 1240996622 511608115 -824237479 294809753 1425898090 360130113 362327111 383310329 966675741 352900785 1211443154 154703979 1387368385 19218915 1746931136 129285725 -2052878300 954404653 -1882576213 -1132580004 -2125532271 1031884315 207429343 -948384781 606180583 781581131
REM
CELL 1.54180   50.00000   50.00000   50.00000   90.00000   90.00000   90.00000
LATT -1
SFAC C  
C      1  0.5095170000000  0.5449280000000  0.5435920000000 1.0
C      1  0.4772500000000  0.5218910000000  0.4783690000000 1.0
C      1  0.4581600000000  0.4703650000000  0.5425720000000 1.0
C      1  0.4725680000000  0.5135240000000  0.5280680000000 1.0
C      1  0.4514050000000  0.5723750000000  0.4662860000000 1.0
C      1  0.4517110000000  0.4944580000000  0.5291720000000 1.0
C      1  0.4978710000000  0.4625060000000  0.4565420000000 1.0
C      1  0.5328580000000  0.5440940000000  0.4887110000000 1.0
C      1  0.4598470000000  0.4994080000000  0.4691060000000 1.0
C      1  0.4975890000000  0.4417190000000  0.4799900000000 1.0
C      1  0.4354500000000  0.4970980000000  0.4824500000000 1.0
C      1  0.4967350000000  0.5400660000000  0.4591250000000 1.0
C      1  0.5414360000000  0.4518680000000  0.5368450000000 1.0
C      1  0.5236990000000  0.5355780000000  0.4630330000000 1.0
C      1  0.4830560000000  0.4611540000000  0.5409610000000 1.0
C      1  0.5591680000000  0.4784790000000  0.5434610000000 1.0
C      1  0.4717210000000  0.4795980000000  0.4555940000000 1.0
C      1  0.5055880000000  0.4356180000000  0.5025310000000 1.0
C      1  0.5353860000000  0.5224850000000  0.5414450000000 1.0
C      1  0.5585870000000  0.5053170000000  0.5506510000000 1.0
C      1  0.5522420000000  0.4891960000000  0.4664420000000 1.0
C      1  0.5174900000000  0.4835290000000  0.4657160000000 1.0
C      1  0.5332460000000  0.5110470000000  0.4541330000000 1.0
C      1  0.5050650000000  0.4821850000000  0.5281910000000 1.0
C      1  0.5120790000000  0.4498530000000  0.5293980000000 1.0
C      1  0.5453640000000  0.4815770000000  0.4939560000000 1.0
C      1  0.4690830000000  0.5524880000000  0.4671130000000 1.0
C      1  0.4920780000000  0.5149300000000  0.5040810000000 1.0
C      1  0.5135390000000  0.4900760000000  0.4988600000000 1.0
C      1  0.4317200000000  0.4960740000000  0.5095550000000 1.0
C      1  0.4848980000000  0.5270230000000  0.5517200000000 1.0
C      1  0.4351660000000  0.5929080000000  0.4675700000000 1.0
C      1  0.5579270000000  0.4675050000000  0.5138330000000 1.0
C      1  0.5186900000000  0.5325090000000  0.5135600000000 1.0
C      1  0.5076610000000  0.5058810000000  0.5456630000000 1.0
C      1  0.5041500000000  0.4506890000000  0.4317050000000 1.0
END
