TITL C-2848501-3133-35 0.0025501333573426 125000 -397.095665670527 0 0 73 (C1) n - 1
REM
REM in /home/bkarasulu/work/CARBON/AIRSS/Generating-Clusters/AIREBO/with-SteepDescent/Only-C1/SD-CG-opt/Try1-1.4A-POS3A/HFTN-CG
REM
REM
REM
REM
REM
REM ./C.cell (11c1c37f851c82e70ff6c80c92926a4b)
REM
REM compiler GCC version 9.2.1 20190827 (Red Hat 9.2.1-1)
REM options -cpp -mtune=generic -march=x86-64 -g -O0 -fpre-include=/usr/include/finclude/math-vector-fortran.h
REM seed -2048960389 444622352 336399649 -1801991206 -320820422 -1557281335 -1631111940 239894885 1291474305 -1911289396 796305148 -526985421 1897636115 -141043095 847340737 -950183603 -1727625858 -863461750 -1999480955 1206800252 -1656120059 436069273 -1235071374 -1570313098 1134080154 -708063459 -124325142 -761063656 -682992977 877506593 622934848 -1457171724 652967128
REM
CELL 1.54180   50.00000   50.00000   50.00000   90.00000   90.00000   90.00000
LATT -1
SFAC C  
C      1  0.5679700000000  0.5119830000000  0.5428710000000 1.0
C      1  0.4308700000000  0.5307660000000  0.5319900000000 1.0
C      1  0.5487300000000  0.4980830000000  0.5185160000000 1.0
C      1  0.5579610000000  0.4248200000000  0.5041010000000 1.0
C      1  0.4570480000000  0.4295130000000  0.4961930000000 1.0
C      1  0.5365340000000  0.5777250000000  0.4960920000000 1.0
C      1  0.4267010000000  0.4984960000000  0.4263650000000 1.0
C      1  0.4867390000000  0.4664460000000  0.4315830000000 1.0
C      1  0.4906600000000  0.5673670000000  0.5650910000000 1.0
C      1  0.5235000000000  0.4937060000000  0.4534130000000 1.0
C      1  0.4852320000000  0.5112380000000  0.5217920000000 1.0
C      1  0.5224460000000  0.5660830000000  0.4521210000000 1.0
C      1  0.5202950000000  0.4334230000000  0.4714330000000 1.0
C      1  0.4856660000000  0.5790400000000  0.5099130000000 1.0
C      1  0.4921070000000  0.5539870000000  0.4888390000000 1.0
C      1  0.5083950000000  0.5230880000000  0.5436910000000 1.0
C      1  0.5471740000000  0.4205250000000  0.4790880000000 1.0
C      1  0.4717330000000  0.4884340000000  0.4484950000000 1.0
C      1  0.5544250000000  0.4671900000000  0.5290770000000 1.0
C      1  0.5151800000000  0.4951710000000  0.5232650000000 1.0
C      1  0.4816970000000  0.4236760000000  0.4873260000000 1.0
C      1  0.4794600000000  0.4888480000000  0.5823060000000 1.0
C      1  0.4950630000000  0.5120740000000  0.4518510000000 1.0
C      1  0.5462140000000  0.4409060000000  0.5243120000000 1.0
C      1  0.4531230000000  0.5489400000000  0.5339030000000 1.0
C      1  0.4927010000000  0.5026680000000  0.4835790000000 1.0
C      1  0.4725790000000  0.4429130000000  0.5366430000000 1.0
C      1  0.5285810000000  0.4566010000000  0.4407940000000 1.0
C      1  0.4968200000000  0.5450940000000  0.4598550000000 1.0
C      1  0.5344510000000  0.5270030000000  0.5086100000000 1.0
C      1  0.4627990000000  0.5050490000000  0.4969970000000 1.0
C      1  0.5286240000000  0.5336940000000  0.4560230000000 1.0
C      1  0.4596810000000  0.4810460000000  0.4773720000000 1.0
C      1  0.4732280000000  0.5159140000000  0.5816160000000 1.0
C      1  0.4427350000000  0.5024250000000  0.4482190000000 1.0
C      1  0.5145580000000  0.4663680000000  0.4708690000000 1.0
C      1  0.4631930000000  0.5527970000000  0.5591440000000 1.0
C      1  0.4906490000000  0.4644180000000  0.5650000000000 1.0
C      1  0.5723790000000  0.5044400000000  0.4941440000000 1.0
C      1  0.5490970000000  0.5645440000000  0.5394830000000 1.0
C      1  0.5519830000000  0.5834870000000  0.5191070000000 1.0
C      1  0.4580240000000  0.4721420000000  0.5629530000000 1.0
C      1  0.5716750000000  0.5190960000000  0.4704780000000 1.0
C      1  0.4352330000000  0.5211890000000  0.5033190000000 1.0
C      1  0.5548400000000  0.5240740000000  0.4480910000000 1.0
C      1  0.5023990000000  0.4772510000000  0.4112340000000 1.0
C      1  0.4698220000000  0.4639550000000  0.5119340000000 1.0
C      1  0.4997460000000  0.4399240000000  0.4451210000000 1.0
C      1  0.4253300000000  0.5199590000000  0.5579170000000 1.0
C      1  0.5339270000000  0.5424090000000  0.5372100000000 1.0
C      1  0.4998890000000  0.4748520000000  0.5003460000000 1.0
C      1  0.4546980000000  0.5417500000000  0.4836090000000 1.0
C      1  0.4936170000000  0.5342560000000  0.5679910000000 1.0
C      1  0.5048210000000  0.4410100000000  0.5005240000000 1.0
C      1  0.4854520000000  0.4169240000000  0.4612680000000 1.0
C      1  0.5252820000000  0.4906780000000  0.4201590000000 1.0
C      1  0.4163070000000  0.4591330000000  0.4915460000000 1.0
C      1  0.5520340000000  0.4764840000000  0.4460670000000 1.0
C      1  0.5003760000000  0.4424460000000  0.5483960000000 1.0
C      1  0.4704620000000  0.4843690000000  0.5361640000000 1.0
C      1  0.5871110000000  0.5089230000000  0.5201710000000 1.0
C      1  0.4438140000000  0.4581840000000  0.4916750000000 1.0
C      1  0.5202460000000  0.5554850000000  0.5019770000000 1.0
C      1  0.4372930000000  0.5185920000000  0.4694750000000 1.0
C      1  0.5187260000000  0.5207040000000  0.4826270000000 1.0
C      1  0.5748280000000  0.4693220000000  0.4594810000000 1.0
C      1  0.4327750000000  0.4644080000000  0.5685900000000 1.0
C      1  0.4881060000000  0.5740560000000  0.5362480000000 1.0
C      1  0.4455740000000  0.5221530000000  0.5772080000000 1.0
C      1  0.5531620000000  0.5038590000000  0.4288240000000 1.0
C      1  0.5185170000000  0.4368360000000  0.5274910000000 1.0
C      1  0.5343680000000  0.5842540000000  0.4685360000000 1.0
C      1  0.4725660000000  0.5413340000000  0.5122880000000 1.0
END
