TITL C-2848497-6229-716 -0.00205537004929601 125000 -1086.17959343963 0 0 198 (C1) n - 1
REM
REM in /home/bkarasulu/work/CARBON/AIRSS/Generating-Clusters/AIREBO/with-SteepDescent/Only-C1/SD-CG-opt/Try1-1.4A-POS3A/HFTN-CG
REM
REM
REM
REM
REM
REM ./C.cell (11c1c37f851c82e70ff6c80c92926a4b)
REM
REM compiler GCC version 9.2.1 20190827 (Red Hat 9.2.1-1)
REM options -cpp -mtune=generic -march=x86-64 -g -O0 -fpre-include=/usr/include/finclude/math-vector-fortran.h
REM seed 1357198913 -725286737 -332717956 1596667475 -603176977 -453998368 391282556 1593834684 1030405359 -1461869216 1048797735 -1698072091 -384947887 -145669701 1334479039 982882246 1358073685 -1775920854 930198002 77627121 134999110 1357268483 -1462145192 -171935413 1010954429 -12032937 595667650 -906047538 586107771 1192546143 224933421 379281369 -170832019
REM
CELL 1.54180   50.00000   50.00000   50.00000   90.00000   90.00000   90.00000
LATT -1
SFAC C  
C      1  0.5369310000000  0.4640480000000  0.6034090000000 1.0
C      1  0.4204090000000  0.4891300000000  0.4283920000000 1.0
C      1  0.4938120000000  0.6102740000000  0.5007980000000 1.0
C      1  0.4344490000000  0.5768260000000  0.5121170000000 1.0
C      1  0.4390490000000  0.5273080000000  0.5019430000000 1.0
C      1  0.5514550000000  0.5120940000000  0.6041740000000 1.0
C      1  0.4730360000000  0.4135280000000  0.4102920000000 1.0
C      1  0.5157240000000  0.4026950000000  0.4300560000000 1.0
C      1  0.5418480000000  0.4454600000000  0.5753610000000 1.0
C      1  0.4172240000000  0.5301140000000  0.5277860000000 1.0
C      1  0.5473850000000  0.4373200000000  0.5010870000000 1.0
C      1  0.5341670000000  0.5709210000000  0.5636470000000 1.0
C      1  0.4959010000000  0.3884480000000  0.5323980000000 1.0
C      1  0.5118050000000  0.4778910000000  0.4749240000000 1.0
C      1  0.4992530000000  0.4333370000000  0.5277450000000 1.0
C      1  0.5230570000000  0.3901770000000  0.5310180000000 1.0
C      1  0.5471660000000  0.5928680000000  0.4391720000000 1.0
C      1  0.5262200000000  0.4439750000000  0.5246200000000 1.0
C      1  0.6111020000000  0.5352460000000  0.4926240000000 1.0
C      1  0.4498890000000  0.6022780000000  0.5262580000000 1.0
C      1  0.5956140000000  0.4965920000000  0.5679360000000 1.0
C      1  0.6081120000000  0.5140120000000  0.4659120000000 1.0
C      1  0.5804530000000  0.4770190000000  0.5800790000000 1.0
C      1  0.5547150000000  0.5076290000000  0.4093170000000 1.0
C      1  0.5047380000000  0.4201300000000  0.4968900000000 1.0
C      1  0.5711060000000  0.5169510000000  0.4513380000000 1.0
C      1  0.3999830000000  0.4310340000000  0.5242150000000 1.0
C      1  0.4343360000000  0.5348160000000  0.5829450000000 1.0
C      1  0.5086620000000  0.4562760000000  0.4212210000000 1.0
C      1  0.4688610000000  0.5332730000000  0.5162190000000 1.0
C      1  0.5020850000000  0.4205040000000  0.5554970000000 1.0
C      1  0.4708390000000  0.6077770000000  0.5505350000000 1.0
C      1  0.5797900000000  0.5136160000000  0.4809650000000 1.0
C      1  0.4135570000000  0.5345180000000  0.4513100000000 1.0
C      1  0.5228540000000  0.5517480000000  0.4583810000000 1.0
C      1  0.5434420000000  0.5545480000000  0.5361060000000 1.0
C      1  0.4586710000000  0.5492340000000  0.5551890000000 1.0
C      1  0.4782920000000  0.4518360000000  0.5593720000000 1.0
C      1  0.4533940000000  0.5182650000000  0.5415210000000 1.0
C      1  0.5176490000000  0.4939230000000  0.5054730000000 1.0
C      1  0.5860060000000  0.5002620000000  0.5056580000000 1.0
C      1  0.6134020000000  0.4579620000000  0.5139040000000 1.0
C      1  0.4588820000000  0.4117300000000  0.4647880000000 1.0
C      1  0.5285540000000  0.6072500000000  0.5200030000000 1.0
C      1  0.6056230000000  0.4512030000000  0.4853660000000 1.0
C      1  0.5549970000000  0.5610590000000  0.4619340000000 1.0
C      1  0.5591960000000  0.5368670000000  0.4838590000000 1.0
C      1  0.5189020000000  0.5681360000000  0.5199530000000 1.0
C      1  0.4053960000000  0.5088860000000  0.4439630000000 1.0
C      1  0.4710360000000  0.3977880000000  0.5459720000000 1.0
C      1  0.5560690000000  0.4919090000000  0.4394380000000 1.0
C      1  0.4581120000000  0.4268550000000  0.4953100000000 1.0
C      1  0.4496120000000  0.5989870000000  0.4714210000000 1.0
C      1  0.5042940000000  0.4709810000000  0.6102700000000 1.0
C      1  0.5378670000000  0.4895500000000  0.5609820000000 1.0
C      1  0.4916690000000  0.3893540000000  0.4100540000000 1.0
C      1  0.4192790000000  0.4965760000000  0.5689030000000 1.0
C      1  0.5096030000000  0.5276400000000  0.5663940000000 1.0
C      1  0.5006960000000  0.5445670000000  0.5123110000000 1.0
C      1  0.4901450000000  0.5564200000000  0.5963910000000 1.0
C      1  0.4513550000000  0.5069960000000  0.5732950000000 1.0
C      1  0.4958390000000  0.5497180000000  0.4812210000000 1.0
C      1  0.4283160000000  0.4374580000000  0.4850260000000 1.0
C      1  0.3861880000000  0.5075270000000  0.5174440000000 1.0
C      1  0.4658400000000  0.4812270000000  0.4950220000000 1.0
C      1  0.4154100000000  0.5685480000000  0.4491250000000 1.0
C      1  0.5585470000000  0.4617570000000  0.5386530000000 1.0
C      1  0.5344160000000  0.5208690000000  0.4932510000000 1.0
C      1  0.5266150000000  0.4489070000000  0.4491750000000 1.0
C      1  0.5677420000000  0.5388780000000  0.5541520000000 1.0
C      1  0.5771030000000  0.5389850000000  0.4369570000000 1.0
C      1  0.5798370000000  0.4514270000000  0.4321370000000 1.0
C      1  0.4597950000000  0.4599610000000  0.6001340000000 1.0
C      1  0.5110400000000  0.5060160000000  0.3947420000000 1.0
C      1  0.4340340000000  0.4941240000000  0.4969200000000 1.0
C      1  0.4247580000000  0.4615250000000  0.5167100000000 1.0
C      1  0.5657790000000  0.3997060000000  0.5037830000000 1.0
C      1  0.4653440000000  0.5980860000000  0.4984630000000 1.0
C      1  0.3980860000000  0.5674660000000  0.5003890000000 1.0
C      1  0.5335430000000  0.4069850000000  0.5078160000000 1.0
C      1  0.5030340000000  0.4806410000000  0.4437920000000 1.0
C      1  0.5141720000000  0.4443720000000  0.3834900000000 1.0
C      1  0.5056740000000  0.5211000000000  0.5364150000000 1.0
C      1  0.5524460000000  0.4291140000000  0.5397580000000 1.0
C      1  0.5630730000000  0.4022010000000  0.5341610000000 1.0
C      1  0.4777920000000  0.4770390000000  0.6147490000000 1.0
C      1  0.4936140000000  0.5719610000000  0.3999470000000 1.0
C      1  0.4640180000000  0.4832760000000  0.3974280000000 1.0
C      1  0.5017790000000  0.5716020000000  0.4418860000000 1.0
C      1  0.4078920000000  0.4236970000000  0.4976160000000 1.0
C      1  0.6083190000000  0.4968320000000  0.4445110000000 1.0
C      1  0.5218050000000  0.4754550000000  0.3834780000000 1.0
C      1  0.4790730000000  0.4419880000000  0.4500270000000 1.0
C      1  0.5546220000000  0.5041730000000  0.5352600000000 1.0
C      1  0.5817680000000  0.5493660000000  0.5025630000000 1.0
C      1  0.5241530000000  0.5036700000000  0.4418820000000 1.0
C      1  0.4398460000000  0.4889470000000  0.5300360000000 1.0
C      1  0.5013260000000  0.5796370000000  0.5846040000000 1.0
C      1  0.4230190000000  0.5795340000000  0.4801510000000 1.0
C      1  0.4607540000000  0.5123170000000  0.4591810000000 1.0
C      1  0.4205050000000  0.4413050000000  0.5501310000000 1.0
C      1  0.5196790000000  0.5903980000000  0.4239360000000 1.0
C      1  0.5212860000000  0.5995590000000  0.4871840000000 1.0
C      1  0.4286700000000  0.4671480000000  0.4768990000000 1.0
C      1  0.4721190000000  0.4702470000000  0.4433320000000 1.0
C      1  0.4499220000000  0.4033760000000  0.5263400000000 1.0
C      1  0.4050910000000  0.5179480000000  0.5572860000000 1.0
C      1  0.5463820000000  0.5382280000000  0.4113630000000 1.0
C      1  0.5583360000000  0.5636840000000  0.4281500000000 1.0
C      1  0.3925300000000  0.5391440000000  0.5091640000000 1.0
C      1  0.5943530000000  0.4447510000000  0.5381620000000 1.0
C      1  0.5943140000000  0.4345790000000  0.4577570000000 1.0
C      1  0.5480660000000  0.4928180000000  0.3873470000000 1.0
C      1  0.4614790000000  0.5178610000000  0.4262830000000 1.0
C      1  0.3863970000000  0.4855140000000  0.5362850000000 1.0
C      1  0.5349480000000  0.5246580000000  0.5243020000000 1.0
C      1  0.4986620000000  0.5826070000000  0.4730600000000 1.0
C      1  0.3950450000000  0.4608020000000  0.5225770000000 1.0
C      1  0.5778640000000  0.4400270000000  0.5112050000000 1.0
C      1  0.4040760000000  0.4689590000000  0.4587920000000 1.0
C      1  0.4656630000000  0.5478190000000  0.5853340000000 1.0
C      1  0.4846920000000  0.5091470000000  0.5803290000000 1.0
C      1  0.4917050000000  0.5831700000000  0.5593000000000 1.0
C      1  0.4473520000000  0.4622260000000  0.5496900000000 1.0
C      1  0.5849850000000  0.5148740000000  0.5447450000000 1.0
C      1  0.4097340000000  0.5689220000000  0.5322150000000 1.0
C      1  0.5151440000000  0.5269850000000  0.4187590000000 1.0
C      1  0.5284980000000  0.5952320000000  0.5868660000000 1.0
C      1  0.4061520000000  0.4624740000000  0.4295730000000 1.0
C      1  0.4398580000000  0.5310730000000  0.4714680000000 1.0
C      1  0.5136800000000  0.4044300000000  0.4697310000000 1.0
C      1  0.5618410000000  0.4803090000000  0.5121280000000 1.0
C      1  0.4576400000000  0.4222690000000  0.4324800000000 1.0
C      1  0.4542640000000  0.5043000000000  0.3820940000000 1.0
C      1  0.3924170000000  0.4945430000000  0.4663580000000 1.0
C      1  0.5556440000000  0.5932310000000  0.5056840000000 1.0
C      1  0.5737450000000  0.4509120000000  0.5645820000000 1.0
C      1  0.4478910000000  0.5264550000000  0.3991480000000 1.0
C      1  0.5872520000000  0.4795610000000  0.4338290000000 1.0
C      1  0.4930330000000  0.4787530000000  0.4010140000000 1.0
C      1  0.5523160000000  0.4859410000000  0.5880710000000 1.0
C      1  0.5193880000000  0.5591300000000  0.4084550000000 1.0
C      1  0.5275880000000  0.4752400000000  0.5321510000000 1.0
C      1  0.5485500000000  0.5924580000000  0.4729910000000 1.0
C      1  0.4353810000000  0.5503360000000  0.4002230000000 1.0
C      1  0.5507900000000  0.4472740000000  0.4252280000000 1.0
C      1  0.4008070000000  0.5001400000000  0.4928320000000 1.0
C      1  0.4788280000000  0.4522380000000  0.4961810000000 1.0
C      1  0.4885600000000  0.5172040000000  0.4743710000000 1.0
C      1  0.5091480000000  0.5351100000000  0.5984020000000 1.0
C      1  0.5402240000000  0.5406870000000  0.5733880000000 1.0
C      1  0.4779160000000  0.4016880000000  0.5067600000000 1.0
C      1  0.4899590000000  0.4094970000000  0.4511760000000 1.0
C      1  0.6082970000000  0.5632240000000  0.4761630000000 1.0
C      1  0.4927600000000  0.6093360000000  0.4332990000000 1.0
C      1  0.5018710000000  0.6159480000000  0.5392780000000 1.0
C      1  0.4491420000000  0.5216400000000  0.6105820000000 1.0
C      1  0.4781740000000  0.6006150000000  0.4562030000000 1.0
C      1  0.4508160000000  0.4738390000000  0.5782400000000 1.0
C      1  0.6121560000000  0.4855010000000  0.5175860000000 1.0
C      1  0.4706130000000  0.5045880000000  0.6082310000000 1.0
C      1  0.4509700000000  0.4868650000000  0.4255060000000 1.0
C      1  0.4730210000000  0.4198310000000  0.5696410000000 1.0
C      1  0.5274000000000  0.4168080000000  0.5681840000000 1.0
C      1  0.4927700000000  0.5864340000000  0.5250360000000 1.0
C      1  0.5797390000000  0.4202480000000  0.4849270000000 1.0
C      1  0.5139330000000  0.4399300000000  0.6033510000000 1.0
C      1  0.5190060000000  0.5212710000000  0.4658000000000 1.0
C      1  0.5042440000000  0.4269850000000  0.4092120000000 1.0
C      1  0.5404120000000  0.3943430000000  0.5551740000000 1.0
C      1  0.5744150000000  0.4625620000000  0.4859710000000 1.0
C      1  0.4453820000000  0.5575690000000  0.4546360000000 1.0
C      1  0.4909530000000  0.4904450000000  0.5350260000000 1.0
C      1  0.4852130000000  0.5368300000000  0.4316250000000 1.0
C      1  0.5046170000000  0.4881030000000  0.5640100000000 1.0
C      1  0.4096900000000  0.4727350000000  0.5575150000000 1.0
C      1  0.4737950000000  0.5676650000000  0.4229550000000 1.0
C      1  0.4541050000000  0.5779140000000  0.5495970000000 1.0
C      1  0.4666270000000  0.5671170000000  0.5135430000000 1.0
C      1  0.4552780000000  0.4832830000000  0.4650230000000 1.0
C      1  0.4858280000000  0.5059330000000  0.5051930000000 1.0
C      1  0.4602940000000  0.4317120000000  0.5966650000000 1.0
C      1  0.5089770000000  0.4557740000000  0.5736720000000 1.0
C      1  0.5033040000000  0.4449910000000  0.4736910000000 1.0
C      1  0.5300300000000  0.5256350000000  0.6135290000000 1.0
C      1  0.5388210000000  0.4094660000000  0.4541110000000 1.0
C      1  0.4820820000000  0.4611510000000  0.5278390000000 1.0
C      1  0.4165980000000  0.5476860000000  0.5568980000000 1.0
C      1  0.6092890000000  0.5188380000000  0.5220640000000 1.0
C      1  0.4399300000000  0.5701100000000  0.4247530000000 1.0
C      1  0.5547490000000  0.4645960000000  0.4600760000000 1.0
C      1  0.5880870000000  0.5688630000000  0.4626280000000 1.0
C      1  0.5358960000000  0.4675220000000  0.4942320000000 1.0
C      1  0.5273140000000  0.6003200000000  0.5532680000000 1.0
C      1  0.4730250000000  0.5502560000000  0.4586980000000 1.0
C      1  0.5603040000000  0.4309890000000  0.4604130000000 1.0
C      1  0.4396800000000  0.4334840000000  0.5231300000000 1.0
C      1  0.5658820000000  0.5690980000000  0.5172520000000 1.0
END
