TITL C-2847951-7423-176 0.00377881262303891 125000 -788.846080905108 0 0 147 (C1) n - 1
REM
REM in /home/bkarasulu/work/CARBON/AIRSS/Generating-Clusters/AIREBO/with-SteepDescent/Only-C1/SD-CG-opt/Try1-1.4A-POS3A/HFTN-CG
REM
REM
REM
REM
REM
REM ./C.cell (11c1c37f851c82e70ff6c80c92926a4b)
REM
REM compiler GCC version 9.2.1 20190827 (Red Hat 9.2.1-1)
REM options -cpp -mtune=generic -march=x86-64 -g -O0 -fpre-include=/usr/include/finclude/math-vector-fortran.h
REM seed 1991899377 1004902915 -1584795224 338546257 -668227337 -1519595672 803671883 341923275 1814085234 -1956341736 934095746 1221567551 1311120383 -225581224 752360084 2026882506 -501395741 -1387072398 2007600844 -1739991896 1155324071 1564729892 -891743708 918506153 1406441344 860110839 -443272880 -1681372191 -600423959 188910697 -2110990013 -2030223497 977330050
REM
CELL 1.54180   50.00000   50.00000   50.00000   90.00000   90.00000   90.00000
LATT -1
SFAC C  
C      1  0.5864310000000  0.4673350000000  0.4788290000000 1.0
C      1  0.4639990000000  0.5592390000000  0.5682970000000 1.0
C      1  0.5031640000000  0.4453250000000  0.5832820000000 1.0
C      1  0.5367330000000  0.5848760000000  0.5078380000000 1.0
C      1  0.4204450000000  0.4769800000000  0.5170210000000 1.0
C      1  0.4614750000000  0.5503870000000  0.4896540000000 1.0
C      1  0.5347320000000  0.4245000000000  0.4469300000000 1.0
C      1  0.4866480000000  0.3934040000000  0.5012960000000 1.0
C      1  0.5550120000000  0.5577350000000  0.4523330000000 1.0
C      1  0.4573570000000  0.5129230000000  0.5026940000000 1.0
C      1  0.5551770000000  0.5508670000000  0.4977840000000 1.0
C      1  0.4675000000000  0.4061360000000  0.5406470000000 1.0
C      1  0.5888240000000  0.4420000000000  0.4690360000000 1.0
C      1  0.5027230000000  0.5826530000000  0.4585880000000 1.0
C      1  0.4616430000000  0.4809700000000  0.5491120000000 1.0
C      1  0.4329380000000  0.5595260000000  0.5057510000000 1.0
C      1  0.5620450000000  0.4787350000000  0.5649090000000 1.0
C      1  0.4597570000000  0.5055640000000  0.4695780000000 1.0
C      1  0.5894910000000  0.5627080000000  0.4817400000000 1.0
C      1  0.4176290000000  0.5420860000000  0.4612250000000 1.0
C      1  0.4671770000000  0.5091770000000  0.5342740000000 1.0
C      1  0.5521560000000  0.4048350000000  0.4903660000000 1.0
C      1  0.4237350000000  0.5706050000000  0.4340310000000 1.0
C      1  0.5296930000000  0.4357050000000  0.4229490000000 1.0
C      1  0.5671170000000  0.4642140000000  0.5275470000000 1.0
C      1  0.4941270000000  0.4114970000000  0.4734900000000 1.0
C      1  0.5181080000000  0.5519220000000  0.5427520000000 1.0
C      1  0.4582410000000  0.4665520000000  0.5797870000000 1.0
C      1  0.4408540000000  0.5279340000000  0.5358850000000 1.0
C      1  0.5743910000000  0.5379470000000  0.4651730000000 1.0
C      1  0.4548540000000  0.4582510000000  0.4535260000000 1.0
C      1  0.4856860000000  0.5319220000000  0.4514440000000 1.0
C      1  0.5829610000000  0.5162540000000  0.5474700000000 1.0
C      1  0.5500400000000  0.4889270000000  0.4092330000000 1.0
C      1  0.5253790000000  0.4660610000000  0.4137930000000 1.0
C      1  0.5045650000000  0.4643200000000  0.4370270000000 1.0
C      1  0.5308120000000  0.5042010000000  0.4405960000000 1.0
C      1  0.5105320000000  0.4392760000000  0.5194280000000 1.0
C      1  0.4180200000000  0.5712120000000  0.5339860000000 1.0
C      1  0.5145250000000  0.4210330000000  0.5793240000000 1.0
C      1  0.4515950000000  0.4336770000000  0.4847420000000 1.0
C      1  0.4598520000000  0.5842800000000  0.4685500000000 1.0
C      1  0.5496480000000  0.4226930000000  0.5481900000000 1.0
C      1  0.5448560000000  0.4422070000000  0.4994580000000 1.0
C      1  0.4165450000000  0.4890580000000  0.4600930000000 1.0
C      1  0.5745550000000  0.5460330000000  0.5322800000000 1.0
C      1  0.4787030000000  0.4462200000000  0.4382660000000 1.0
C      1  0.4909990000000  0.4999630000000  0.4748470000000 1.0
C      1  0.4865710000000  0.5302130000000  0.5005990000000 1.0
C      1  0.5304320000000  0.5895840000000  0.4747380000000 1.0
C      1  0.5224180000000  0.4101080000000  0.5065910000000 1.0
C      1  0.5202910000000  0.5036360000000  0.5773500000000 1.0
C      1  0.4298540000000  0.4393340000000  0.4522080000000 1.0
C      1  0.5598330000000  0.4201870000000  0.5193230000000 1.0
C      1  0.4931880000000  0.4602790000000  0.5356910000000 1.0
C      1  0.4770480000000  0.4740520000000  0.5091020000000 1.0
C      1  0.4278700000000  0.5259020000000  0.5065440000000 1.0
C      1  0.5082510000000  0.4771970000000  0.5596780000000 1.0
C      1  0.5601700000000  0.4255390000000  0.4665240000000 1.0
C      1  0.5878290000000  0.4383380000000  0.5199350000000 1.0
C      1  0.4965410000000  0.5602550000000  0.4360940000000 1.0
C      1  0.4997880000000  0.5301540000000  0.5771510000000 1.0
C      1  0.5466860000000  0.5654700000000  0.5339900000000 1.0
C      1  0.4495260000000  0.4637950000000  0.5262430000000 1.0
C      1  0.5118160000000  0.5915350000000  0.5289440000000 1.0
C      1  0.5607330000000  0.4698290000000  0.4946180000000 1.0
C      1  0.5706720000000  0.5080460000000  0.5780590000000 1.0
C      1  0.4579290000000  0.5261760000000  0.5734800000000 1.0
C      1  0.4789260000000  0.4828260000000  0.4275380000000 1.0
C      1  0.4177690000000  0.4159450000000  0.5057790000000 1.0
C      1  0.5001060000000  0.4026600000000  0.5312000000000 1.0
C      1  0.4110900000000  0.5615590000000  0.4809450000000 1.0
C      1  0.4808020000000  0.5955500000000  0.5180610000000 1.0
C      1  0.5055490000000  0.4572810000000  0.4695210000000 1.0
C      1  0.5273300000000  0.4935080000000  0.5225350000000 1.0
C      1  0.5518720000000  0.5851660000000  0.4576510000000 1.0
C      1  0.4572210000000  0.4971740000000  0.5904440000000 1.0
C      1  0.5167140000000  0.5802180000000  0.5598490000000 1.0
C      1  0.5563230000000  0.4502490000000  0.5566130000000 1.0
C      1  0.5577550000000  0.5228680000000  0.4323400000000 1.0
C      1  0.4522030000000  0.5872350000000  0.5015490000000 1.0
C      1  0.5329320000000  0.4628450000000  0.5224470000000 1.0
C      1  0.4803930000000  0.4491240000000  0.5642880000000 1.0
C      1  0.5461450000000  0.5649500000000  0.5679860000000 1.0
C      1  0.4484330000000  0.5645650000000  0.4491520000000 1.0
C      1  0.5828290000000  0.4945800000000  0.5265870000000 1.0
C      1  0.4333110000000  0.5068350000000  0.5599820000000 1.0
C      1  0.5542390000000  0.4577230000000  0.4571490000000 1.0
C      1  0.5091820000000  0.5355380000000  0.4757520000000 1.0
C      1  0.4859750000000  0.5709760000000  0.4857770000000 1.0
C      1  0.4482540000000  0.4943430000000  0.4184320000000 1.0
C      1  0.5105700000000  0.4756580000000  0.5940530000000 1.0
C      1  0.5195990000000  0.5242800000000  0.5278900000000 1.0
C      1  0.5859090000000  0.5373890000000  0.5033020000000 1.0
C      1  0.5263160000000  0.5420870000000  0.5031200000000 1.0
C      1  0.5300890000000  0.5450390000000  0.4506770000000 1.0
C      1  0.4836460000000  0.6048950000000  0.4854860000000 1.0
C      1  0.5396000000000  0.5210350000000  0.4048510000000 1.0
C      1  0.5557790000000  0.4997350000000  0.5066420000000 1.0
C      1  0.5574950000000  0.5392550000000  0.5818760000000 1.0
C      1  0.4991350000000  0.5034880000000  0.4429390000000 1.0
C      1  0.4595980000000  0.4359530000000  0.5155440000000 1.0
C      1  0.4579870000000  0.4037290000000  0.4877350000000 1.0
C      1  0.4813220000000  0.5174210000000  0.6005440000000 1.0
C      1  0.4911810000000  0.5517540000000  0.5249710000000 1.0
C      1  0.4098970000000  0.5025570000000  0.5010550000000 1.0
C      1  0.4700890000000  0.5703770000000  0.5364180000000 1.0
C      1  0.4331380000000  0.4498200000000  0.5527320000000 1.0
C      1  0.5098970000000  0.5009360000000  0.6388670000000 1.0
C      1  0.5675760000000  0.5823240000000  0.4942180000000 1.0
C      1  0.4902780000000  0.5047760000000  0.4040120000000 1.0
C      1  0.4975900000000  0.4986190000000  0.5067590000000 1.0
C      1  0.5192260000000  0.5393110000000  0.4218240000000 1.0
C      1  0.5587180000000  0.4842160000000  0.4404280000000 1.0
C      1  0.5238770000000  0.4114380000000  0.5540340000000 1.0
C      1  0.4569260000000  0.4309120000000  0.5551150000000 1.0
C      1  0.5807870000000  0.5074870000000  0.4517370000000 1.0
C      1  0.4100480000000  0.5436430000000  0.4277880000000 1.0
C      1  0.5520590000000  0.5295320000000  0.5506020000000 1.0
C      1  0.5251530000000  0.5056250000000  0.4731080000000 1.0
C      1  0.4419240000000  0.5560960000000  0.5445290000000 1.0
C      1  0.4092480000000  0.5141020000000  0.4446070000000 1.0
C      1  0.4841870000000  0.4191240000000  0.4449580000000 1.0
C      1  0.4461420000000  0.4862480000000  0.4501840000000 1.0
C      1  0.4826870000000  0.4952670000000  0.5679900000000 1.0
C      1  0.4640860000000  0.4933600000000  0.3920520000000 1.0
C      1  0.5941020000000  0.5088100000000  0.4998220000000 1.0
C      1  0.5183390000000  0.4955390000000  0.3983800000000 1.0
C      1  0.4105620000000  0.4715580000000  0.4861240000000 1.0
C      1  0.5010900000000  0.4986000000000  0.6143900000000 1.0
C      1  0.4865500000000  0.4271560000000  0.5029560000000 1.0
C      1  0.5321540000000  0.4743110000000  0.4767410000000 1.0
C      1  0.4184670000000  0.4411180000000  0.4828130000000 1.0
C      1  0.5220640000000  0.4288500000000  0.4781930000000 1.0
C      1  0.4486430000000  0.5350930000000  0.4661290000000 1.0
C      1  0.4365320000000  0.5224850000000  0.4251330000000 1.0
C      1  0.5538710000000  0.5198400000000  0.4848100000000 1.0
C      1  0.4886080000000  0.5355430000000  0.4118460000000 1.0
C      1  0.4218660000000  0.4816730000000  0.5489230000000 1.0
C      1  0.4750340000000  0.4581020000000  0.4808400000000 1.0
C      1  0.4950120000000  0.5186720000000  0.5469080000000 1.0
C      1  0.4873050000000  0.6128840000000  0.4548480000000 1.0
C      1  0.5944990000000  0.4940810000000  0.4757260000000 1.0
C      1  0.4952480000000  0.5603480000000  0.5744470000000 1.0
C      1  0.4621280000000  0.5412660000000  0.4294890000000 1.0
C      1  0.4398120000000  0.4128170000000  0.5220780000000 1.0
C      1  0.5401070000000  0.5004960000000  0.5532660000000 1.0
END
