TITL C-2847945-6269-454 -0.00432621692786048 125000 -164.981940543018 0 0 31 (C1) n - 1
REM
REM in /home/bkarasulu/work/CARBON/AIRSS/Generating-Clusters/AIREBO/with-SteepDescent/Only-C1/SD-CG-opt/Try1-1.4A-POS3A/HFTN-CG
REM
REM
REM
REM
REM
REM ./C.cell (11c1c37f851c82e70ff6c80c92926a4b)
REM
REM compiler GCC version 9.2.1 20190827 (Red Hat 9.2.1-1)
REM options -cpp -mtune=generic -march=x86-64 -g -O0 -fpre-include=/usr/include/finclude/math-vector-fortran.h
REM seed -1760037072 -627416908 -482408278 520241656 1474868393 -1427347743 -1029450767 699256748 -1860090930 -1931245066 -146041782 989138188 -1136491312 -1094220545 -1384195171 1251579704 -795665644 -299882498 -1734005605 -445929596 -555955606 -148731179 -1158229777 -100650948 1024950853 -466068440 297974818 -1309129014 70347027 2036114990 -2026174557 1433282702 -1790581387
REM
CELL 1.54180   50.00000   50.00000   50.00000   90.00000   90.00000   90.00000
LATT -1
SFAC C  
C      1  0.4681240000000  0.4921910000000  0.4684130000000 1.0
C      1  0.4355070000000  0.4353320000000  0.5446250000000 1.0
C      1  0.5387800000000  0.5136020000000  0.5178470000000 1.0
C      1  0.4576840000000  0.4452110000000  0.5314280000000 1.0
C      1  0.4920190000000  0.5005510000000  0.4575610000000 1.0
C      1  0.4923270000000  0.5234380000000  0.5059920000000 1.0
C      1  0.5185660000000  0.4826790000000  0.4669530000000 1.0
C      1  0.5178860000000  0.5696530000000  0.4881960000000 1.0
C      1  0.4140300000000  0.4283810000000  0.5579440000000 1.0
C      1  0.5277110000000  0.4628860000000  0.4502450000000 1.0
C      1  0.5345650000000  0.5703660000000  0.5162080000000 1.0
C      1  0.5546740000000  0.5295090000000  0.4923470000000 1.0
C      1  0.4471440000000  0.5128200000000  0.4798300000000 1.0
C      1  0.5089500000000  0.5213510000000  0.4697050000000 1.0
C      1  0.4564140000000  0.4543180000000  0.5049730000000 1.0
C      1  0.4420560000000  0.4411540000000  0.4862150000000 1.0
C      1  0.5462150000000  0.4475210000000  0.5044810000000 1.0
C      1  0.4728030000000  0.4769990000000  0.4971540000000 1.0
C      1  0.4973480000000  0.5471640000000  0.4847910000000 1.0
C      1  0.5100820000000  0.5943960000000  0.4777420000000 1.0
C      1  0.4680400000000  0.5099890000000  0.5039030000000 1.0
C      1  0.5484400000000  0.5590010000000  0.4805910000000 1.0
C      1  0.5352660000000  0.5100270000000  0.4782200000000 1.0
C      1  0.5219640000000  0.4565800000000  0.5120910000000 1.0
C      1  0.5083720000000  0.4471240000000  0.5343480000000 1.0
C      1  0.5536460000000  0.5280750000000  0.5412440000000 1.0
C      1  0.5131860000000  0.5058180000000  0.5116770000000 1.0
C      1  0.5527900000000  0.5505730000000  0.5194450000000 1.0
C      1  0.5093980000000  0.4793020000000  0.4980210000000 1.0
C      1  0.4828760000000  0.4464190000000  0.5433390000000 1.0
C      1  0.4731380000000  0.5575730000000  0.4744720000000 1.0
END
