TITL C-2848509-3138-415 -4.86531256969461e-06 125000 -54.0528371784943 0 0 11 (C1) n - 1
REM
REM in /home/bkarasulu/work/CARBON/AIRSS/Generating-Clusters/AIREBO/with-SteepDescent/Only-C1/SD-CG-opt/Try1-1.4A-POS3A/HFTN-CG
REM
REM
REM
REM
REM
REM ./C.cell (11c1c37f851c82e70ff6c80c92926a4b)
REM
REM compiler GCC version 9.2.1 20190827 (Red Hat 9.2.1-1)
REM options -cpp -mtune=generic -march=x86-64 -g -O0 -fpre-include=/usr/include/finclude/math-vector-fortran.h
REM seed -210449687 -541424348 805519193 661589557 -1990121033 800527071 1457695514 1905738493 -1096164235 -850290486 -699944416 -1549408473 1026766131 -21834951 -1806436840 193153471 -2039856396 512391355 -267521216 -454065337 -121089227 -1949008135 -1561304713 -1288347741 780669760 -1096464281 -1611597577 1565119518 236746530 -534815625 -606430116 -1296864727 749540767
REM
CELL 1.54180   50.00000   50.00000   50.00000   90.00000   90.00000   90.00000
LATT -1
SFAC C  
C      1  0.5108480000000  0.4991890000000  0.5188200000000 1.0
C      1  0.4983700000000  0.4968640000000  0.4724490000000 1.0
C      1  0.5051410000000  0.5211970000000  0.4518480000000 1.0
C      1  0.5267090000000  0.4843230000000  0.5348570000000 1.0
C      1  0.5084190000000  0.5271970000000  0.5227350000000 1.0
C      1  0.4962520000000  0.4871470000000  0.4976660000000 1.0
C      1  0.4635540000000  0.4458420000000  0.5089690000000 1.0
C      1  0.4956560000000  0.4928280000000  0.4402250000000 1.0
C      1  0.5308320000000  0.5421990000000  0.5245390000000 1.0
C      1  0.4837820000000  0.5381550000000  0.5246390000000 1.0
C      1  0.4804370000000  0.4650590000000  0.5032530000000 1.0
END
