TITL C-2848506-1665-176 -0.00424436330280254 125000 -666.704894299595 0 0 120 (C1) n - 1
REM
REM in /home/bkarasulu/work/CARBON/AIRSS/Generating-Clusters/AIREBO/with-SteepDescent/Only-C1/SD-CG-opt/Try1-1.4A-POS3A/HFTN-CG
REM
REM
REM
REM
REM
REM ./C.cell (11c1c37f851c82e70ff6c80c92926a4b)
REM
REM compiler GCC version 9.2.1 20190827 (Red Hat 9.2.1-1)
REM options -cpp -mtune=generic -march=x86-64 -g -O0 -fpre-include=/usr/include/finclude/math-vector-fortran.h
REM seed -150341829 -2130219259 -815731113 -423200873 1496094375 -1579245399 903382015 -1429852748 -662353960 876008222 898075078 -1863839005 1268903505 -350142652 999724878 -1301725786 173333768 -1950069850 1850909715 -954777055 -223339710 1352300085 638879427 731169633 1485025430 1390852658 -214620221 1975246319 -2024031711 1402569178 32428057 -750653709 633941734
REM
CELL 1.54180   50.00000   50.00000   50.00000   90.00000   90.00000   90.00000
LATT -1
SFAC C  
C      1  0.4947020000000  0.4130910000000  0.5287310000000 1.0
C      1  0.4011940000000  0.4988230000000  0.4421030000000 1.0
C      1  0.4910010000000  0.5447370000000  0.4621690000000 1.0
C      1  0.5663960000000  0.4648400000000  0.4950300000000 1.0
C      1  0.5733010000000  0.4184310000000  0.4903250000000 1.0
C      1  0.4104270000000  0.5008190000000  0.5265570000000 1.0
C      1  0.4984820000000  0.4427170000000  0.5239450000000 1.0
C      1  0.4724460000000  0.4267990000000  0.4778720000000 1.0
C      1  0.4012140000000  0.4962990000000  0.4716400000000 1.0
C      1  0.4435980000000  0.5074970000000  0.4138390000000 1.0
C      1  0.5264420000000  0.4531850000000  0.5248650000000 1.0
C      1  0.4895020000000  0.5203600000000  0.5203510000000 1.0
C      1  0.4749870000000  0.4745380000000  0.4951560000000 1.0
C      1  0.4525340000000  0.5276960000000  0.3967540000000 1.0
C      1  0.5462640000000  0.5838770000000  0.5185050000000 1.0
C      1  0.4690140000000  0.4606070000000  0.5633140000000 1.0
C      1  0.4060770000000  0.4686260000000  0.4769300000000 1.0
C      1  0.5304730000000  0.4015580000000  0.4889780000000 1.0
C      1  0.6004550000000  0.5158590000000  0.4684630000000 1.0
C      1  0.5187690000000  0.4068930000000  0.4574870000000 1.0
C      1  0.4758650000000  0.4691090000000  0.4236590000000 1.0
C      1  0.5463890000000  0.4468150000000  0.4540300000000 1.0
C      1  0.5558950000000  0.5771680000000  0.4608290000000 1.0
C      1  0.4885500000000  0.5474370000000  0.4305650000000 1.0
C      1  0.4107050000000  0.5107450000000  0.4981360000000 1.0
C      1  0.5609390000000  0.5618860000000  0.5271650000000 1.0
C      1  0.4553710000000  0.4526160000000  0.4776270000000 1.0
C      1  0.4538820000000  0.4170430000000  0.5051340000000 1.0
C      1  0.5812360000000  0.4935390000000  0.5309910000000 1.0
C      1  0.5497610000000  0.4750510000000  0.5656320000000 1.0
C      1  0.4572500000000  0.4308450000000  0.5537780000000 1.0
C      1  0.5247710000000  0.5755010000000  0.5029490000000 1.0
C      1  0.5024660000000  0.5724850000000  0.5795500000000 1.0
C      1  0.5142780000000  0.4958230000000  0.5916070000000 1.0
C      1  0.5394040000000  0.5174770000000  0.5895400000000 1.0
C      1  0.4241500000000  0.5180660000000  0.5490430000000 1.0
C      1  0.5599020000000  0.5037270000000  0.4338240000000 1.0
C      1  0.5702550000000  0.5577030000000  0.4552580000000 1.0
C      1  0.4815010000000  0.4782170000000  0.4621530000000 1.0
C      1  0.4201480000000  0.4748990000000  0.5400780000000 1.0
C      1  0.4938380000000  0.5011670000000  0.4934590000000 1.0
C      1  0.5454530000000  0.4866250000000  0.5905730000000 1.0
C      1  0.4215680000000  0.4479700000000  0.5263340000000 1.0
C      1  0.4464410000000  0.5597280000000  0.5243060000000 1.0
C      1  0.5902460000000  0.4816620000000  0.5074380000000 1.0
C      1  0.5233050000000  0.4512520000000  0.4789280000000 1.0
C      1  0.4855320000000  0.4231200000000  0.5561180000000 1.0
C      1  0.5216230000000  0.5640460000000  0.4452290000000 1.0
C      1  0.4498030000000  0.4810380000000  0.5490980000000 1.0
C      1  0.5141200000000  0.4972420000000  0.4499300000000 1.0
C      1  0.5068160000000  0.5418870000000  0.5685170000000 1.0
C      1  0.4506680000000  0.4762940000000  0.4536750000000 1.0
C      1  0.5747200000000  0.4771530000000  0.5530310000000 1.0
C      1  0.4621020000000  0.5369810000000  0.5089490000000 1.0
C      1  0.5199930000000  0.5230150000000  0.4946250000000 1.0
C      1  0.4518330000000  0.5099290000000  0.5557540000000 1.0
C      1  0.4739270000000  0.5941670000000  0.5418190000000 1.0
C      1  0.4245080000000  0.4489520000000  0.4660280000000 1.0
C      1  0.5521000000000  0.4090160000000  0.5065710000000 1.0
C      1  0.4565220000000  0.5726290000000  0.5469180000000 1.0
C      1  0.4833940000000  0.5558360000000  0.4926320000000 1.0
C      1  0.5346650000000  0.4837420000000  0.4187680000000 1.0
C      1  0.4401260000000  0.4892030000000  0.4824890000000 1.0
C      1  0.5347450000000  0.4305770000000  0.5566220000000 1.0
C      1  0.4933220000000  0.4742950000000  0.5787240000000 1.0
C      1  0.5339390000000  0.4735320000000  0.5002310000000 1.0
C      1  0.5352550000000  0.5398890000000  0.4478720000000 1.0
C      1  0.4415930000000  0.5214100000000  0.4936470000000 1.0
C      1  0.4564590000000  0.6134060000000  0.4529090000000 1.0
C      1  0.4740460000000  0.6022020000000  0.5150980000000 1.0
C      1  0.5313460000000  0.4977860000000  0.5230220000000 1.0
C      1  0.6012300000000  0.4862390000000  0.4797990000000 1.0
C      1  0.5047390000000  0.4995740000000  0.5428010000000 1.0
C      1  0.4933610000000  0.4500540000000  0.4647820000000 1.0
C      1  0.5519080000000  0.6094370000000  0.5244060000000 1.0
C      1  0.5473960000000  0.5336150000000  0.4774700000000 1.0
C      1  0.4936700000000  0.5583670000000  0.5434260000000 1.0
C      1  0.5672200000000  0.4413640000000  0.4775110000000 1.0
C      1  0.4531880000000  0.5147360000000  0.4642280000000 1.0
C      1  0.5073170000000  0.5304710000000  0.4104520000000 1.0
C      1  0.4755100000000  0.5858300000000  0.4925710000000 1.0
C      1  0.4822170000000  0.5025560000000  0.5944340000000 1.0
C      1  0.4196130000000  0.4901130000000  0.4211820000000 1.0
C      1  0.5366530000000  0.5356560000000  0.5661790000000 1.0
C      1  0.5712000000000  0.5243600000000  0.4549460000000 1.0
C      1  0.5099440000000  0.4251350000000  0.4910160000000 1.0
C      1  0.4706170000000  0.5346670000000  0.5892720000000 1.0
C      1  0.4094190000000  0.5363470000000  0.5623030000000 1.0
C      1  0.5623080000000  0.4949690000000  0.4821170000000 1.0
C      1  0.5632620000000  0.5397610000000  0.5071560000000 1.0
C      1  0.4765570000000  0.4577420000000  0.5313900000000 1.0
C      1  0.4421500000000  0.4286960000000  0.5292120000000 1.0
C      1  0.4526770000000  0.4736920000000  0.5169890000000 1.0
C      1  0.5084610000000  0.5480050000000  0.5145990000000 1.0
C      1  0.5803050000000  0.5175390000000  0.4928690000000 1.0
C      1  0.4436190000000  0.4675220000000  0.4127920000000 1.0
C      1  0.4688540000000  0.5537240000000  0.5662700000000 1.0
C      1  0.4975250000000  0.5916380000000  0.5585780000000 1.0
C      1  0.4636260000000  0.4966030000000  0.4308290000000 1.0
C      1  0.5071730000000  0.4685590000000  0.4321410000000 1.0
C      1  0.5788460000000  0.4790260000000  0.4588200000000 1.0
C      1  0.5307260000000  0.4975120000000  0.4760040000000 1.0
C      1  0.4923010000000  0.3992620000000  0.4777550000000 1.0
C      1  0.5586170000000  0.4698880000000  0.4369220000000 1.0
C      1  0.5157650000000  0.4373330000000  0.4425910000000 1.0
C      1  0.4772100000000  0.5387810000000  0.4025120000000 1.0
C      1  0.4794410000000  0.4018660000000  0.5080670000000 1.0
C      1  0.4735500000000  0.5974140000000  0.4661110000000 1.0
C      1  0.5256470000000  0.5820750000000  0.4737790000000 1.0
C      1  0.4254170000000  0.4673270000000  0.5013780000000 1.0
C      1  0.5221650000000  0.4711890000000  0.5512400000000 1.0
C      1  0.5292650000000  0.5165480000000  0.4265180000000 1.0
C      1  0.5057810000000  0.4452830000000  0.5660170000000 1.0
C      1  0.4955640000000  0.5782700000000  0.4588560000000 1.0
C      1  0.4842370000000  0.5169170000000  0.5636560000000 1.0
C      1  0.5589780000000  0.5542270000000  0.5530440000000 1.0
C      1  0.5447000000000  0.4255630000000  0.5290820000000 1.0
C      1  0.5304920000000  0.5301550000000  0.5333980000000 1.0
C      1  0.5595640000000  0.5132800000000  0.5264790000000 1.0
C      1  0.4860130000000  0.5119570000000  0.4621800000000 1.0
END
