TITL C-2848500-1637-68 0.000713118053903574 125000 -402.036019539375 0 0 76 (C1) n - 1
REM
REM in /home/bkarasulu/work/CARBON/AIRSS/Generating-Clusters/AIREBO/with-SteepDescent/Only-C1/SD-CG-opt/Try1-1.4A-POS3A/HFTN-CG
REM
REM
REM
REM
REM
REM ./C.cell (11c1c37f851c82e70ff6c80c92926a4b)
REM
REM compiler GCC version 9.2.1 20190827 (Red Hat 9.2.1-1)
REM options -cpp -mtune=generic -march=x86-64 -g -O0 -fpre-include=/usr/include/finclude/math-vector-fortran.h
REM seed 1907769293 -721917427 -742187173 -2002985937 2130161393 1832040971 1388132544 -142243951 991464151 -1176249799 2027198069 760216277 -1855854876 1412324375 1429706250 -1470471708 1113363531 973318846 78429987 1207489749 1918563095 -1561721065 362830431 1306086274 -1178246870 -283926306 1031978606 -2140117127 -633794606 1776338578 843572920 -231256435 -766918220
REM
CELL 1.54180   50.00000   50.00000   50.00000   90.00000   90.00000   90.00000
LATT -1
SFAC C  
C      1  0.5035440000000  0.4078090000000  0.4537730000000 1.0
C      1  0.5631580000000  0.5087840000000  0.4631570000000 1.0
C      1  0.5263920000000  0.4408910000000  0.4988510000000 1.0
C      1  0.4551330000000  0.5040220000000  0.4322590000000 1.0
C      1  0.5708960000000  0.5600340000000  0.5677090000000 1.0
C      1  0.4707590000000  0.5229770000000  0.5412360000000 1.0
C      1  0.5497970000000  0.4692000000000  0.5135000000000 1.0
C      1  0.5372890000000  0.4926440000000  0.4776460000000 1.0
C      1  0.4988840000000  0.5256890000000  0.4034250000000 1.0
C      1  0.4133570000000  0.5108920000000  0.4777040000000 1.0
C      1  0.5549480000000  0.5463370000000  0.5184880000000 1.0
C      1  0.4923640000000  0.5865330000000  0.5050060000000 1.0
C      1  0.5261740000000  0.5433730000000  0.5102820000000 1.0
C      1  0.5611350000000  0.5372390000000  0.4711470000000 1.0
C      1  0.4840950000000  0.4331490000000  0.4450460000000 1.0
C      1  0.4364670000000  0.4885150000000  0.5233710000000 1.0
C      1  0.5174340000000  0.5138070000000  0.5471010000000 1.0
C      1  0.5104340000000  0.4322920000000  0.5412130000000 1.0
C      1  0.5074190000000  0.4079040000000  0.5500730000000 1.0
C      1  0.5184210000000  0.5972450000000  0.4940860000000 1.0
C      1  0.4514720000000  0.4769360000000  0.4469100000000 1.0
C      1  0.4862710000000  0.5080210000000  0.5072920000000 1.0
C      1  0.4668500000000  0.4937510000000  0.5312760000000 1.0
C      1  0.4429740000000  0.5182110000000  0.4809210000000 1.0
C      1  0.5719430000000  0.5451270000000  0.4959360000000 1.0
C      1  0.5318960000000  0.4959300000000  0.5245520000000 1.0
C      1  0.5518140000000  0.4853240000000  0.5500000000000 1.0
C      1  0.4687700000000  0.4527370000000  0.4539600000000 1.0
C      1  0.4962140000000  0.5620480000000  0.5496410000000 1.0
C      1  0.6095850000000  0.4997620000000  0.4476680000000 1.0
C      1  0.5329810000000  0.5116770000000  0.5759290000000 1.0
C      1  0.5375610000000  0.4427100000000  0.5309790000000 1.0
C      1  0.5854280000000  0.4703520000000  0.4788170000000 1.0
C      1  0.4082730000000  0.4765910000000  0.5113050000000 1.0
C      1  0.5000920000000  0.5368790000000  0.5311160000000 1.0
C      1  0.5629550000000  0.5546150000000  0.5433280000000 1.0
C      1  0.4395790000000  0.4383990000000  0.5344100000000 1.0
C      1  0.4358000000000  0.4575550000000  0.5103890000000 1.0
C      1  0.4565630000000  0.4629700000000  0.4840050000000 1.0
C      1  0.5880680000000  0.4931740000000  0.4630960000000 1.0
C      1  0.5186910000000  0.5125670000000  0.4979780000000 1.0
C      1  0.5633030000000  0.4590020000000  0.4888200000000 1.0
C      1  0.4286980000000  0.4727520000000  0.4660760000000 1.0
C      1  0.5141680000000  0.4692970000000  0.5130220000000 1.0
C      1  0.4647900000000  0.4958190000000  0.4860180000000 1.0
C      1  0.4308470000000  0.5516300000000  0.5318170000000 1.0
C      1  0.5379680000000  0.4996020000000  0.4449170000000 1.0
C      1  0.4833160000000  0.4608170000000  0.5054290000000 1.0
C      1  0.4598680000000  0.4456150000000  0.5515090000000 1.0
C      1  0.4944220000000  0.4803050000000  0.4798730000000 1.0
C      1  0.5167640000000  0.5157300000000  0.4279870000000 1.0
C      1  0.4518860000000  0.5134750000000  0.5807560000000 1.0
C      1  0.5549900000000  0.4600650000000  0.5519850000000 1.0
C      1  0.4334570000000  0.5179660000000  0.5278220000000 1.0
C      1  0.4832130000000  0.5436080000000  0.4578680000000 1.0
C      1  0.4758260000000  0.4995000000000  0.5767770000000 1.0
C      1  0.4956790000000  0.5504200000000  0.5750440000000 1.0
C      1  0.4539420000000  0.5287580000000  0.4551050000000 1.0
C      1  0.4876590000000  0.5594350000000  0.4849710000000 1.0
C      1  0.5103860000000  0.5266320000000  0.4681330000000 1.0
C      1  0.4746730000000  0.4758800000000  0.5560320000000 1.0
C      1  0.4996410000000  0.5178050000000  0.5754480000000 1.0
C      1  0.4835670000000  0.5215060000000  0.4320580000000 1.0
C      1  0.5232710000000  0.4651370000000  0.4747180000000 1.0
C      1  0.4879540000000  0.4511650000000  0.5367190000000 1.0
C      1  0.4776060000000  0.5400160000000  0.5057900000000 1.0
C      1  0.5355390000000  0.5474190000000  0.4653270000000 1.0
C      1  0.4888920000000  0.5837660000000  0.5330900000000 1.0
C      1  0.5437190000000  0.4390680000000  0.4701590000000 1.0
C      1  0.5200460000000  0.5641060000000  0.4875050000000 1.0
C      1  0.5053460000000  0.4961700000000  0.4538800000000 1.0
C      1  0.4471170000000  0.5374720000000  0.5052660000000 1.0
C      1  0.4395040000000  0.5068510000000  0.4091770000000 1.0
C      1  0.5343620000000  0.4190300000000  0.4512850000000 1.0
C      1  0.5122280000000  0.4272990000000  0.4282060000000 1.0
C      1  0.4434720000000  0.5322100000000  0.5568350000000 1.0
END
