TITL C-2847956-8218-508 -0.000303096773977161 125000 -195.913220027656 0 0 37 (C1) n - 1
REM
REM in /home/bkarasulu/work/CARBON/AIRSS/Generating-Clusters/AIREBO/with-SteepDescent/Only-C1/SD-CG-opt/Try1-1.4A-POS3A/HFTN-CG
REM
REM
REM
REM
REM
REM ./C.cell (11c1c37f851c82e70ff6c80c92926a4b)
REM
REM compiler GCC version 9.2.1 20190827 (Red Hat 9.2.1-1)
REM options -cpp -mtune=generic -march=x86-64 -g -O0 -fpre-include=/usr/include/finclude/math-vector-fortran.h
REM seed 1500221623 1782571744 -1497731676 1179388244 -1690883900 -395805115 -1559034001 801828420 969364874 -1430808974 517191405 1366266283 2027383046 1748313025 -1998980757 -1574495504 -601678272 1051864460 -1522913977 295210130 -638879197 305912540 1027239305 -264751526 -2016844833 -1685052860 1739371501 -569417797 -654670346 -271071787 -1016036661 -1028921974 -1672926972
REM
CELL 1.54180   50.00000   50.00000   50.00000   90.00000   90.00000   90.00000
LATT -1
SFAC C  
C      1  0.4949220000000  0.4697440000000  0.4304820000000 1.0
C      1  0.5484300000000  0.4931390000000  0.5328750000000 1.0
C      1  0.5204400000000  0.5365620000000  0.4649650000000 1.0
C      1  0.4988660000000  0.4876090000000  0.4754440000000 1.0
C      1  0.4859310000000  0.4583240000000  0.4796670000000 1.0
C      1  0.4685340000000  0.4534760000000  0.5039180000000 1.0
C      1  0.5183490000000  0.4934480000000  0.4937200000000 1.0
C      1  0.4741790000000  0.5212250000000  0.5460270000000 1.0
C      1  0.4859790000000  0.4734150000000  0.5496140000000 1.0
C      1  0.5407670000000  0.4604350000000  0.4955840000000 1.0
C      1  0.4581410000000  0.4294820000000  0.5071760000000 1.0
C      1  0.5157440000000  0.4705510000000  0.5365030000000 1.0
C      1  0.5077030000000  0.4948870000000  0.5189330000000 1.0
C      1  0.5082770000000  0.4941490000000  0.4286430000000 1.0
C      1  0.4782300000000  0.5029470000000  0.5213990000000 1.0
C      1  0.5065240000000  0.5149520000000  0.4471420000000 1.0
C      1  0.5380340000000  0.4993600000000  0.5587920000000 1.0
C      1  0.5480280000000  0.4878750000000  0.4847720000000 1.0
C      1  0.4805070000000  0.5566630000000  0.4374150000000 1.0
C      1  0.4371380000000  0.4761630000000  0.5344140000000 1.0
C      1  0.4805580000000  0.5651100000000  0.4859260000000 1.0
C      1  0.5490070000000  0.5173630000000  0.5755420000000 1.0
C      1  0.4639830000000  0.4743340000000  0.5263150000000 1.0
C      1  0.5393060000000  0.5326820000000  0.4836120000000 1.0
C      1  0.5431980000000  0.4636520000000  0.5241930000000 1.0
C      1  0.5136440000000  0.4834650000000  0.5666400000000 1.0
C      1  0.4664370000000  0.5173870000000  0.4970380000000 1.0
C      1  0.4437250000000  0.5304340000000  0.4990970000000 1.0
C      1  0.5653520000000  0.5409560000000  0.4994690000000 1.0
C      1  0.4722980000000  0.5379370000000  0.5652370000000 1.0
C      1  0.4881170000000  0.5468460000000  0.4626170000000 1.0
C      1  0.4758750000000  0.5820320000000  0.5044590000000 1.0
C      1  0.4748580000000  0.4677090000000  0.4505780000000 1.0
C      1  0.4602860000000  0.4916010000000  0.4527730000000 1.0
C      1  0.5510970000000  0.5114140000000  0.5077990000000 1.0
C      1  0.4797810000000  0.5140340000000  0.4681310000000 1.0
C      1  0.5177550000000  0.4486370000000  0.4830900000000 1.0
END
