TITL C-2848506-1665-365 0.00345483632490706 125000 -797.423427404693 0 0 150 (C1) n - 1
REM
REM in /home/bkarasulu/work/CARBON/AIRSS/Generating-Clusters/AIREBO/with-SteepDescent/Only-C1/SD-CG-opt/Try1-1.4A-POS3A/HFTN-CG
REM
REM
REM
REM
REM
REM ./C.cell (11c1c37f851c82e70ff6c80c92926a4b)
REM
REM compiler GCC version 9.2.1 20190827 (Red Hat 9.2.1-1)
REM options -cpp -mtune=generic -march=x86-64 -g -O0 -fpre-include=/usr/include/finclude/math-vector-fortran.h
REM seed -49765056 1081522380 1730810998 291073429 -191017865 32643926 465014479 -1167760374 -1680411251 -1457388617 435353003 668720397 -1428881372 1545859882 1271237674 -1989918378 -446173125 1300154045 -1542853258 1641870942 -1818099710 -929255127 747980966 -1797702385 -1613972526 1187346381 -562739147 1876307464 -1310943474 -1972745240 75791715 -941974156 -793061540
REM
CELL 1.54180   50.00000   50.00000   50.00000   90.00000   90.00000   90.00000
LATT -1
SFAC C  
C      1  0.5183530000000  0.4182170000000  0.4666090000000 1.0
C      1  0.4933050000000  0.5675050000000  0.4340370000000 1.0
C      1  0.5436990000000  0.5560070000000  0.5217750000000 1.0
C      1  0.4970930000000  0.5199990000000  0.4755860000000 1.0
C      1  0.4946320000000  0.4172550000000  0.5796690000000 1.0
C      1  0.5664120000000  0.5862650000000  0.5592630000000 1.0
C      1  0.5115260000000  0.5674370000000  0.5273420000000 1.0
C      1  0.5587610000000  0.5373600000000  0.4329820000000 1.0
C      1  0.4648500000000  0.5855600000000  0.4832060000000 1.0
C      1  0.4843440000000  0.4595470000000  0.4029470000000 1.0
C      1  0.5963520000000  0.4574110000000  0.5032860000000 1.0
C      1  0.5262510000000  0.4505880000000  0.5519080000000 1.0
C      1  0.4264450000000  0.4767910000000  0.5611950000000 1.0
C      1  0.5231130000000  0.5663080000000  0.4893880000000 1.0
C      1  0.4821590000000  0.4184660000000  0.4936680000000 1.0
C      1  0.3737200000000  0.4548280000000  0.4894650000000 1.0
C      1  0.4785620000000  0.5571870000000  0.4751230000000 1.0
C      1  0.4395700000000  0.4711290000000  0.6152840000000 1.0
C      1  0.4694940000000  0.5106710000000  0.5595470000000 1.0
C      1  0.4995800000000  0.4577630000000  0.4473490000000 1.0
C      1  0.5582990000000  0.5257510000000  0.5162530000000 1.0
C      1  0.5601870000000  0.5331520000000  0.5894640000000 1.0
C      1  0.5576590000000  0.5691510000000  0.4696710000000 1.0
C      1  0.4412010000000  0.5078090000000  0.5408790000000 1.0
C      1  0.5423190000000  0.5690240000000  0.5525190000000 1.0
C      1  0.5634840000000  0.5229250000000  0.5497420000000 1.0
C      1  0.4284120000000  0.5354150000000  0.4934840000000 1.0
C      1  0.5855500000000  0.4694800000000  0.5267050000000 1.0
C      1  0.4640460000000  0.5199310000000  0.4316400000000 1.0
C      1  0.5900330000000  0.5330770000000  0.5393120000000 1.0
C      1  0.4218330000000  0.5128710000000  0.4688790000000 1.0
C      1  0.4590140000000  0.4133700000000  0.4772050000000 1.0
C      1  0.4903060000000  0.5520670000000  0.4091830000000 1.0
C      1  0.4972470000000  0.4951600000000  0.5615290000000 1.0
C      1  0.4772050000000  0.5381240000000  0.5413780000000 1.0
C      1  0.5425540000000  0.4963300000000  0.5464670000000 1.0
C      1  0.4601390000000  0.4646860000000  0.4169050000000 1.0
C      1  0.5444800000000  0.4062510000000  0.4940990000000 1.0
C      1  0.4820720000000  0.4487380000000  0.5769900000000 1.0
C      1  0.4365870000000  0.4972390000000  0.4233460000000 1.0
C      1  0.5141430000000  0.5833330000000  0.5568000000000 1.0
C      1  0.5303140000000  0.5532580000000  0.4345590000000 1.0
C      1  0.5563420000000  0.4280540000000  0.5646850000000 1.0
C      1  0.5113350000000  0.4523680000000  0.5235590000000 1.0
C      1  0.5207670000000  0.4844180000000  0.4433890000000 1.0
C      1  0.5525180000000  0.4590330000000  0.5013270000000 1.0
C      1  0.4357660000000  0.4282480000000  0.4375830000000 1.0
C      1  0.5580380000000  0.4490970000000  0.4692760000000 1.0
C      1  0.5463980000000  0.4681550000000  0.5335320000000 1.0
C      1  0.4626350000000  0.4163940000000  0.4475800000000 1.0
C      1  0.4723320000000  0.4570120000000  0.4898340000000 1.0
C      1  0.4884520000000  0.4270330000000  0.4406970000000 1.0
C      1  0.5115760000000  0.4828120000000  0.4760900000000 1.0
C      1  0.4319540000000  0.5712090000000  0.5282280000000 1.0
C      1  0.4796690000000  0.4789600000000  0.4649780000000 1.0
C      1  0.5776820000000  0.4695510000000  0.4175360000000 1.0
C      1  0.4502100000000  0.4559970000000  0.5663550000000 1.0
C      1  0.5219380000000  0.4258230000000  0.4336640000000 1.0
C      1  0.4743450000000  0.5319470000000  0.5930080000000 1.0
C      1  0.4347150000000  0.4577680000000  0.4763410000000 1.0
C      1  0.5184970000000  0.6145800000000  0.5039030000000 1.0
C      1  0.4593360000000  0.4920530000000  0.5168090000000 1.0
C      1  0.4330550000000  0.4311100000000  0.4695580000000 1.0
C      1  0.4694590000000  0.5033580000000  0.4863680000000 1.0
C      1  0.4642620000000  0.4159900000000  0.5633400000000 1.0
C      1  0.4996940000000  0.5258250000000  0.5869640000000 1.0
C      1  0.3993570000000  0.5124860000000  0.5290440000000 1.0
C      1  0.5513710000000  0.5172460000000  0.4829750000000 1.0
C      1  0.4307010000000  0.5372600000000  0.5273730000000 1.0
C      1  0.4850260000000  0.5508190000000  0.5140060000000 1.0
C      1  0.5154630000000  0.4914370000000  0.5051400000000 1.0
C      1  0.4641950000000  0.4870090000000  0.4383630000000 1.0
C      1  0.5432660000000  0.4463990000000  0.6036530000000 1.0
C      1  0.5088660000000  0.5317710000000  0.4050980000000 1.0
C      1  0.5301620000000  0.4627610000000  0.5821390000000 1.0
C      1  0.5420820000000  0.5412230000000  0.5643360000000 1.0
C      1  0.4344580000000  0.4526310000000  0.4225220000000 1.0
C      1  0.5651330000000  0.5064030000000  0.4571770000000 1.0
C      1  0.4378660000000  0.4912200000000  0.4830880000000 1.0
C      1  0.4446820000000  0.5742840000000  0.4581090000000 1.0
C      1  0.5856120000000  0.4621610000000  0.4788980000000 1.0
C      1  0.5412220000000  0.4905970000000  0.5778220000000 1.0
C      1  0.4984760000000  0.4208750000000  0.5237050000000 1.0
C      1  0.4958700000000  0.4817570000000  0.5308620000000 1.0
C      1  0.5096690000000  0.5904570000000  0.4732420000000 1.0
C      1  0.4841250000000  0.4345460000000  0.5461560000000 1.0
C      1  0.4970280000000  0.5928840000000  0.4433470000000 1.0
C      1  0.4104040000000  0.5561610000000  0.5728000000000 1.0
C      1  0.5004350000000  0.4717940000000  0.5806800000000 1.0
C      1  0.5612520000000  0.4481510000000  0.4189430000000 1.0
C      1  0.5544520000000  0.4265170000000  0.4439770000000 1.0
C      1  0.5472250000000  0.4003780000000  0.4644890000000 1.0
C      1  0.4720000000000  0.4632670000000  0.5412780000000 1.0
C      1  0.4449240000000  0.4337880000000  0.5411490000000 1.0
C      1  0.4582840000000  0.5416620000000  0.5680950000000 1.0
C      1  0.4934020000000  0.5133040000000  0.4434220000000 1.0
C      1  0.5926530000000  0.4883430000000  0.4656960000000 1.0
C      1  0.5241230000000  0.4515530000000  0.4700500000000 1.0
C      1  0.5921650000000  0.5122060000000  0.4858420000000 1.0
C      1  0.4990240000000  0.4379190000000  0.4117260000000 1.0
C      1  0.4302050000000  0.5463660000000  0.5592610000000 1.0
C      1  0.5584340000000  0.4268720000000  0.5043820000000 1.0
C      1  0.5152640000000  0.5236230000000  0.5568130000000 1.0
C      1  0.4838060000000  0.5121820000000  0.5225090000000 1.0
C      1  0.5458530000000  0.4911320000000  0.5011150000000 1.0
C      1  0.4632550000000  0.5456980000000  0.4192750000000 1.0
C      1  0.5074370000000  0.5002230000000  0.4163520000000 1.0
C      1  0.5685720000000  0.4480280000000  0.5469030000000 1.0
C      1  0.3988630000000  0.5216660000000  0.5031840000000 1.0
C      1  0.5135410000000  0.4062480000000  0.4983620000000 1.0
C      1  0.3918220000000  0.4752440000000  0.4906890000000 1.0
C      1  0.5371620000000  0.5419380000000  0.4720640000000 1.0
C      1  0.5065850000000  0.5477210000000  0.4583050000000 1.0
C      1  0.4386540000000  0.5827570000000  0.5047120000000 1.0
C      1  0.4166400000000  0.4858310000000  0.5324990000000 1.0
C      1  0.4210930000000  0.4709060000000  0.5046050000000 1.0
C      1  0.5004380000000  0.5965710000000  0.5737240000000 1.0
C      1  0.4880040000000  0.6043470000000  0.4914250000000 1.0
C      1  0.5112120000000  0.5368930000000  0.5016650000000 1.0
C      1  0.4131320000000  0.5035340000000  0.4444260000000 1.0
C      1  0.4298770000000  0.5662460000000  0.4819250000000 1.0
C      1  0.5813160000000  0.4115450000000  0.4373090000000 1.0
C      1  0.5330180000000  0.5785780000000  0.4526970000000 1.0
C      1  0.4133970000000  0.4744050000000  0.4267890000000 1.0
C      1  0.5236840000000  0.5124610000000  0.5942760000000 1.0
C      1  0.4483090000000  0.5654980000000  0.4323840000000 1.0
C      1  0.5097190000000  0.4840870000000  0.3692370000000 1.0
C      1  0.5896430000000  0.5374200000000  0.5085140000000 1.0
C      1  0.5826100000000  0.4887980000000  0.4346580000000 1.0
C      1  0.5529140000000  0.5786170000000  0.5000020000000 1.0
C      1  0.5231870000000  0.4221310000000  0.5696250000000 1.0
C      1  0.4284580000000  0.5050680000000  0.5724940000000 1.0
C      1  0.5729210000000  0.4954380000000  0.5212350000000 1.0
C      1  0.5771700000000  0.5509760000000  0.4532510000000 1.0
C      1  0.3869280000000  0.5028570000000  0.4856120000000 1.0
C      1  0.5448790000000  0.6089820000000  0.5032850000000 1.0
C      1  0.4508550000000  0.4591160000000  0.5161000000000 1.0
C      1  0.5017040000000  0.4462930000000  0.4938020000000 1.0
C      1  0.4606050000000  0.5187890000000  0.6132970000000 1.0
C      1  0.5382470000000  0.5108290000000  0.4392230000000 1.0
C      1  0.5969680000000  0.5416440000000  0.4695150000000 1.0
C      1  0.5385210000000  0.5249380000000  0.4086460000000 1.0
C      1  0.4406620000000  0.4502450000000  0.5977710000000 1.0
C      1  0.4519710000000  0.4944170000000  0.6212760000000 1.0
C      1  0.5002130000000  0.5972650000000  0.5223580000000 1.0
C      1  0.5633130000000  0.5081600000000  0.5930750000000 1.0
C      1  0.4624280000000  0.5355340000000  0.4936640000000 1.0
C      1  0.4992940000000  0.4817480000000  0.3944410000000 1.0
C      1  0.5258100000000  0.5168980000000  0.5251680000000 1.0
C      1  0.6201500000000  0.5317320000000  0.4896570000000 1.0
END
