TITL C-2848496-4490-231 0.000527081455817612 125000 -922.277443583685 0 0 167 (C1) n - 1
REM
REM in /home/bkarasulu/work/CARBON/AIRSS/Generating-Clusters/AIREBO/with-SteepDescent/Only-C1/SD-CG-opt/Try1-1.4A-POS3A/HFTN-CG
REM
REM
REM
REM
REM
REM ./C.cell (11c1c37f851c82e70ff6c80c92926a4b)
REM
REM compiler GCC version 9.2.1 20190827 (Red Hat 9.2.1-1)
REM options -cpp -mtune=generic -march=x86-64 -g -O0 -fpre-include=/usr/include/finclude/math-vector-fortran.h
REM seed -1244169780 -125327438 -1200251885 1332867775 899019617 -2074485211 2065923245 -301145451 1888592737 -522479005 1718813273 610008420 1061289971 -877568198 -1521759721 973021439 2120950139 -548861308 855789274 -872735168 -315372144 -1498697639 -20946644 829878875 -122259987 -510707973 421194591 466717465 75229572 -987447248 -1786721920 -1122712194 -1094155775
REM
CELL 1.54180   50.00000   50.00000   50.00000   90.00000   90.00000   90.00000
LATT -1
SFAC C  
C      1  0.5320930000000  0.4946350000000  0.6031640000000 1.0
C      1  0.6084020000000  0.5032200000000  0.5227680000000 1.0
C      1  0.5491340000000  0.4237530000000  0.4734020000000 1.0
C      1  0.5052680000000  0.4852550000000  0.5566130000000 1.0
C      1  0.5348060000000  0.4915460000000  0.5605980000000 1.0
C      1  0.3948530000000  0.5162500000000  0.5346420000000 1.0
C      1  0.4665280000000  0.5445100000000  0.4661300000000 1.0
C      1  0.5800320000000  0.5318360000000  0.5123110000000 1.0
C      1  0.4592800000000  0.5933290000000  0.4904460000000 1.0
C      1  0.5426940000000  0.4649740000000  0.4960800000000 1.0
C      1  0.4370390000000  0.4334490000000  0.5511600000000 1.0
C      1  0.5204380000000  0.5881570000000  0.5624770000000 1.0
C      1  0.4412370000000  0.5274430000000  0.4296300000000 1.0
C      1  0.4123730000000  0.5567820000000  0.4659490000000 1.0
C      1  0.4811480000000  0.5122280000000  0.6014200000000 1.0
C      1  0.4622620000000  0.4246200000000  0.5555600000000 1.0
C      1  0.5578760000000  0.4424570000000  0.5716410000000 1.0
C      1  0.4173410000000  0.4791840000000  0.5265970000000 1.0
C      1  0.5868120000000  0.4907450000000  0.4390890000000 1.0
C      1  0.5922060000000  0.4579490000000  0.4901740000000 1.0
C      1  0.4150560000000  0.5095510000000  0.4207770000000 1.0
C      1  0.4913050000000  0.5241140000000  0.5578800000000 1.0
C      1  0.5289540000000  0.5056240000000  0.4488400000000 1.0
C      1  0.5700120000000  0.5692890000000  0.4838850000000 1.0
C      1  0.5559190000000  0.4970950000000  0.4684150000000 1.0
C      1  0.5049570000000  0.4888780000000  0.3944360000000 1.0
C      1  0.4359670000000  0.4690550000000  0.4539320000000 1.0
C      1  0.5092780000000  0.5880420000000  0.4230700000000 1.0
C      1  0.5977360000000  0.4554550000000  0.5187640000000 1.0
C      1  0.4966510000000  0.5049130000000  0.5303310000000 1.0
C      1  0.4095070000000  0.5044960000000  0.4772860000000 1.0
C      1  0.4603790000000  0.4941300000000  0.5892560000000 1.0
C      1  0.4782780000000  0.4250730000000  0.4546810000000 1.0
C      1  0.4869100000000  0.4630850000000  0.4256060000000 1.0
C      1  0.5071420000000  0.5754430000000  0.4514090000000 1.0
C      1  0.5844170000000  0.4885600000000  0.4850080000000 1.0
C      1  0.4598580000000  0.5556230000000  0.5700390000000 1.0
C      1  0.4036740000000  0.5321520000000  0.4916380000000 1.0
C      1  0.5584390000000  0.4631690000000  0.4688370000000 1.0
C      1  0.4638790000000  0.4950850000000  0.5566770000000 1.0
C      1  0.4658140000000  0.5703140000000  0.4210070000000 1.0
C      1  0.4489850000000  0.4949300000000  0.4358910000000 1.0
C      1  0.4713280000000  0.5388090000000  0.4185070000000 1.0
C      1  0.4886280000000  0.4414930000000  0.5531620000000 1.0
C      1  0.5659650000000  0.5239970000000  0.5385270000000 1.0
C      1  0.4739470000000  0.6084450000000  0.4724570000000 1.0
C      1  0.4965780000000  0.4779580000000  0.5854120000000 1.0
C      1  0.5270730000000  0.6088620000000  0.5161580000000 1.0
C      1  0.5860450000000  0.5318400000000  0.5623600000000 1.0
C      1  0.5235360000000  0.4028470000000  0.4748980000000 1.0
C      1  0.4298030000000  0.4090680000000  0.4979650000000 1.0
C      1  0.4625870000000  0.5773900000000  0.5456680000000 1.0
C      1  0.5242320000000  0.5200590000000  0.4759980000000 1.0
C      1  0.4736300000000  0.4948560000000  0.4547890000000 1.0
C      1  0.4721540000000  0.4896910000000  0.3997090000000 1.0
C      1  0.4800880000000  0.4556140000000  0.4580730000000 1.0
C      1  0.4905130000000  0.3862310000000  0.5130120000000 1.0
C      1  0.5480560000000  0.4672950000000  0.5804240000000 1.0
C      1  0.4375110000000  0.3945540000000  0.4504440000000 1.0
C      1  0.5305640000000  0.4667320000000  0.4404160000000 1.0
C      1  0.5029160000000  0.4386710000000  0.5838880000000 1.0
C      1  0.4488080000000  0.5687180000000  0.4766580000000 1.0
C      1  0.5568310000000  0.5788110000000  0.5104040000000 1.0
C      1  0.4111850000000  0.4720650000000  0.5520710000000 1.0
C      1  0.5141120000000  0.4581790000000  0.4052660000000 1.0
C      1  0.4507490000000  0.4143860000000  0.4717030000000 1.0
C      1  0.4301150000000  0.5520690000000  0.4454650000000 1.0
C      1  0.4885890000000  0.5565530000000  0.5206650000000 1.0
C      1  0.4690350000000  0.3996880000000  0.4963460000000 1.0
C      1  0.5042260000000  0.4081870000000  0.5688450000000 1.0
C      1  0.5364670000000  0.5343120000000  0.4221080000000 1.0
C      1  0.5722430000000  0.5269500000000  0.5868010000000 1.0
C      1  0.3782050000000  0.5084930000000  0.5555410000000 1.0
C      1  0.5190040000000  0.4587070000000  0.5196540000000 1.0
C      1  0.5633170000000  0.4967820000000  0.5877570000000 1.0
C      1  0.5364710000000  0.5254370000000  0.5554020000000 1.0
C      1  0.5508110000000  0.4078780000000  0.5034230000000 1.0
C      1  0.5014310000000  0.4178080000000  0.4393050000000 1.0
C      1  0.4713820000000  0.5378470000000  0.5362170000000 1.0
C      1  0.5737460000000  0.5279570000000  0.4342010000000 1.0
C      1  0.4777660000000  0.5868330000000  0.5167310000000 1.0
C      1  0.4953880000000  0.5409880000000  0.4933980000000 1.0
C      1  0.4783390000000  0.4704010000000  0.5074770000000 1.0
C      1  0.5666710000000  0.4796190000000  0.5119420000000 1.0
C      1  0.6136190000000  0.5346750000000  0.5129410000000 1.0
C      1  0.5237110000000  0.4444360000000  0.4651750000000 1.0
C      1  0.5382340000000  0.5150940000000  0.5040540000000 1.0
C      1  0.5581980000000  0.4386440000000  0.4395510000000 1.0
C      1  0.4927420000000  0.5924030000000  0.5532520000000 1.0
C      1  0.5011470000000  0.4351840000000  0.5036500000000 1.0
C      1  0.5283120000000  0.5699410000000  0.5054400000000 1.0
C      1  0.4342400000000  0.4441260000000  0.4721520000000 1.0
C      1  0.5663700000000  0.5669590000000  0.5400890000000 1.0
C      1  0.4269480000000  0.3788860000000  0.4333010000000 1.0
C      1  0.3815620000000  0.5320790000000  0.5101500000000 1.0
C      1  0.4096750000000  0.4441410000000  0.4956730000000 1.0
C      1  0.5748560000000  0.5416960000000  0.4655020000000 1.0
C      1  0.4464000000000  0.4654690000000  0.5872450000000 1.0
C      1  0.4791160000000  0.5351420000000  0.5834820000000 1.0
C      1  0.4336710000000  0.4606460000000  0.4226190000000 1.0
C      1  0.4647820000000  0.4764280000000  0.4801760000000 1.0
C      1  0.4896650000000  0.5145640000000  0.4089160000000 1.0
C      1  0.6057130000000  0.5112370000000  0.4896010000000 1.0
C      1  0.3996630000000  0.4988920000000  0.4487500000000 1.0
C      1  0.5244810000000  0.4906900000000  0.5220680000000 1.0
C      1  0.4286850000000  0.4554770000000  0.5666810000000 1.0
C      1  0.6047620000000  0.4808920000000  0.5383980000000 1.0
C      1  0.5818590000000  0.4806250000000  0.5640750000000 1.0
C      1  0.5648740000000  0.5229830000000  0.4885690000000 1.0
C      1  0.4850840000000  0.5873270000000  0.4098830000000 1.0
C      1  0.5077570000000  0.5262250000000  0.4319580000000 1.0
C      1  0.5512300000000  0.4358610000000  0.5114400000000 1.0
C      1  0.4654270000000  0.5167200000000  0.4777810000000 1.0
C      1  0.4264480000000  0.5568560000000  0.4969110000000 1.0
C      1  0.5540110000000  0.5556510000000  0.4344790000000 1.0
C      1  0.5437400000000  0.5927630000000  0.5385250000000 1.0
C      1  0.5523920000000  0.5094740000000  0.4149110000000 1.0
C      1  0.4889340000000  0.5490780000000  0.4457420000000 1.0
C      1  0.5480900000000  0.4382520000000  0.5421100000000 1.0
C      1  0.5063460000000  0.5898930000000  0.4985610000000 1.0
C      1  0.5951310000000  0.5155800000000  0.4575640000000 1.0
C      1  0.4385390000000  0.4961860000000  0.4742940000000 1.0
C      1  0.5162990000000  0.4324660000000  0.5402810000000 1.0
C      1  0.5563480000000  0.5520710000000  0.5963270000000 1.0
C      1  0.5203770000000  0.4869680000000  0.4828580000000 1.0
C      1  0.4794520000000  0.5141920000000  0.5050810000000 1.0
C      1  0.4388050000000  0.5597130000000  0.5285240000000 1.0
C      1  0.4575830000000  0.4992010000000  0.5256240000000 1.0
C      1  0.5014580000000  0.4614000000000  0.4838840000000 1.0
C      1  0.4257660000000  0.4311070000000  0.5231020000000 1.0
C      1  0.5386190000000  0.3910380000000  0.5206930000000 1.0
C      1  0.4454730000000  0.4724690000000  0.5159670000000 1.0
C      1  0.5193430000000  0.5509980000000  0.4714080000000 1.0
C      1  0.5134380000000  0.5397680000000  0.5394000000000 1.0
C      1  0.5506100000000  0.6003410000000  0.4683130000000 1.0
C      1  0.4202370000000  0.5308110000000  0.5416320000000 1.0
C      1  0.4447090000000  0.5276480000000  0.5194250000000 1.0
C      1  0.5338310000000  0.4850980000000  0.4118570000000 1.0
C      1  0.4492340000000  0.5736470000000  0.4429770000000 1.0
C      1  0.4960870000000  0.6125030000000  0.5296740000000 1.0
C      1  0.5435180000000  0.6131030000000  0.4886860000000 1.0
C      1  0.3979500000000  0.4958710000000  0.5074620000000 1.0
C      1  0.5453830000000  0.5680610000000  0.4604750000000 1.0
C      1  0.5711280000000  0.4605190000000  0.5387980000000 1.0
C      1  0.4490870000000  0.5256420000000  0.5588640000000 1.0
C      1  0.5028160000000  0.4857860000000  0.4452990000000 1.0
C      1  0.4412630000000  0.4980620000000  0.4028830000000 1.0
C      1  0.5226130000000  0.4622800000000  0.5986630000000 1.0
C      1  0.5111660000000  0.3996270000000  0.5364940000000 1.0
C      1  0.5082560000000  0.5074800000000  0.6108230000000 1.0
C      1  0.5538080000000  0.4961030000000  0.5352790000000 1.0
C      1  0.5789070000000  0.4373880000000  0.4665700000000 1.0
C      1  0.4806900000000  0.4699800000000  0.5408350000000 1.0
C      1  0.5514690000000  0.5517120000000  0.5632420000000 1.0
C      1  0.4088530000000  0.4768890000000  0.4256920000000 1.0
C      1  0.4986580000000  0.5969460000000  0.4708110000000 1.0
C      1  0.5233880000000  0.5409150000000  0.5100890000000 1.0
C      1  0.5269730000000  0.4359850000000  0.4263370000000 1.0
C      1  0.5946610000000  0.5514890000000  0.5358950000000 1.0
C      1  0.5642380000000  0.4720900000000  0.4385170000000 1.0
C      1  0.4582510000000  0.4622040000000  0.4096740000000 1.0
C      1  0.4722790000000  0.4279200000000  0.5025120000000 1.0
C      1  0.4486820000000  0.4441980000000  0.5018070000000 1.0
C      1  0.3916730000000  0.4643400000000  0.4998750000000 1.0
C      1  0.4743480000000  0.4567920000000  0.5869280000000 1.0
C      1  0.5324280000000  0.5706690000000  0.5809390000000 1.0
C      1  0.5084490000000  0.4058510000000  0.4970920000000 1.0
END
