TITL C-2848499-1157-607 0.000193598700484486 125000 -231.439700371206 0 0 41 (C1) n - 1
REM
REM in /home/bkarasulu/work/CARBON/AIRSS/Generating-Clusters/AIREBO/with-SteepDescent/Only-C1/SD-CG-opt/Try1-1.4A-POS3A/HFTN-CG
REM
REM
REM
REM
REM
REM ./C.cell (11c1c37f851c82e70ff6c80c92926a4b)
REM
REM compiler GCC version 9.2.1 20190827 (Red Hat 9.2.1-1)
REM options -cpp -mtune=generic -march=x86-64 -g -O0 -fpre-include=/usr/include/finclude/math-vector-fortran.h
REM seed -87380716 -1761445433 -810663562 -455012180 469011569 363691988 580069415 552224645 978462416 2139405067 -1564098709 -1146435558 769107603 -1416641167 1997887468 1500254195 -29727499 -1829818702 -1231126162 1574825445 -411783002 -1007451855 1376925128 -1942923316 211364756 -292331795 1838897332 -665221450 -432453388 -526813348 398773212 -110533489 -1422078426
REM
CELL 1.54180   50.00000   50.00000   50.00000   90.00000   90.00000   90.00000
LATT -1
SFAC C  
C      1  0.5475070000000  0.4934690000000  0.4889570000000 1.0
C      1  0.5166460000000  0.4410680000000  0.4610420000000 1.0
C      1  0.4639410000000  0.4822190000000  0.4560320000000 1.0
C      1  0.4713860000000  0.4915260000000  0.5226060000000 1.0
C      1  0.5456630000000  0.5286880000000  0.5280360000000 1.0
C      1  0.4613100000000  0.5448260000000  0.4788370000000 1.0
C      1  0.4580650000000  0.5084890000000  0.4628000000000 1.0
C      1  0.5734930000000  0.5002750000000  0.4710130000000 1.0
C      1  0.4767710000000  0.5663340000000  0.5164060000000 1.0
C      1  0.5226600000000  0.5387250000000  0.5150700000000 1.0
C      1  0.4496490000000  0.5073550000000  0.5154850000000 1.0
C      1  0.5470880000000  0.5189540000000  0.4691890000000 1.0
C      1  0.5241860000000  0.5345750000000  0.4667300000000 1.0
C      1  0.4783740000000  0.4394850000000  0.5023110000000 1.0
C      1  0.4795270000000  0.5442030000000  0.5341360000000 1.0
C      1  0.4529380000000  0.5722320000000  0.4967730000000 1.0
C      1  0.4900380000000  0.5604810000000  0.4886860000000 1.0
C      1  0.5021800000000  0.4937340000000  0.4559090000000 1.0
C      1  0.5523600000000  0.4433420000000  0.5349000000000 1.0
C      1  0.4761010000000  0.5308580000000  0.4532540000000 1.0
C      1  0.4572630000000  0.5377650000000  0.5501820000000 1.0
C      1  0.5259880000000  0.4379490000000  0.4870560000000 1.0
C      1  0.5617130000000  0.4788310000000  0.5805490000000 1.0
C      1  0.5161840000000  0.5498740000000  0.4893750000000 1.0
C      1  0.4730870000000  0.4601480000000  0.4802880000000 1.0
C      1  0.5027900000000  0.5220430000000  0.4529620000000 1.0
C      1  0.4945570000000  0.4850740000000  0.4814740000000 1.0
C      1  0.5003580000000  0.4953930000000  0.5101910000000 1.0
C      1  0.5041550000000  0.4363570000000  0.5094050000000 1.0
C      1  0.5683250000000  0.4345670000000  0.5527760000000 1.0
C      1  0.4870890000000  0.4770170000000  0.4333080000000 1.0
C      1  0.4143130000000  0.5207670000000  0.4841000000000 1.0
C      1  0.5310040000000  0.4848320000000  0.5129000000000 1.0
C      1  0.4930100000000  0.4548530000000  0.4545530000000 1.0
C      1  0.4388890000000  0.5212890000000  0.5377080000000 1.0
C      1  0.4988930000000  0.5254090000000  0.5251640000000 1.0
C      1  0.4419580000000  0.5184750000000  0.4882300000000 1.0
C      1  0.5548160000000  0.4895470000000  0.5576460000000 1.0
C      1  0.4688580000000  0.4732880000000  0.5431230000000 1.0
C      1  0.5451920000000  0.5011570000000  0.5348420000000 1.0
C      1  0.5316740000000  0.4545240000000  0.5159990000000 1.0
END
