TITL C-2847946-5639-439 0.00137784075327317 125000 -846.830111032883 0 0 152 (C1) n - 1
REM
REM in /home/bkarasulu/work/CARBON/AIRSS/Generating-Clusters/AIREBO/with-SteepDescent/Only-C1/SD-CG-opt/Try1-1.4A-POS3A/HFTN-CG
REM
REM
REM
REM
REM
REM ./C.cell (11c1c37f851c82e70ff6c80c92926a4b)
REM
REM compiler GCC version 9.2.1 20190827 (Red Hat 9.2.1-1)
REM options -cpp -mtune=generic -march=x86-64 -g -O0 -fpre-include=/usr/include/finclude/math-vector-fortran.h
REM seed -1458408103 -1720331161 -1496676609 1486154263 -336224995 716913446 -1221674293 -637286417 570168449 -1692916590 -604130781 24314328 1692027948 1537263760 -384135492 170060767 481327132 -419400469 -1195258092 -1758643685 112464129 -1395236937 925295251 586401562 -1492517841 1229721058 -1067994744 1450927689 -1856525288 1401475225 -1726394990 1257539066 -1862110592
REM
CELL 1.54180   50.00000   50.00000   50.00000   90.00000   90.00000   90.00000
LATT -1
SFAC C  
C      1  0.4936310000000  0.5538640000000  0.4965400000000 1.0
C      1  0.5768390000000  0.4927230000000  0.5518860000000 1.0
C      1  0.5764900000000  0.5778270000000  0.5341920000000 1.0
C      1  0.4296350000000  0.5593880000000  0.4855000000000 1.0
C      1  0.4892620000000  0.4142090000000  0.5547190000000 1.0
C      1  0.5318800000000  0.4731390000000  0.5278120000000 1.0
C      1  0.4569480000000  0.5131370000000  0.4909910000000 1.0
C      1  0.4080040000000  0.5508630000000  0.4606680000000 1.0
C      1  0.4015950000000  0.4697270000000  0.5488470000000 1.0
C      1  0.5536160000000  0.5416470000000  0.4734540000000 1.0
C      1  0.6096550000000  0.5139680000000  0.5434480000000 1.0
C      1  0.4885170000000  0.5426850000000  0.4045480000000 1.0
C      1  0.4715520000000  0.5928860000000  0.4794470000000 1.0
C      1  0.5893050000000  0.5331880000000  0.5450590000000 1.0
C      1  0.4476560000000  0.4910230000000  0.5145150000000 1.0
C      1  0.6010990000000  0.4883500000000  0.5319620000000 1.0
C      1  0.4950430000000  0.5486990000000  0.4318240000000 1.0
C      1  0.5973020000000  0.4763460000000  0.4806060000000 1.0
C      1  0.4952600000000  0.4385880000000  0.4643660000000 1.0
C      1  0.4941870000000  0.4109120000000  0.4479930000000 1.0
C      1  0.5376590000000  0.4786800000000  0.4083200000000 1.0
C      1  0.4703360000000  0.5672120000000  0.4596360000000 1.0
C      1  0.4744070000000  0.5490490000000  0.5891230000000 1.0
C      1  0.5625860000000  0.4403410000000  0.4866740000000 1.0
C      1  0.5529010000000  0.4872580000000  0.5747180000000 1.0
C      1  0.4480300000000  0.4640660000000  0.5869190000000 1.0
C      1  0.5052520000000  0.5189220000000  0.3935630000000 1.0
C      1  0.4006160000000  0.4792020000000  0.4461820000000 1.0
C      1  0.5670780000000  0.4414550000000  0.5514700000000 1.0
C      1  0.5786090000000  0.5470780000000  0.4510390000000 1.0
C      1  0.4076350000000  0.4275370000000  0.5116180000000 1.0
C      1  0.5117140000000  0.4994990000000  0.6021660000000 1.0
C      1  0.4835520000000  0.4400430000000  0.4940750000000 1.0
C      1  0.4122380000000  0.4957030000000  0.5474730000000 1.0
C      1  0.5618770000000  0.5068000000000  0.4229510000000 1.0
C      1  0.4555400000000  0.4808370000000  0.4464550000000 1.0
C      1  0.4579080000000  0.5321430000000  0.4036080000000 1.0
C      1  0.5491260000000  0.5403440000000  0.5130180000000 1.0
C      1  0.5265970000000  0.4285250000000  0.5218660000000 1.0
C      1  0.5840120000000  0.4519640000000  0.4649840000000 1.0
C      1  0.4422940000000  0.5854900000000  0.4677640000000 1.0
C      1  0.5361000000000  0.5692080000000  0.5168140000000 1.0
C      1  0.5003430000000  0.6028900000000  0.4930590000000 1.0
C      1  0.4162280000000  0.5117840000000  0.4619840000000 1.0
C      1  0.5465700000000  0.5729700000000  0.4846740000000 1.0
C      1  0.5320180000000  0.5596720000000  0.5492300000000 1.0
C      1  0.4744040000000  0.4709960000000  0.5059180000000 1.0
C      1  0.5065780000000  0.4790570000000  0.5476630000000 1.0
C      1  0.5617370000000  0.5220460000000  0.5557420000000 1.0
C      1  0.4080800000000  0.4834320000000  0.4790750000000 1.0
C      1  0.4099840000000  0.5594170000000  0.5127420000000 1.0
C      1  0.5869870000000  0.5226480000000  0.4395350000000 1.0
C      1  0.4412410000000  0.4370760000000  0.5678480000000 1.0
C      1  0.4536610000000  0.4606530000000  0.5476400000000 1.0
C      1  0.4756090000000  0.4698090000000  0.5963020000000 1.0
C      1  0.5779880000000  0.5346070000000  0.4964750000000 1.0
C      1  0.4205240000000  0.4508070000000  0.5460430000000 1.0
C      1  0.4843990000000  0.4993150000000  0.5867290000000 1.0
C      1  0.4729710000000  0.4777070000000  0.4174000000000 1.0
C      1  0.4025480000000  0.5300650000000  0.4868460000000 1.0
C      1  0.5000940000000  0.5586620000000  0.5733060000000 1.0
C      1  0.5321020000000  0.5788050000000  0.4459960000000 1.0
C      1  0.5322350000000  0.5638050000000  0.5831580000000 1.0
C      1  0.4702630000000  0.4865090000000  0.4759340000000 1.0
C      1  0.5574380000000  0.5020030000000  0.4563550000000 1.0
C      1  0.5574250000000  0.4739200000000  0.4847910000000 1.0
C      1  0.5030810000000  0.3902840000000  0.4653630000000 1.0
C      1  0.5348960000000  0.5193720000000  0.4908310000000 1.0
C      1  0.4078790000000  0.5153750000000  0.5282700000000 1.0
C      1  0.5367120000000  0.5112780000000  0.3993820000000 1.0
C      1  0.4812740000000  0.5230860000000  0.4443740000000 1.0
C      1  0.4437180000000  0.4918660000000  0.5482810000000 1.0
C      1  0.5041080000000  0.5656750000000  0.5190810000000 1.0
C      1  0.4472840000000  0.4224470000000  0.5377370000000 1.0
C      1  0.4710700000000  0.4092170000000  0.5353420000000 1.0
C      1  0.4193300000000  0.5040110000000  0.5008930000000 1.0
C      1  0.5025560000000  0.5571900000000  0.4638940000000 1.0
C      1  0.5393150000000  0.4573460000000  0.4420550000000 1.0
C      1  0.4160740000000  0.4907730000000  0.4112790000000 1.0
C      1  0.5357160000000  0.4754690000000  0.6000950000000 1.0
C      1  0.5853580000000  0.5521060000000  0.5246920000000 1.0
C      1  0.4536750000000  0.5319700000000  0.5783110000000 1.0
C      1  0.4720510000000  0.5345080000000  0.5051680000000 1.0
C      1  0.5111330000000  0.5083360000000  0.5210340000000 1.0
C      1  0.4840210000000  0.4473830000000  0.4129600000000 1.0
C      1  0.5161250000000  0.5332880000000  0.5636770000000 1.0
C      1  0.4923530000000  0.4946470000000  0.4394570000000 1.0
C      1  0.4821490000000  0.4606360000000  0.5373840000000 1.0
C      1  0.5102280000000  0.4536160000000  0.5102420000000 1.0
C      1  0.5325110000000  0.5173300000000  0.4479540000000 1.0
C      1  0.4741220000000  0.5910390000000  0.5115430000000 1.0
C      1  0.4011640000000  0.5101110000000  0.4320200000000 1.0
C      1  0.4598660000000  0.5200890000000  0.5485620000000 1.0
C      1  0.5263010000000  0.6012910000000  0.5112250000000 1.0
C      1  0.4838540000000  0.5221320000000  0.5300420000000 1.0
C      1  0.5148670000000  0.4041330000000  0.5087030000000 1.0
C      1  0.5761250000000  0.5026400000000  0.4847540000000 1.0
C      1  0.4728660000000  0.5984550000000  0.5431920000000 1.0
C      1  0.5361690000000  0.4341220000000  0.5636140000000 1.0
C      1  0.4491250000000  0.4257030000000  0.4416740000000 1.0
C      1  0.4570260000000  0.5410020000000  0.4502770000000 1.0
C      1  0.4339400000000  0.4757700000000  0.4206650000000 1.0
C      1  0.5340270000000  0.5112380000000  0.5823710000000 1.0
C      1  0.5262880000000  0.4335780000000  0.4550180000000 1.0
C      1  0.4405230000000  0.5408590000000  0.4249980000000 1.0
C      1  0.4399430000000  0.5295340000000  0.4728750000000 1.0
C      1  0.4501750000000  0.4345490000000  0.4904300000000 1.0
C      1  0.5434050000000  0.5144960000000  0.5294190000000 1.0
C      1  0.5001160000000  0.4621520000000  0.4457860000000 1.0
C      1  0.5834140000000  0.4473330000000  0.5221020000000 1.0
C      1  0.5985220000000  0.5036470000000  0.4591780000000 1.0
C      1  0.5177020000000  0.4684730000000  0.5723200000000 1.0
C      1  0.5525920000000  0.5867380000000  0.5484330000000 1.0
C      1  0.5975490000000  0.4692890000000  0.5128260000000 1.0
C      1  0.5181270000000  0.5860210000000  0.4730280000000 1.0
C      1  0.4771570000000  0.5049810000000  0.4005180000000 1.0
C      1  0.4392550000000  0.5462310000000  0.5507190000000 1.0
C      1  0.5309260000000  0.6061610000000  0.5398800000000 1.0
C      1  0.5510760000000  0.5391100000000  0.5819000000000 1.0
C      1  0.4395230000000  0.4389000000000  0.4647460000000 1.0
C      1  0.5574970000000  0.4276360000000  0.5155830000000 1.0
C      1  0.5100700000000  0.5250420000000  0.4720420000000 1.0
C      1  0.4750240000000  0.4252690000000  0.4295750000000 1.0
C      1  0.4346000000000  0.4284490000000  0.5132150000000 1.0
C      1  0.4142670000000  0.5418990000000  0.5334500000000 1.0
C      1  0.5536700000000  0.4690470000000  0.5484170000000 1.0
C      1  0.5339530000000  0.4799570000000  0.4620530000000 1.0
C      1  0.4945960000000  0.5737190000000  0.5481560000000 1.0
C      1  0.5051840000000  0.6045360000000  0.5524720000000 1.0
C      1  0.5067480000000  0.4392450000000  0.5473070000000 1.0
C      1  0.4560960000000  0.5625560000000  0.5066360000000 1.0
C      1  0.4292560000000  0.4660820000000  0.4590080000000 1.0
C      1  0.5417210000000  0.4196520000000  0.4733350000000 1.0
C      1  0.5437300000000  0.4915590000000  0.5054250000000 1.0
C      1  0.5041300000000  0.4923790000000  0.4712810000000 1.0
C      1  0.5200440000000  0.5016700000000  0.4263330000000 1.0
C      1  0.4542340000000  0.5703580000000  0.5386770000000 1.0
C      1  0.5683350000000  0.4739760000000  0.4170130000000 1.0
C      1  0.4828950000000  0.3849670000000  0.4862660000000 1.0
C      1  0.5734810000000  0.5747160000000  0.4637950000000 1.0
C      1  0.5299950000000  0.4419390000000  0.5949480000000 1.0
C      1  0.4517830000000  0.4978430000000  0.5807800000000 1.0
C      1  0.5043120000000  0.4861740000000  0.5024170000000 1.0
C      1  0.4966270000000  0.5074270000000  0.5579100000000 1.0
C      1  0.5537180000000  0.4113810000000  0.5452180000000 1.0
C      1  0.4133150000000  0.5401080000000  0.4341580000000 1.0
C      1  0.5166010000000  0.4554250000000  0.4168200000000 1.0
C      1  0.5259360000000  0.3984160000000  0.4832970000000 1.0
C      1  0.5709730000000  0.4559420000000  0.4400960000000 1.0
C      1  0.4835960000000  0.4090590000000  0.5081550000000 1.0
C      1  0.5317960000000  0.5487280000000  0.4483550000000 1.0
C      1  0.4984840000000  0.4546790000000  0.5939800000000 1.0
END
