TITL C-2848501-3133-78 0.000795964541797818 125000 -357.902041927113 0 0 64 (C1) n - 1
REM
REM in /home/bkarasulu/work/CARBON/AIRSS/Generating-Clusters/AIREBO/with-SteepDescent/Only-C1/SD-CG-opt/Try1-1.4A-POS3A/HFTN-CG
REM
REM
REM
REM
REM
REM ./C.cell (11c1c37f851c82e70ff6c80c92926a4b)
REM
REM compiler GCC version 9.2.1 20190827 (Red Hat 9.2.1-1)
REM options -cpp -mtune=generic -march=x86-64 -g -O0 -fpre-include=/usr/include/finclude/math-vector-fortran.h
REM seed -167805021 -1371368788 849317874 -756532392 -305074867 -1371985142 -976954961 -3759750 1696436539 278839782 -643400010 170819177 -239058832 -239842690 1597631506 1709295970 152948702 -1505788440 1359223472 365685418 -291160493 555939804 1620533218 -1958708982 -400790147 -1172023381 -1672226495 -1259392888 1335041771 -1857985870 -1009970818 725218547 400754243
REM
CELL 1.54180   50.00000   50.00000   50.00000   90.00000   90.00000   90.00000
LATT -1
SFAC C  
C      1  0.5653350000000  0.4858960000000  0.4794200000000 1.0
C      1  0.4680440000000  0.4369400000000  0.5238430000000 1.0
C      1  0.5363330000000  0.5381480000000  0.4287510000000 1.0
C      1  0.4413940000000  0.4761870000000  0.4998420000000 1.0
C      1  0.4587790000000  0.4590790000000  0.4525900000000 1.0
C      1  0.4359830000000  0.4752240000000  0.4678670000000 1.0
C      1  0.4980770000000  0.4192180000000  0.4838550000000 1.0
C      1  0.4796630000000  0.5807410000000  0.5069950000000 1.0
C      1  0.4992070000000  0.5383440000000  0.5649390000000 1.0
C      1  0.4966300000000  0.4270410000000  0.5158530000000 1.0
C      1  0.5431910000000  0.4472050000000  0.4951350000000 1.0
C      1  0.5013620000000  0.4746910000000  0.4497700000000 1.0
C      1  0.5281380000000  0.4965010000000  0.5000400000000 1.0
C      1  0.5220430000000  0.5611900000000  0.4969350000000 1.0
C      1  0.4813660000000  0.4836270000000  0.4305680000000 1.0
C      1  0.5325380000000  0.4610490000000  0.4496650000000 1.0
C      1  0.4912630000000  0.4978000000000  0.5176720000000 1.0
C      1  0.5608980000000  0.4991470000000  0.5087520000000 1.0
C      1  0.4847280000000  0.4545880000000  0.4710650000000 1.0
C      1  0.5027610000000  0.5208430000000  0.4598820000000 1.0
C      1  0.4697910000000  0.5507940000000  0.4789790000000 1.0
C      1  0.4384690000000  0.5273850000000  0.5020980000000 1.0
C      1  0.4379240000000  0.4442220000000  0.4928070000000 1.0
C      1  0.4745450000000  0.5223800000000  0.4678860000000 1.0
C      1  0.4598900000000  0.4569810000000  0.5412940000000 1.0
C      1  0.4999480000000  0.5452600000000  0.5348270000000 1.0
C      1  0.5147840000000  0.5673490000000  0.4662240000000 1.0
C      1  0.4273270000000  0.5206990000000  0.4764390000000 1.0
C      1  0.5256070000000  0.4986560000000  0.5609510000000 1.0
C      1  0.5536220000000  0.5347890000000  0.4696000000000 1.0
C      1  0.5365020000000  0.4689140000000  0.5181110000000 1.0
C      1  0.4880910000000  0.5727000000000  0.4794020000000 1.0
C      1  0.5113800000000  0.4522690000000  0.5045040000000 1.0
C      1  0.5166550000000  0.4590150000000  0.5604910000000 1.0
C      1  0.5482190000000  0.5104390000000  0.5383290000000 1.0
C      1  0.5016450000000  0.4839590000000  0.5429170000000 1.0
C      1  0.5411260000000  0.4646710000000  0.5468770000000 1.0
C      1  0.4707320000000  0.5557590000000  0.5283470000000 1.0
C      1  0.5249540000000  0.5322110000000  0.4823800000000 1.0
C      1  0.4424420000000  0.4834480000000  0.5330490000000 1.0
C      1  0.4663870000000  0.4952200000000  0.4864770000000 1.0
C      1  0.4789810000000  0.4675100000000  0.5599370000000 1.0
C      1  0.5145890000000  0.4388330000000  0.4670440000000 1.0
C      1  0.5548200000000  0.5218110000000  0.4437490000000 1.0
C      1  0.4525280000000  0.5070530000000  0.5554130000000 1.0
C      1  0.5104190000000  0.5223930000000  0.5119200000000 1.0
C      1  0.4898280000000  0.4741900000000  0.4969070000000 1.0
C      1  0.5574250000000  0.4866940000000  0.5601450000000 1.0
C      1  0.4539860000000  0.5505580000000  0.5016910000000 1.0
C      1  0.5500450000000  0.5424220000000  0.5314380000000 1.0
C      1  0.4460030000000  0.5135820000000  0.4575090000000 1.0
C      1  0.5736600000000  0.5422480000000  0.4873180000000 1.0
C      1  0.5487640000000  0.4939250000000  0.4525950000000 1.0
C      1  0.4495550000000  0.4886950000000  0.4394980000000 1.0
C      1  0.4989870000000  0.5119550000000  0.5712040000000 1.0
C      1  0.4672970000000  0.4322880000000  0.4900180000000 1.0
C      1  0.4749500000000  0.4964440000000  0.5697730000000 1.0
C      1  0.4537300000000  0.5337790000000  0.5479670000000 1.0
C      1  0.5212180000000  0.4942790000000  0.4687910000000 1.0
C      1  0.5532950000000  0.4597890000000  0.4728320000000 1.0
C      1  0.5155090000000  0.5466760000000  0.4463970000000 1.0
C      1  0.5705880000000  0.5301630000000  0.5122810000000 1.0
C      1  0.4587180000000  0.5075880000000  0.5162940000000 1.0
C      1  0.5273310000000  0.5565480000000  0.5238540000000 1.0
END
