TITL C-2847955-7945-76 -4.35031021672044e-05 125000 -131.608226437049 0 0 26 (C1) n - 1
REM
REM in /home/bkarasulu/work/CARBON/AIRSS/Generating-Clusters/AIREBO/with-SteepDescent/Only-C1/SD-CG-opt/Try1-1.4A-POS3A/HFTN-CG
REM
REM
REM
REM
REM
REM ./C.cell (11c1c37f851c82e70ff6c80c92926a4b)
REM
REM compiler GCC version 9.2.1 20190827 (Red Hat 9.2.1-1)
REM options -cpp -mtune=generic -march=x86-64 -g -O0 -fpre-include=/usr/include/finclude/math-vector-fortran.h
REM seed 1267211085 186351530 56682267 -102738669 1702220036 -1287296744 303462657 -321699845 -1291874077 -2089346380 1831156503 -170346533 -86290495 1062142069 -1487806308 -724071873 -1658173351 -845995829 -392191484 268148323 1586410620 -1137196838 -612043188 1588346929 -683618959 554388050 2117811098 1106047499 2105910929 -3825997 505332921 -1418920147 -1339331714
REM
CELL 1.54180   50.00000   50.00000   50.00000   90.00000   90.00000   90.00000
LATT -1
SFAC C  
C      1  0.4928290000000  0.5492310000000  0.4875580000000 1.0
C      1  0.4958480000000  0.5231810000000  0.5293250000000 1.0
C      1  0.5080240000000  0.5407710000000  0.5118130000000 1.0
C      1  0.4820140000000  0.4566390000000  0.5464710000000 1.0
C      1  0.5223960000000  0.5183600000000  0.4164500000000 1.0
C      1  0.4877900000000  0.4838970000000  0.5593500000000 1.0
C      1  0.4992840000000  0.3878940000000  0.5560340000000 1.0
C      1  0.5104640000000  0.5478550000000  0.4603500000000 1.0
C      1  0.5112550000000  0.5272890000000  0.4433100000000 1.0
C      1  0.5400800000000  0.5263650000000  0.3975960000000 1.0
C      1  0.4937570000000  0.5007850000000  0.4535990000000 1.0
C      1  0.5077920000000  0.5006350000000  0.5409230000000 1.0
C      1  0.4961560000000  0.4821410000000  0.5862150000000 1.0
C      1  0.5051950000000  0.4934430000000  0.4234960000000 1.0
C      1  0.5326030000000  0.5519710000000  0.5166320000000 1.0
C      1  0.4611750000000  0.5011280000000  0.4633110000000 1.0
C      1  0.5585630000000  0.4845320000000  0.5354150000000 1.0
C      1  0.5552090000000  0.5352050000000  0.3781020000000 1.0
C      1  0.4626140000000  0.5037280000000  0.5549040000000 1.0
C      1  0.5333980000000  0.4916750000000  0.5370620000000 1.0
C      1  0.4566200000000  0.4296940000000  0.5167560000000 1.0
C      1  0.4747620000000  0.4317990000000  0.5366750000000 1.0
C      1  0.4773120000000  0.5723210000000  0.4907250000000 1.0
C      1  0.4688510000000  0.5248560000000  0.5380180000000 1.0
C      1  0.4864210000000  0.4090990000000  0.5475510000000 1.0
C      1  0.4795880000000  0.5255050000000  0.4723600000000 1.0
END
