TITL C-2847957-7266-286 -0.00487023316832013 125000 -959.544985214334 0 0 174 (C1) n - 1
REM
REM in /home/bkarasulu/work/CARBON/AIRSS/Generating-Clusters/AIREBO/with-SteepDescent/Only-C1/SD-CG-opt/Try1-1.4A-POS3A/HFTN-CG
REM
REM
REM
REM
REM
REM ./C.cell (11c1c37f851c82e70ff6c80c92926a4b)
REM
REM compiler GCC version 9.2.1 20190827 (Red Hat 9.2.1-1)
REM options -cpp -mtune=generic -march=x86-64 -g -O0 -fpre-include=/usr/include/finclude/math-vector-fortran.h
REM seed -1840082177 755605451 1456758175 591407065 -299536077 -1684263649 146770746 2048947272 -1613728603 -1944521342 -1358499848 1324714207 959803892 1236815095 -2099785573 250890975 147553439 -1468188700 111572780 695090378 1186858833 -1281951542 1257136742 -253681480 -568954059 1564380962 1750796768 1080008984 1929963866 -384875199 2118915368 1527283863 226108426
REM
CELL 1.54180   50.00000   50.00000   50.00000   90.00000   90.00000   90.00000
LATT -1
SFAC C  
C      1  0.4045440000000  0.5766760000000  0.4780320000000 1.0
C      1  0.5572440000000  0.4816050000000  0.4562430000000 1.0
C      1  0.5541030000000  0.5524200000000  0.5059270000000 1.0
C      1  0.5613880000000  0.4942710000000  0.4938480000000 1.0
C      1  0.5770750000000  0.4564210000000  0.4488140000000 1.0
C      1  0.4682440000000  0.5464840000000  0.5704360000000 1.0
C      1  0.4246830000000  0.5704530000000  0.4555130000000 1.0
C      1  0.6015620000000  0.5397200000000  0.5447630000000 1.0
C      1  0.5834500000000  0.5423400000000  0.4265680000000 1.0
C      1  0.5079380000000  0.4926320000000  0.4533890000000 1.0
C      1  0.4362700000000  0.5286990000000  0.4718210000000 1.0
C      1  0.4215400000000  0.4542210000000  0.4612350000000 1.0
C      1  0.5209590000000  0.5950560000000  0.4484020000000 1.0
C      1  0.4243380000000  0.5668240000000  0.5235530000000 1.0
C      1  0.4797110000000  0.3939380000000  0.5345680000000 1.0
C      1  0.4507730000000  0.4469860000000  0.4730850000000 1.0
C      1  0.5415750000000  0.4574330000000  0.5653060000000 1.0
C      1  0.4433160000000  0.5278860000000  0.5764560000000 1.0
C      1  0.4911240000000  0.4234920000000  0.5461730000000 1.0
C      1  0.5914160000000  0.4259200000000  0.4922350000000 1.0
C      1  0.5025420000000  0.5444620000000  0.4851050000000 1.0
C      1  0.5279350000000  0.5472580000000  0.4268680000000 1.0
C      1  0.5603420000000  0.4443470000000  0.5455690000000 1.0
C      1  0.4774150000000  0.4430300000000  0.4330360000000 1.0
C      1  0.5366110000000  0.4794110000000  0.4784570000000 1.0
C      1  0.4648890000000  0.3920640000000  0.4833920000000 1.0
C      1  0.4149190000000  0.4466440000000  0.5345070000000 1.0
C      1  0.3985080000000  0.4968820000000  0.4423690000000 1.0
C      1  0.5780910000000  0.5979260000000  0.5056430000000 1.0
C      1  0.5852060000000  0.4732220000000  0.4987870000000 1.0
C      1  0.4176720000000  0.5394220000000  0.5644200000000 1.0
C      1  0.5936070000000  0.5636380000000  0.4687810000000 1.0
C      1  0.5538770000000  0.4585220000000  0.4240030000000 1.0
C      1  0.5136920000000  0.4150410000000  0.5689180000000 1.0
C      1  0.4032000000000  0.4617990000000  0.5084150000000 1.0
C      1  0.4378460000000  0.5001790000000  0.5844330000000 1.0
C      1  0.4459620000000  0.4537700000000  0.5953500000000 1.0
C      1  0.4486860000000  0.5410690000000  0.4231600000000 1.0
C      1  0.5117410000000  0.4826260000000  0.4961490000000 1.0
C      1  0.4842420000000  0.4240920000000  0.4588680000000 1.0
C      1  0.4850170000000  0.4539190000000  0.5869780000000 1.0
C      1  0.5455280000000  0.4149490000000  0.4958350000000 1.0
C      1  0.5028440000000  0.5271690000000  0.4157670000000 1.0
C      1  0.5102690000000  0.5409240000000  0.5440480000000 1.0
C      1  0.5170470000000  0.4668450000000  0.4371090000000 1.0
C      1  0.5287830000000  0.4859890000000  0.5388670000000 1.0
C      1  0.4260400000000  0.4665890000000  0.5533990000000 1.0
C      1  0.4713440000000  0.5904610000000  0.5111470000000 1.0
C      1  0.4861490000000  0.4262100000000  0.5854310000000 1.0
C      1  0.4492210000000  0.5733940000000  0.5645310000000 1.0
C      1  0.4562030000000  0.5986960000000  0.5716340000000 1.0
C      1  0.5821880000000  0.5326780000000  0.4591450000000 1.0
C      1  0.4690860000000  0.3822970000000  0.5152620000000 1.0
C      1  0.4962600000000  0.5128790000000  0.5979550000000 1.0
C      1  0.4351930000000  0.4009890000000  0.4813040000000 1.0
C      1  0.5061230000000  0.4530900000000  0.5379230000000 1.0
C      1  0.4953080000000  0.6024500000000  0.4601940000000 1.0
C      1  0.4863050000000  0.5564130000000  0.4583330000000 1.0
C      1  0.5887370000000  0.5195390000000  0.5252520000000 1.0
C      1  0.4912530000000  0.5630410000000  0.4290840000000 1.0
C      1  0.5150760000000  0.4937200000000  0.5991240000000 1.0
C      1  0.4470650000000  0.4732570000000  0.5744850000000 1.0
C      1  0.4447460000000  0.5011150000000  0.4815050000000 1.0
C      1  0.5250680000000  0.5668940000000  0.5502460000000 1.0
C      1  0.5226640000000  0.6030320000000  0.5199680000000 1.0
C      1  0.4257860000000  0.5631080000000  0.5509260000000 1.0
C      1  0.6129100000000  0.5446410000000  0.4816830000000 1.0
C      1  0.4760230000000  0.5835270000000  0.4665840000000 1.0
C      1  0.5717020000000  0.4124910000000  0.5087220000000 1.0
C      1  0.5256690000000  0.3965810000000  0.4819430000000 1.0
C      1  0.4001260000000  0.4309750000000  0.5005750000000 1.0
C      1  0.4421100000000  0.4891540000000  0.4052310000000 1.0
C      1  0.5656090000000  0.5268840000000  0.4865700000000 1.0
C      1  0.4972620000000  0.6016340000000  0.5081110000000 1.0
C      1  0.4780700000000  0.4739920000000  0.5604120000000 1.0
C      1  0.4725010000000  0.4569290000000  0.5345980000000 1.0
C      1  0.4906940000000  0.5601200000000  0.5907910000000 1.0
C      1  0.5509970000000  0.4262580000000  0.4460480000000 1.0
C      1  0.5407180000000  0.5410170000000  0.4573000000000 1.0
C      1  0.5027310000000  0.4203720000000  0.5155080000000 1.0
C      1  0.4964140000000  0.4006860000000  0.4928820000000 1.0
C      1  0.5229710000000  0.4415700000000  0.5855960000000 1.0
C      1  0.5201040000000  0.5959650000000  0.5645410000000 1.0
C      1  0.4313100000000  0.4649190000000  0.4148840000000 1.0
C      1  0.5414790000000  0.5017470000000  0.5995420000000 1.0
C      1  0.4675490000000  0.4694200000000  0.4756070000000 1.0
C      1  0.5734470000000  0.5779450000000  0.5298480000000 1.0
C      1  0.6088710000000  0.4881350000000  0.5110810000000 1.0
C      1  0.5272810000000  0.4111450000000  0.5379630000000 1.0
C      1  0.4684050000000  0.5599190000000  0.4133190000000 1.0
C      1  0.5342390000000  0.4601800000000  0.5201270000000 1.0
C      1  0.5145560000000  0.4215790000000  0.4625280000000 1.0
C      1  0.5324390000000  0.4504620000000  0.4611030000000 1.0
C      1  0.6108940000000  0.5156920000000  0.4657360000000 1.0
C      1  0.3948010000000  0.4829860000000  0.4686260000000 1.0
C      1  0.4588790000000  0.4910990000000  0.4521940000000 1.0
C      1  0.5400410000000  0.5762510000000  0.5237470000000 1.0
C      1  0.5500000000000  0.5013660000000  0.5605380000000 1.0
C      1  0.4503790000000  0.4434040000000  0.4164130000000 1.0
C      1  0.5705440000000  0.5276820000000  0.5669810000000 1.0
C      1  0.4870750000000  0.5183550000000  0.5672260000000 1.0
C      1  0.4206060000000  0.4058550000000  0.5085260000000 1.0
C      1  0.5039870000000  0.4248840000000  0.4241020000000 1.0
C      1  0.4563290000000  0.4419000000000  0.5123510000000 1.0
C      1  0.3978860000000  0.5197680000000  0.5110890000000 1.0
C      1  0.3951570000000  0.5459460000000  0.4668810000000 1.0
C      1  0.5306450000000  0.4784550000000  0.4109280000000 1.0
C      1  0.5117750000000  0.4738250000000  0.5649700000000 1.0
C      1  0.4072060000000  0.5119570000000  0.5796060000000 1.0
C      1  0.4703230000000  0.5440670000000  0.4927050000000 1.0
C      1  0.5327900000000  0.5081660000000  0.5059150000000 1.0
C      1  0.4874810000000  0.4967040000000  0.4794230000000 1.0
C      1  0.5763430000000  0.4838400000000  0.4272500000000 1.0
C      1  0.5892310000000  0.4502440000000  0.4788840000000 1.0
C      1  0.4435760000000  0.6046770000000  0.4991900000000 1.0
C      1  0.5745150000000  0.4927080000000  0.5392420000000 1.0
C      1  0.4986420000000  0.4523840000000  0.5047550000000 1.0
C      1  0.5392500000000  0.4426580000000  0.4934890000000 1.0
C      1  0.4003960000000  0.5249560000000  0.4443310000000 1.0
C      1  0.6081010000000  0.4879910000000  0.5403190000000 1.0
C      1  0.4281450000000  0.4840730000000  0.5301450000000 1.0
C      1  0.5662400000000  0.4668500000000  0.5241970000000 1.0
C      1  0.5082950000000  0.4646790000000  0.6058290000000 1.0
C      1  0.4760900000000  0.4327780000000  0.4885320000000 1.0
C      1  0.4131840000000  0.4688020000000  0.4361160000000 1.0
C      1  0.5070120000000  0.4587730000000  0.6330850000000 1.0
C      1  0.4169020000000  0.4258360000000  0.4745680000000 1.0
C      1  0.4783740000000  0.5007680000000  0.5394120000000 1.0
C      1  0.6076710000000  0.5165750000000  0.4990900000000 1.0
C      1  0.5169250000000  0.5769940000000  0.4266120000000 1.0
C      1  0.5316110000000  0.5102760000000  0.4127760000000 1.0
C      1  0.4958780000000  0.4950600000000  0.3618610000000 1.0
C      1  0.4571340000000  0.5027570000000  0.4224790000000 1.0
C      1  0.4327640000000  0.4276090000000  0.5242880000000 1.0
C      1  0.5611350000000  0.5508090000000  0.5462220000000 1.0
C      1  0.5579120000000  0.4787580000000  0.5846740000000 1.0
C      1  0.4766520000000  0.3920880000000  0.4521660000000 1.0
C      1  0.5623590000000  0.5115960000000  0.4410570000000 1.0
C      1  0.5822830000000  0.4682090000000  0.5984700000000 1.0
C      1  0.5261540000000  0.5328000000000  0.4852930000000 1.0
C      1  0.5985800000000  0.5646130000000  0.5444000000000 1.0
C      1  0.5748590000000  0.5869160000000  0.4769280000000 1.0
C      1  0.4224900000000  0.4779430000000  0.4855860000000 1.0
C      1  0.5521020000000  0.5627070000000  0.4753750000000 1.0
C      1  0.4773030000000  0.5256720000000  0.4318760000000 1.0
C      1  0.5259870000000  0.3920060000000  0.4496090000000 1.0
C      1  0.5090200000000  0.5111920000000  0.5300400000000 1.0
C      1  0.5012980000000  0.5144580000000  0.3872900000000 1.0
C      1  0.4474480000000  0.5802250000000  0.4772790000000 1.0
C      1  0.5508800000000  0.5267360000000  0.5921410000000 1.0
C      1  0.4060800000000  0.5405470000000  0.4948030000000 1.0
C      1  0.5302830000000  0.5108320000000  0.4523390000000 1.0
C      1  0.4676740000000  0.5008810000000  0.5067490000000 1.0
C      1  0.5555620000000  0.5248650000000  0.5248810000000 1.0
C      1  0.4376660000000  0.5531500000000  0.4954070000000 1.0
C      1  0.5554500000000  0.5316110000000  0.4144520000000 1.0
C      1  0.5431520000000  0.5548540000000  0.5754380000000 1.0
C      1  0.5314220000000  0.4330530000000  0.4217480000000 1.0
C      1  0.4750960000000  0.5249170000000  0.4649940000000 1.0
C      1  0.4713580000000  0.5629070000000  0.5176540000000 1.0
C      1  0.5210980000000  0.5181440000000  0.5669430000000 1.0
C      1  0.4033190000000  0.4937480000000  0.5169990000000 1.0
C      1  0.4410550000000  0.6319360000000  0.5014050000000 1.0
C      1  0.5231080000000  0.6161130000000  0.5455960000000 1.0
C      1  0.4280430000000  0.5418670000000  0.4445190000000 1.0
C      1  0.4167660000000  0.5865270000000  0.5019940000000 1.0
C      1  0.5007170000000  0.3977400000000  0.4337560000000 1.0
C      1  0.4815400000000  0.5512410000000  0.5407170000000 1.0
C      1  0.5156460000000  0.4860580000000  0.3854860000000 1.0
C      1  0.4842960000000  0.4723670000000  0.4395350000000 1.0
C      1  0.5450730000000  0.5917990000000  0.4613030000000 1.0
C      1  0.5148470000000  0.5669560000000  0.5888940000000 1.0
C      1  0.5547380000000  0.4191950000000  0.5344470000000 1.0
C      1  0.4527460000000  0.4755390000000  0.5159860000000 1.0
END
