TITL C-2847949-8115-528 -0.00454662053522128 125000 -1054.23086413138 0 0 197 (C1) n - 1
REM
REM in /home/bkarasulu/work/CARBON/AIRSS/Generating-Clusters/AIREBO/with-SteepDescent/Only-C1/SD-CG-opt/Try1-1.4A-POS3A/HFTN-CG
REM
REM
REM
REM
REM
REM ./C.cell (11c1c37f851c82e70ff6c80c92926a4b)
REM
REM compiler GCC version 9.2.1 20190827 (Red Hat 9.2.1-1)
REM options -cpp -mtune=generic -march=x86-64 -g -O0 -fpre-include=/usr/include/finclude/math-vector-fortran.h
REM seed -1214536772 -1653464693 2133237183 -1919298839 -1161911989 -1383875336 898633338 834213877 99636816 -463661068 236761666 -1920311566 -1646859903 -1315682127 120495773 1737893454 -1206163420 563940454 1948896975 1256022489 -1330976903 1827418719 -1958671467 -1098672269 1395762280 -225642377 373513318 -558019831 991086490 -1977347592 -87641182 -180982723 174753700
REM
CELL 1.54180   50.00000   50.00000   50.00000   90.00000   90.00000   90.00000
LATT -1
SFAC C  
C      1  0.4800620000000  0.5677140000000  0.4544900000000 1.0
C      1  0.4147200000000  0.5386280000000  0.5482980000000 1.0
C      1  0.5110130000000  0.5381390000000  0.3979500000000 1.0
C      1  0.4924810000000  0.4673480000000  0.4337130000000 1.0
C      1  0.4154970000000  0.5176710000000  0.5909630000000 1.0
C      1  0.4690230000000  0.5188530000000  0.5197560000000 1.0
C      1  0.5378870000000  0.5377340000000  0.6116990000000 1.0
C      1  0.5168660000000  0.4822350000000  0.4510040000000 1.0
C      1  0.5001290000000  0.4836720000000  0.4805650000000 1.0
C      1  0.4178380000000  0.5432870000000  0.5768380000000 1.0
C      1  0.4747480000000  0.5593540000000  0.4152280000000 1.0
C      1  0.5626980000000  0.5601990000000  0.5637090000000 1.0
C      1  0.5352430000000  0.4340810000000  0.5917910000000 1.0
C      1  0.4395720000000  0.4896050000000  0.5634950000000 1.0
C      1  0.5708830000000  0.5083850000000  0.3996840000000 1.0
C      1  0.4368830000000  0.4586100000000  0.4710780000000 1.0
C      1  0.3972120000000  0.5592930000000  0.5016870000000 1.0
C      1  0.5291420000000  0.5120020000000  0.5174120000000 1.0
C      1  0.4113760000000  0.4468870000000  0.4571450000000 1.0
C      1  0.4457630000000  0.5710040000000  0.4042060000000 1.0
C      1  0.5991960000000  0.5255030000000  0.5204350000000 1.0
C      1  0.5429990000000  0.5425890000000  0.4959580000000 1.0
C      1  0.5459310000000  0.5877980000000  0.4277360000000 1.0
C      1  0.4417820000000  0.5574170000000  0.5815560000000 1.0
C      1  0.5080690000000  0.4179890000000  0.5791840000000 1.0
C      1  0.5936660000000  0.5597130000000  0.4776740000000 1.0
C      1  0.4814610000000  0.5311510000000  0.5585400000000 1.0
C      1  0.4856090000000  0.4872120000000  0.5594660000000 1.0
C      1  0.4047220000000  0.4633720000000  0.5561100000000 1.0
C      1  0.5030160000000  0.4812370000000  0.3977980000000 1.0
C      1  0.5269100000000  0.6095670000000  0.5064880000000 1.0
C      1  0.5227490000000  0.5748740000000  0.5635260000000 1.0
C      1  0.5402890000000  0.4497960000000  0.4167390000000 1.0
C      1  0.5187550000000  0.5527330000000  0.5407290000000 1.0
C      1  0.4773690000000  0.3940540000000  0.5316750000000 1.0
C      1  0.5391720000000  0.3920560000000  0.5430420000000 1.0
C      1  0.5648670000000  0.5890050000000  0.4502430000000 1.0
C      1  0.5744830000000  0.4811700000000  0.5820590000000 1.0
C      1  0.3978510000000  0.5086160000000  0.4775640000000 1.0
C      1  0.5324560000000  0.5314670000000  0.4287660000000 1.0
C      1  0.4765760000000  0.4953380000000  0.4608910000000 1.0
C      1  0.5849440000000  0.4143710000000  0.4633750000000 1.0
C      1  0.4933140000000  0.5877690000000  0.4178670000000 1.0
C      1  0.5988510000000  0.5550740000000  0.5348290000000 1.0
C      1  0.4395470000000  0.5319310000000  0.5288540000000 1.0
C      1  0.4688520000000  0.5701510000000  0.5928470000000 1.0
C      1  0.4822670000000  0.4812040000000  0.5173070000000 1.0
C      1  0.5320860000000  0.4781080000000  0.4051350000000 1.0
C      1  0.5275040000000  0.4407670000000  0.4811870000000 1.0
C      1  0.5906630000000  0.5566210000000  0.5609050000000 1.0
C      1  0.5181120000000  0.5118290000000  0.4869590000000 1.0
C      1  0.3894360000000  0.4915680000000  0.5448180000000 1.0
C      1  0.4198330000000  0.4392080000000  0.5666230000000 1.0
C      1  0.4082310000000  0.5294310000000  0.5002490000000 1.0
C      1  0.5200150000000  0.5943890000000  0.4836810000000 1.0
C      1  0.5865450000000  0.4712020000000  0.4277400000000 1.0
C      1  0.4961610000000  0.5067490000000  0.4391590000000 1.0
C      1  0.4592190000000  0.5132030000000  0.5735100000000 1.0
C      1  0.5868200000000  0.4401010000000  0.5358390000000 1.0
C      1  0.4807870000000  0.5197010000000  0.5972160000000 1.0
C      1  0.4168540000000  0.4144200000000  0.5560910000000 1.0
C      1  0.5527830000000  0.4915380000000  0.3849270000000 1.0
C      1  0.5070400000000  0.5005260000000  0.5950000000000 1.0
C      1  0.4527890000000  0.5172670000000  0.4378000000000 1.0
C      1  0.5123030000000  0.4121970000000  0.5376460000000 1.0
C      1  0.5816370000000  0.5065450000000  0.4751320000000 1.0
C      1  0.6162670000000  0.4779990000000  0.4890220000000 1.0
C      1  0.5705450000000  0.5411360000000  0.5108820000000 1.0
C      1  0.4752530000000  0.4251620000000  0.5259120000000 1.0
C      1  0.4333820000000  0.5017320000000  0.5142280000000 1.0
C      1  0.4719170000000  0.4517530000000  0.5700770000000 1.0
C      1  0.6035500000000  0.5369620000000  0.4887200000000 1.0
C      1  0.4154160000000  0.5811770000000  0.5030220000000 1.0
C      1  0.4998320000000  0.5073470000000  0.5222030000000 1.0
C      1  0.4494740000000  0.5670550000000  0.4878380000000 1.0
C      1  0.4243220000000  0.4749840000000  0.5295980000000 1.0
C      1  0.5603850000000  0.5407710000000  0.4457940000000 1.0
C      1  0.4574770000000  0.4875200000000  0.4948750000000 1.0
C      1  0.5806010000000  0.4242710000000  0.5135480000000 1.0
C      1  0.4196710000000  0.3993040000000  0.4794760000000 1.0
C      1  0.4457590000000  0.4495300000000  0.4967630000000 1.0
C      1  0.5439390000000  0.5240670000000  0.4704230000000 1.0
C      1  0.5466320000000  0.5426280000000  0.5492480000000 1.0
C      1  0.5064230000000  0.5336220000000  0.4505340000000 1.0
C      1  0.5585180000000  0.4546620000000  0.4823630000000 1.0
C      1  0.5920560000000  0.4596210000000  0.4796390000000 1.0
C      1  0.5299810000000  0.4584700000000  0.6057020000000 1.0
C      1  0.5021340000000  0.6062840000000  0.5274790000000 1.0
C      1  0.4915160000000  0.4492400000000  0.3981550000000 1.0
C      1  0.5860700000000  0.5004770000000  0.4234490000000 1.0
C      1  0.4452910000000  0.5059490000000  0.4689950000000 1.0
C      1  0.3977380000000  0.5004500000000  0.4286680000000 1.0
C      1  0.4272250000000  0.4129880000000  0.5304940000000 1.0
C      1  0.5065820000000  0.5087120000000  0.5538950000000 1.0
C      1  0.4257620000000  0.4373510000000  0.4296800000000 1.0
C      1  0.5226930000000  0.5997040000000  0.4138680000000 1.0
C      1  0.5670140000000  0.5077360000000  0.5055180000000 1.0
C      1  0.4039700000000  0.4206320000000  0.4725980000000 1.0
C      1  0.4162110000000  0.4736550000000  0.4367110000000 1.0
C      1  0.5231400000000  0.5245350000000  0.5770920000000 1.0
C      1  0.5741720000000  0.4477770000000  0.4187490000000 1.0
C      1  0.5457610000000  0.3858770000000  0.5142640000000 1.0
C      1  0.4753710000000  0.4606010000000  0.4842120000000 1.0
C      1  0.4881620000000  0.4381110000000  0.5934510000000 1.0
C      1  0.4733760000000  0.4085490000000  0.4491840000000 1.0
C      1  0.4336390000000  0.5057500000000  0.6103970000000 1.0
C      1  0.5135100000000  0.5486140000000  0.5073880000000 1.0
C      1  0.4813580000000  0.4773990000000  0.5908000000000 1.0
C      1  0.4906290000000  0.5885450000000  0.4770040000000 1.0
C      1  0.4606390000000  0.5551860000000  0.5571790000000 1.0
C      1  0.4625060000000  0.5982990000000  0.4912540000000 1.0
C      1  0.4904880000000  0.5112680000000  0.3952960000000 1.0
C      1  0.5780380000000  0.4782320000000  0.4566540000000 1.0
C      1  0.4611220000000  0.5893000000000  0.4267820000000 1.0
C      1  0.4561440000000  0.5917060000000  0.4575060000000 1.0
C      1  0.4186440000000  0.5394850000000  0.4543830000000 1.0
C      1  0.3923740000000  0.4646110000000  0.5243040000000 1.0
C      1  0.4720740000000  0.4073700000000  0.4791760000000 1.0
C      1  0.4994930000000  0.5353660000000  0.4810900000000 1.0
C      1  0.4619590000000  0.4917780000000  0.5401710000000 1.0
C      1  0.5498880000000  0.4862370000000  0.4884210000000 1.0
C      1  0.4794590000000  0.5303420000000  0.4211920000000 1.0
C      1  0.5272750000000  0.4399320000000  0.5613130000000 1.0
C      1  0.5084650000000  0.5640380000000  0.4361560000000 1.0
C      1  0.6106820000000  0.5050110000000  0.4882730000000 1.0
C      1  0.5163420000000  0.4321410000000  0.5104070000000 1.0
C      1  0.4887420000000  0.5498930000000  0.5976880000000 1.0
C      1  0.5495100000000  0.4513370000000  0.4496260000000 1.0
C      1  0.5349140000000  0.5612600000000  0.4551430000000 1.0
C      1  0.5090950000000  0.4622780000000  0.5262720000000 1.0
C      1  0.4112360000000  0.4991440000000  0.5697940000000 1.0
C      1  0.4436110000000  0.3924760000000  0.4879010000000 1.0
C      1  0.4716030000000  0.5860870000000  0.5627230000000 1.0
C      1  0.5436820000000  0.5012700000000  0.5666030000000 1.0
C      1  0.4613480000000  0.5097600000000  0.3817170000000 1.0
C      1  0.4855480000000  0.4304030000000  0.4960870000000 1.0
C      1  0.4958510000000  0.4400020000000  0.5482900000000 1.0
C      1  0.5222450000000  0.3810720000000  0.4970320000000 1.0
C      1  0.5720960000000  0.4271020000000  0.4419630000000 1.0
C      1  0.4724500000000  0.4744910000000  0.4110760000000 1.0
C      1  0.5919020000000  0.4954930000000  0.5347270000000 1.0
C      1  0.5379530000000  0.5709180000000  0.4823820000000 1.0
C      1  0.4048350000000  0.5134950000000  0.5284910000000 1.0
C      1  0.4931390000000  0.5808010000000  0.5095000000000 1.0
C      1  0.4731380000000  0.3810680000000  0.5003370000000 1.0
C      1  0.5146540000000  0.4328010000000  0.4139810000000 1.0
C      1  0.5512710000000  0.4506160000000  0.5153370000000 1.0
C      1  0.5892000000000  0.4292810000000  0.4873000000000 1.0
C      1  0.4368270000000  0.5358320000000  0.4828840000000 1.0
C      1  0.5865200000000  0.5062210000000  0.5819750000000 1.0
C      1  0.4696060000000  0.5296340000000  0.4895280000000 1.0
C      1  0.5156700000000  0.4482260000000  0.4508170000000 1.0
C      1  0.5449930000000  0.4829230000000  0.5952370000000 1.0
C      1  0.5347930000000  0.5098740000000  0.6122340000000 1.0
C      1  0.5795160000000  0.5739250000000  0.5156080000000 1.0
C      1  0.4675380000000  0.5404200000000  0.4578700000000 1.0
C      1  0.5840810000000  0.5174890000000  0.5562550000000 1.0
C      1  0.4881130000000  0.3951760000000  0.5639410000000 1.0
C      1  0.5780950000000  0.4690710000000  0.5513970000000 1.0
C      1  0.4652710000000  0.5684710000000  0.5177500000000 1.0
C      1  0.5561740000000  0.5131900000000  0.5372960000000 1.0
C      1  0.5273800000000  0.4825410000000  0.5465800000000 1.0
C      1  0.5066060000000  0.3832880000000  0.5221300000000 1.0
C      1  0.4696030000000  0.6112670000000  0.5188280000000 1.0
C      1  0.4563300000000  0.4722170000000  0.4511240000000 1.0
C      1  0.5054310000000  0.3864620000000  0.4545410000000 1.0
C      1  0.4407870000000  0.4992630000000  0.3924630000000 1.0
C      1  0.5020680000000  0.4586960000000  0.6102310000000 1.0
C      1  0.4485640000000  0.4207610000000  0.4310950000000 1.0
C      1  0.4344530000000  0.5813470000000  0.5241270000000 1.0
C      1  0.4442990000000  0.4875850000000  0.4235160000000 1.0
C      1  0.4594000000000  0.4960100000000  0.6089360000000 1.0
C      1  0.4167170000000  0.4943910000000  0.4632690000000 1.0
C      1  0.4870640000000  0.5462800000000  0.5286460000000 1.0
C      1  0.4745980000000  0.4345000000000  0.4213650000000 1.0
C      1  0.5552030000000  0.6047030000000  0.5080810000000 1.0
C      1  0.5000770000000  0.3775810000000  0.4798640000000 1.0
C      1  0.5462200000000  0.5030750000000  0.4226110000000 1.0
C      1  0.5471540000000  0.4181350000000  0.5140060000000 1.0
C      1  0.5236510000000  0.4751460000000  0.5009220000000 1.0
C      1  0.5643440000000  0.5963980000000  0.5348690000000 1.0
C      1  0.4275850000000  0.5902020000000  0.4759470000000 1.0
C      1  0.4756150000000  0.4475640000000  0.4527810000000 1.0
C      1  0.5050640000000  0.4175110000000  0.4406550000000 1.0
C      1  0.4439110000000  0.4580150000000  0.5516480000000 1.0
C      1  0.4532600000000  0.5994330000000  0.5398970000000 1.0
C      1  0.5800470000000  0.5163230000000  0.4451550000000 1.0
C      1  0.5810000000000  0.5636360000000  0.4511130000000 1.0
C      1  0.5479260000000  0.4939800000000  0.4553650000000 1.0
C      1  0.4472940000000  0.4370530000000  0.5250680000000 1.0
C      1  0.5320950000000  0.5609610000000  0.4118520000000 1.0
C      1  0.5529310000000  0.5872980000000  0.5584780000000 1.0
C      1  0.5007060000000  0.5952480000000  0.5567600000000 1.0
C      1  0.5476250000000  0.4583040000000  0.5440710000000 1.0
C      1  0.4000950000000  0.5246940000000  0.4410110000000 1.0
C      1  0.5189500000000  0.5543880000000  0.5888300000000 1.0
C      1  0.5688510000000  0.5820040000000  0.4843380000000 1.0
END
