TITL C-2848500-1637-299 0.00146812780684252 125000 -380.295587472307 0 0 72 (C1) n - 1
REM
REM in /home/bkarasulu/work/CARBON/AIRSS/Generating-Clusters/AIREBO/with-SteepDescent/Only-C1/SD-CG-opt/Try1-1.4A-POS3A/HFTN-CG
REM
REM
REM
REM
REM
REM ./C.cell (11c1c37f851c82e70ff6c80c92926a4b)
REM
REM compiler GCC version 9.2.1 20190827 (Red Hat 9.2.1-1)
REM options -cpp -mtune=generic -march=x86-64 -g -O0 -fpre-include=/usr/include/finclude/math-vector-fortran.h
REM seed -709770543 1269678985 -1109000569 1679841741 2097821462 190209212 337363422 986907540 19536218 355414507 -129989871 -199556409 -204716730 550438564 2000074745 225819133 -2041192694 -1964180510 923197342 -268847842 -1808510584 -1358588647 29624658 1938022919 100591716 -797750695 1242600006 1031208105 186534495 -801784018 -363350131 -1625477595 -283949453
REM
CELL 1.54180   50.00000   50.00000   50.00000   90.00000   90.00000   90.00000
LATT -1
SFAC C  
C      1  0.5196560000000  0.5214320000000  0.5399240000000 1.0
C      1  0.4615050000000  0.4932390000000  0.4440980000000 1.0
C      1  0.5344870000000  0.4556980000000  0.4918570000000 1.0
C      1  0.4934540000000  0.5575890000000  0.5771030000000 1.0
C      1  0.4924830000000  0.5595370000000  0.5459420000000 1.0
C      1  0.5474680000000  0.4663310000000  0.5431580000000 1.0
C      1  0.4928200000000  0.4769620000000  0.5548550000000 1.0
C      1  0.4749670000000  0.5007540000000  0.4744410000000 1.0
C      1  0.5514100000000  0.4861770000000  0.5684910000000 1.0
C      1  0.5212870000000  0.5217400000000  0.4804600000000 1.0
C      1  0.4848450000000  0.5321700000000  0.4378380000000 1.0
C      1  0.5366330000000  0.5552290000000  0.4338420000000 1.0
C      1  0.5371390000000  0.5145110000000  0.5664130000000 1.0
C      1  0.5281030000000  0.4774770000000  0.5171860000000 1.0
C      1  0.4546670000000  0.5445390000000  0.4609730000000 1.0
C      1  0.4331710000000  0.5160790000000  0.5029920000000 1.0
C      1  0.4303390000000  0.4550290000000  0.5186410000000 1.0
C      1  0.5661680000000  0.5243200000000  0.4766710000000 1.0
C      1  0.5398440000000  0.5030590000000  0.4978410000000 1.0
C      1  0.4539930000000  0.4785270000000  0.5254210000000 1.0
C      1  0.5036250000000  0.4542400000000  0.4959940000000 1.0
C      1  0.4597490000000  0.4462880000000  0.5336550000000 1.0
C      1  0.4800370000000  0.5270530000000  0.5809710000000 1.0
C      1  0.5758290000000  0.4833460000000  0.5457780000000 1.0
C      1  0.5292780000000  0.4952310000000  0.5927380000000 1.0
C      1  0.4810940000000  0.5034500000000  0.5078030000000 1.0
C      1  0.5296110000000  0.4592070000000  0.4324490000000 1.0
C      1  0.4700700000000  0.5849330000000  0.5014280000000 1.0
C      1  0.5099690000000  0.4550930000000  0.5352610000000 1.0
C      1  0.4200270000000  0.5002960000000  0.5376410000000 1.0
C      1  0.4858380000000  0.4372240000000  0.5193010000000 1.0
C      1  0.5657400000000  0.4538520000000  0.5018660000000 1.0
C      1  0.4491740000000  0.5021540000000  0.5451160000000 1.0
C      1  0.5787490000000  0.4783940000000  0.4987600000000 1.0
C      1  0.5629370000000  0.4917430000000  0.4756000000000 1.0
C      1  0.4582590000000  0.5177750000000  0.4315890000000 1.0
C      1  0.5273000000000  0.5335260000000  0.4185440000000 1.0
C      1  0.5108710000000  0.5478770000000  0.5290670000000 1.0
C      1  0.4294120000000  0.4916570000000  0.4798240000000 1.0
C      1  0.4858950000000  0.5568790000000  0.4579180000000 1.0
C      1  0.4591000000000  0.5251290000000  0.5221010000000 1.0
C      1  0.4992550000000  0.4749850000000  0.4527310000000 1.0
C      1  0.4693090000000  0.4712540000000  0.4268000000000 1.0
C      1  0.4174820000000  0.4857980000000  0.5111220000000 1.0
C      1  0.4734080000000  0.4319870000000  0.4700950000000 1.0
C      1  0.5002470000000  0.4661000000000  0.4228210000000 1.0
C      1  0.5497940000000  0.5450640000000  0.4955420000000 1.0
C      1  0.5519630000000  0.5310900000000  0.5432250000000 1.0
C      1  0.5425550000000  0.4686700000000  0.4626410000000 1.0
C      1  0.5805580000000  0.4959510000000  0.5206960000000 1.0
C      1  0.5366780000000  0.5484770000000  0.4654780000000 1.0
C      1  0.5437060000000  0.4871770000000  0.4347910000000 1.0
C      1  0.5319030000000  0.4378580000000  0.5495790000000 1.0
C      1  0.4750830000000  0.4708120000000  0.5004100000000 1.0
C      1  0.5140830000000  0.5694430000000  0.4523650000000 1.0
C      1  0.5037620000000  0.4976280000000  0.5297390000000 1.0
C      1  0.5277340000000  0.5090100000000  0.4331910000000 1.0
C      1  0.4999140000000  0.5379960000000  0.4104510000000 1.0
C      1  0.4479230000000  0.5192150000000  0.4724660000000 1.0
C      1  0.4917360000000  0.4539260000000  0.4682370000000 1.0
C      1  0.5617270000000  0.5208070000000  0.5161600000000 1.0
C      1  0.5014720000000  0.5007150000000  0.5792240000000 1.0
C      1  0.5162510000000  0.5494190000000  0.4995620000000 1.0
C      1  0.4434850000000  0.4646590000000  0.4894650000000 1.0
C      1  0.4901240000000  0.5608940000000  0.4886040000000 1.0
C      1  0.4464930000000  0.4411820000000  0.4692630000000 1.0
C      1  0.4697020000000  0.5398190000000  0.5508760000000 1.0
C      1  0.4805460000000  0.4172080000000  0.4939850000000 1.0
C      1  0.4627270000000  0.5542710000000  0.5076320000000 1.0
C      1  0.4711990000000  0.4541320000000  0.5603420000000 1.0
C      1  0.5021000000000  0.5087540000000  0.4555600000000 1.0
C      1  0.4700800000000  0.4999510000000  0.5653920000000 1.0
END
