TITL C-2848502-4955-139 8.02267681947325e-05 125000 -523.073465671898 0 0 98 (C1) n - 1
REM
REM in /home/bkarasulu/work/CARBON/AIRSS/Generating-Clusters/AIREBO/with-SteepDescent/Only-C1/SD-CG-opt/Try1-1.4A-POS3A/HFTN-CG
REM
REM
REM
REM
REM
REM ./C.cell (11c1c37f851c82e70ff6c80c92926a4b)
REM
REM compiler GCC version 9.2.1 20190827 (Red Hat 9.2.1-1)
REM options -cpp -mtune=generic -march=x86-64 -g -O0 -fpre-include=/usr/include/finclude/math-vector-fortran.h
REM seed 2026712373 -1115880791 -1843547704 901613112 -460474731 1198353352 -879471525 1933231695 993001457 -1555997790 -782537494 2021812418 1907469118 -629444551 -1120846469 1785065458 -416212730 -222934136 -930879232 -1439250422 372773521 1947974104 -1675847657 -909561282 474811757 -1183563072 507030939 2087591501 134178241 1941272628 1542595863 323019296 873415060
REM
CELL 1.54180   50.00000   50.00000   50.00000   90.00000   90.00000   90.00000
LATT -1
SFAC C  
C      1  0.5144070000000  0.4179420000000  0.5554300000000 1.0
C      1  0.5345520000000  0.4292480000000  0.5392630000000 1.0
C      1  0.5109900000000  0.5329930000000  0.5559130000000 1.0
C      1  0.5210140000000  0.4323880000000  0.5082290000000 1.0
C      1  0.5109950000000  0.5576530000000  0.5051590000000 1.0
C      1  0.5810510000000  0.4827340000000  0.5073840000000 1.0
C      1  0.4396470000000  0.5367180000000  0.5443920000000 1.0
C      1  0.5245860000000  0.4852680000000  0.4947890000000 1.0
C      1  0.4860570000000  0.5797790000000  0.4701730000000 1.0
C      1  0.5400350000000  0.5196820000000  0.5788340000000 1.0
C      1  0.4449790000000  0.5071910000000  0.5283860000000 1.0
C      1  0.4548460000000  0.4468740000000  0.5059190000000 1.0
C      1  0.5489750000000  0.4568960000000  0.5442650000000 1.0
C      1  0.4291790000000  0.5268270000000  0.5071440000000 1.0
C      1  0.5512190000000  0.4237590000000  0.4650160000000 1.0
C      1  0.5458070000000  0.4861670000000  0.4420860000000 1.0
C      1  0.5803360000000  0.4687170000000  0.5385100000000 1.0
C      1  0.5401230000000  0.5007840000000  0.4722710000000 1.0
C      1  0.5346250000000  0.5360320000000  0.4328910000000 1.0
C      1  0.4687080000000  0.5527430000000  0.4568020000000 1.0
C      1  0.4398200000000  0.4238600000000  0.5259420000000 1.0
C      1  0.4823850000000  0.4601040000000  0.4909670000000 1.0
C      1  0.4598220000000  0.5126500000000  0.4784550000000 1.0
C      1  0.4688070000000  0.5615920000000  0.5139380000000 1.0
C      1  0.4348270000000  0.4446970000000  0.4785110000000 1.0
C      1  0.4873070000000  0.5468560000000  0.5358260000000 1.0
C      1  0.5017450000000  0.5820250000000  0.5243320000000 1.0
C      1  0.5156760000000  0.5552310000000  0.4399600000000 1.0
C      1  0.4520640000000  0.5422620000000  0.4932910000000 1.0
C      1  0.5926680000000  0.5047320000000  0.4606470000000 1.0
C      1  0.5036410000000  0.4299760000000  0.4549540000000 1.0
C      1  0.5076420000000  0.5272280000000  0.5168910000000 1.0
C      1  0.4414170000000  0.5649530000000  0.4729950000000 1.0
C      1  0.4121960000000  0.5089710000000  0.4666390000000 1.0
C      1  0.5701180000000  0.4685240000000  0.4806520000000 1.0
C      1  0.5424940000000  0.5635010000000  0.4816140000000 1.0
C      1  0.5395310000000  0.4570770000000  0.4305230000000 1.0
C      1  0.5212710000000  0.5072770000000  0.4376040000000 1.0
C      1  0.4990060000000  0.5609570000000  0.5711830000000 1.0
C      1  0.5404130000000  0.5311640000000  0.5087300000000 1.0
C      1  0.5153090000000  0.4551990000000  0.4836480000000 1.0
C      1  0.5629860000000  0.5263360000000  0.5309860000000 1.0
C      1  0.5318670000000  0.5079530000000  0.5479840000000 1.0
C      1  0.5475710000000  0.5239120000000  0.4815410000000 1.0
C      1  0.4457030000000  0.4731740000000  0.5491980000000 1.0
C      1  0.4861270000000  0.5305660000000  0.5777860000000 1.0
C      1  0.4680980000000  0.5030410000000  0.4348540000000 1.0
C      1  0.5735560000000  0.4842100000000  0.4581290000000 1.0
C      1  0.4339880000000  0.4926770000000  0.4870310000000 1.0
C      1  0.4970830000000  0.5029430000000  0.4875840000000 1.0
C      1  0.5663670000000  0.5460680000000  0.4685310000000 1.0
C      1  0.4070810000000  0.5216190000000  0.4929160000000 1.0
C      1  0.4859460000000  0.4192790000000  0.5419050000000 1.0
C      1  0.4832980000000  0.5867220000000  0.4982770000000 1.0
C      1  0.4898740000000  0.5479520000000  0.4306290000000 1.0
C      1  0.4722950000000  0.5066050000000  0.5762730000000 1.0
C      1  0.4488630000000  0.5008520000000  0.5615680000000 1.0
C      1  0.5222910000000  0.4925110000000  0.5830500000000 1.0
C      1  0.5487730000000  0.4507040000000  0.4795490000000 1.0
C      1  0.4941140000000  0.4158350000000  0.5114720000000 1.0
C      1  0.4240370000000  0.5228040000000  0.4452820000000 1.0
C      1  0.4679450000000  0.4584450000000  0.5655390000000 1.0
C      1  0.5062620000000  0.4627870000000  0.4517600000000 1.0
C      1  0.5105600000000  0.5567910000000  0.4711720000000 1.0
C      1  0.4755390000000  0.5035990000000  0.5138970000000 1.0
C      1  0.5509400000000  0.5420760000000  0.5556900000000 1.0
C      1  0.5421950000000  0.5674040000000  0.5145200000000 1.0
C      1  0.4734810000000  0.4214220000000  0.4931830000000 1.0
C      1  0.5589380000000  0.4951370000000  0.5381650000000 1.0
C      1  0.4399620000000  0.4758200000000  0.5157880000000 1.0
C      1  0.5317940000000  0.4329760000000  0.4443500000000 1.0
C      1  0.5826740000000  0.5137410000000  0.5067000000000 1.0
C      1  0.4780890000000  0.4266080000000  0.4653850000000 1.0
C      1  0.4835540000000  0.4827470000000  0.5380730000000 1.0
C      1  0.5207400000000  0.4704810000000  0.5563130000000 1.0
C      1  0.4503950000000  0.5283090000000  0.4417640000000 1.0
C      1  0.5604700000000  0.5425960000000  0.4382060000000 1.0
C      1  0.5496670000000  0.4738960000000  0.5144840000000 1.0
C      1  0.4746300000000  0.4502700000000  0.5333790000000 1.0
C      1  0.4685050000000  0.4805900000000  0.4711800000000 1.0
C      1  0.5418710000000  0.4131770000000  0.4915040000000 1.0
C      1  0.5127120000000  0.4946570000000  0.5252470000000 1.0
C      1  0.5874470000000  0.5246790000000  0.4805710000000 1.0
C      1  0.4605160000000  0.4503330000000  0.4578720000000 1.0
C      1  0.4922840000000  0.4820270000000  0.5709340000000 1.0
C      1  0.4927760000000  0.5197790000000  0.4238950000000 1.0
C      1  0.4872490000000  0.5327480000000  0.4771110000000 1.0
C      1  0.4505150000000  0.4746380000000  0.4362460000000 1.0
C      1  0.4285200000000  0.4728970000000  0.4621180000000 1.0
C      1  0.4826950000000  0.4664260000000  0.4289340000000 1.0
C      1  0.4343460000000  0.5870840000000  0.4871950000000 1.0
C      1  0.5135560000000  0.5778300000000  0.5505720000000 1.0
C      1  0.4461850000000  0.5868720000000  0.5125910000000 1.0
C      1  0.4545740000000  0.4131520000000  0.5437930000000 1.0
C      1  0.4591160000000  0.5510820000000  0.5511340000000 1.0
C      1  0.5139460000000  0.4606650000000  0.5257430000000 1.0
C      1  0.4948030000000  0.4945070000000  0.4547150000000 1.0
C      1  0.5403400000000  0.5667600000000  0.5455730000000 1.0
END
