TITL C-2848498-1409-462 -0.000704952702960432 125000 -1077.53551600791 0 0 200 (C1) n - 1
REM
REM in /home/bkarasulu/work/CARBON/AIRSS/Generating-Clusters/AIREBO/with-SteepDescent/Only-C1/SD-CG-opt/Try1-1.4A-POS3A/HFTN-CG
REM
REM
REM
REM
REM
REM ./C.cell (11c1c37f851c82e70ff6c80c92926a4b)
REM
REM compiler GCC version 9.2.1 20190827 (Red Hat 9.2.1-1)
REM options -cpp -mtune=generic -march=x86-64 -g -O0 -fpre-include=/usr/include/finclude/math-vector-fortran.h
REM seed 1191972768 368648881 -1514281466 325129608 2145245218 -193268642 -1333175811 1505329110 -147135671 -1822324366 68801281 884453593 691614022 1334087286 -656956213 997872499 -900851676 2088422420 1403137791 2135778913 947383219 -1103218781 542203383 594480884 1407738572 360773076 884527145 -871027978 -134900886 -1881921222 2069340278 1356163072 -1303546970
REM
CELL 1.54180   50.00000   50.00000   50.00000   90.00000   90.00000   90.00000
LATT -1
SFAC C  
C      1  0.4461210000000  0.5859790000000  0.4941160000000 1.0
C      1  0.5332570000000  0.4256600000000  0.5151700000000 1.0
C      1  0.4262150000000  0.5306460000000  0.4659510000000 1.0
C      1  0.5688320000000  0.4156850000000  0.4844940000000 1.0
C      1  0.5521180000000  0.5103010000000  0.4055120000000 1.0
C      1  0.6054570000000  0.4713110000000  0.4560240000000 1.0
C      1  0.5335230000000  0.5780910000000  0.4391290000000 1.0
C      1  0.4324190000000  0.5480470000000  0.5864510000000 1.0
C      1  0.4052170000000  0.5273190000000  0.5316110000000 1.0
C      1  0.5299590000000  0.4996000000000  0.4251530000000 1.0
C      1  0.4804630000000  0.5581250000000  0.4289560000000 1.0
C      1  0.5235020000000  0.5734950000000  0.5116820000000 1.0
C      1  0.5408940000000  0.4580580000000  0.5221130000000 1.0
C      1  0.3827760000000  0.4649940000000  0.4964940000000 1.0
C      1  0.4585480000000  0.5487140000000  0.6024290000000 1.0
C      1  0.5438220000000  0.4976970000000  0.5160700000000 1.0
C      1  0.4449520000000  0.4475090000000  0.5799090000000 1.0
C      1  0.4512100000000  0.4939480000000  0.5236680000000 1.0
C      1  0.5883930000000  0.4251920000000  0.4633390000000 1.0
C      1  0.5339280000000  0.4893840000000  0.5873900000000 1.0
C      1  0.4693210000000  0.4728020000000  0.5065430000000 1.0
C      1  0.5190870000000  0.5665390000000  0.6031900000000 1.0
C      1  0.5087160000000  0.4153790000000  0.4261480000000 1.0
C      1  0.5826610000000  0.5352730000000  0.5595060000000 1.0
C      1  0.5437940000000  0.4988790000000  0.4550320000000 1.0
C      1  0.4565440000000  0.4773070000000  0.5890940000000 1.0
C      1  0.4189780000000  0.5232190000000  0.5888970000000 1.0
C      1  0.5076320000000  0.5554700000000  0.5489100000000 1.0
C      1  0.4914140000000  0.5959590000000  0.4679160000000 1.0
C      1  0.4888680000000  0.4854040000000  0.4501840000000 1.0
C      1  0.5337710000000  0.5427860000000  0.5837850000000 1.0
C      1  0.5630930000000  0.5005100000000  0.5580690000000 1.0
C      1  0.4856130000000  0.5622320000000  0.5976330000000 1.0
C      1  0.5594630000000  0.4675980000000  0.5476880000000 1.0
C      1  0.5381470000000  0.5522560000000  0.5339700000000 1.0
C      1  0.5334880000000  0.4067190000000  0.5582400000000 1.0
C      1  0.5967430000000  0.4991820000000  0.4736220000000 1.0
C      1  0.4851540000000  0.4362220000000  0.4128570000000 1.0
C      1  0.4336980000000  0.4669460000000  0.4306850000000 1.0
C      1  0.4887710000000  0.6003180000000  0.5642670000000 1.0
C      1  0.4493700000000  0.4346960000000  0.4935760000000 1.0
C      1  0.5687610000000  0.5146540000000  0.4714440000000 1.0
C      1  0.4896590000000  0.5049540000000  0.5815120000000 1.0
C      1  0.4880840000000  0.5293060000000  0.3815520000000 1.0
C      1  0.6029690000000  0.4487220000000  0.4720730000000 1.0
C      1  0.5409730000000  0.6025790000000  0.5079190000000 1.0
C      1  0.6037340000000  0.4581250000000  0.4988300000000 1.0
C      1  0.4553650000000  0.3986670000000  0.4550920000000 1.0
C      1  0.4754910000000  0.4520010000000  0.4803610000000 1.0
C      1  0.5008940000000  0.6073180000000  0.5412800000000 1.0
C      1  0.5718990000000  0.5324460000000  0.5911040000000 1.0
C      1  0.5162590000000  0.6032260000000  0.4526500000000 1.0
C      1  0.5022120000000  0.5395960000000  0.4183820000000 1.0
C      1  0.4495710000000  0.4988950000000  0.4605360000000 1.0
C      1  0.5597770000000  0.4721760000000  0.5002390000000 1.0
C      1  0.4531740000000  0.5241930000000  0.5167630000000 1.0
C      1  0.4854060000000  0.5703140000000  0.5673340000000 1.0
C      1  0.5318520000000  0.5276300000000  0.5122520000000 1.0
C      1  0.4259110000000  0.4452820000000  0.5576060000000 1.0
C      1  0.5807530000000  0.4575490000000  0.5231540000000 1.0
C      1  0.3878270000000  0.5740790000000  0.5392860000000 1.0
C      1  0.4847830000000  0.6070260000000  0.5190820000000 1.0
C      1  0.4598010000000  0.5185480000000  0.5904730000000 1.0
C      1  0.4229520000000  0.4934710000000  0.4123260000000 1.0
C      1  0.5831800000000  0.5801600000000  0.4983870000000 1.0
C      1  0.5391580000000  0.4610480000000  0.4212980000000 1.0
C      1  0.5290880000000  0.5276300000000  0.4623960000000 1.0
C      1  0.4001330000000  0.5588380000000  0.4755380000000 1.0
C      1  0.5013990000000  0.5127970000000  0.4343590000000 1.0
C      1  0.5822630000000  0.5433840000000  0.4310050000000 1.0
C      1  0.5235240000000  0.5599280000000  0.4652740000000 1.0
C      1  0.5459820000000  0.5355520000000  0.4875500000000 1.0
C      1  0.4918320000000  0.4584800000000  0.3985080000000 1.0
C      1  0.5488880000000  0.5314230000000  0.5586100000000 1.0
C      1  0.4735740000000  0.4930890000000  0.4801800000000 1.0
C      1  0.4194810000000  0.5665580000000  0.5024490000000 1.0
C      1  0.4544970000000  0.4023250000000  0.4870720000000 1.0
C      1  0.5733440000000  0.5145250000000  0.5143630000000 1.0
C      1  0.5885680000000  0.5503970000000  0.4909480000000 1.0
C      1  0.5898890000000  0.4823960000000  0.5685740000000 1.0
C      1  0.4894810000000  0.5263920000000  0.5480610000000 1.0
C      1  0.5691020000000  0.5620580000000  0.5744220000000 1.0
C      1  0.4742340000000  0.5778770000000  0.5084870000000 1.0
C      1  0.5161950000000  0.4314630000000  0.5680150000000 1.0
C      1  0.4584020000000  0.4455950000000  0.5243740000000 1.0
C      1  0.5659580000000  0.4708420000000  0.4372480000000 1.0
C      1  0.4824140000000  0.4783910000000  0.3793080000000 1.0
C      1  0.4583880000000  0.5223330000000  0.5592920000000 1.0
C      1  0.4623860000000  0.5553370000000  0.5521450000000 1.0
C      1  0.5559580000000  0.4703980000000  0.4690870000000 1.0
C      1  0.4575630000000  0.5990770000000  0.4670080000000 1.0
C      1  0.4880870000000  0.5160510000000  0.4991630000000 1.0
C      1  0.4804760000000  0.4118830000000  0.4436610000000 1.0
C      1  0.4853850000000  0.4687090000000  0.6052230000000 1.0
C      1  0.5954750000000  0.5242490000000  0.5348620000000 1.0
C      1  0.5631760000000  0.5812800000000  0.5231500000000 1.0
C      1  0.4612550000000  0.5762190000000  0.4253110000000 1.0
C      1  0.4368040000000  0.4614400000000  0.4767540000000 1.0
C      1  0.5330310000000  0.4889770000000  0.5471320000000 1.0
C      1  0.5285820000000  0.5950950000000  0.5374460000000 1.0
C      1  0.4442120000000  0.5826930000000  0.4456600000000 1.0
C      1  0.5741020000000  0.4428740000000  0.4277530000000 1.0
C      1  0.3691410000000  0.5155620000000  0.4861880000000 1.0
C      1  0.5067400000000  0.3934240000000  0.5562340000000 1.0
C      1  0.5436260000000  0.4358900000000  0.4031180000000 1.0
C      1  0.5088040000000  0.4582920000000  0.5243240000000 1.0
C      1  0.5720920000000  0.4804020000000  0.5942700000000 1.0
C      1  0.6011580000000  0.5194750000000  0.4466800000000 1.0
C      1  0.4572010000000  0.4324410000000  0.4298100000000 1.0
C      1  0.5552020000000  0.4026580000000  0.5031820000000 1.0
C      1  0.4843350000000  0.4265950000000  0.5176060000000 1.0
C      1  0.5002600000000  0.5371160000000  0.5850110000000 1.0
C      1  0.5988630000000  0.4813000000000  0.5394040000000 1.0
C      1  0.5912560000000  0.4911720000000  0.4349520000000 1.0
C      1  0.4355160000000  0.4999290000000  0.6005500000000 1.0
C      1  0.4300020000000  0.4785150000000  0.5020300000000 1.0
C      1  0.6116180000000  0.5359850000000  0.4718460000000 1.0
C      1  0.5573850000000  0.5386550000000  0.4131310000000 1.0
C      1  0.5839710000000  0.5748790000000  0.4289100000000 1.0
C      1  0.5154450000000  0.4765980000000  0.4063250000000 1.0
C      1  0.5536840000000  0.4621880000000  0.6086760000000 1.0
C      1  0.4034390000000  0.5120560000000  0.4543740000000 1.0
C      1  0.5535260000000  0.4159060000000  0.5406700000000 1.0
C      1  0.4949200000000  0.4899810000000  0.5208840000000 1.0
C      1  0.3984420000000  0.4511010000000  0.5403870000000 1.0
C      1  0.5501780000000  0.6154920000000  0.4831700000000 1.0
C      1  0.5025490000000  0.4947140000000  0.6112670000000 1.0
C      1  0.4517920000000  0.4831050000000  0.5559050000000 1.0
C      1  0.4868780000000  0.4583000000000  0.5667200000000 1.0
C      1  0.5510530000000  0.5761020000000  0.5544920000000 1.0
C      1  0.5054200000000  0.4327740000000  0.4541710000000 1.0
C      1  0.5186470000000  0.4850630000000  0.4970220000000 1.0
C      1  0.5682230000000  0.5480120000000  0.5182010000000 1.0
C      1  0.5249840000000  0.3772590000000  0.4732680000000 1.0
C      1  0.4177810000000  0.4236270000000  0.4995830000000 1.0
C      1  0.4323710000000  0.5587540000000  0.5586790000000 1.0
C      1  0.4958080000000  0.5032100000000  0.3795380000000 1.0
C      1  0.4701940000000  0.5511230000000  0.5234710000000 1.0
C      1  0.5281100000000  0.5001910000000  0.3852860000000 1.0
C      1  0.5741780000000  0.5445510000000  0.4612980000000 1.0
C      1  0.4292600000000  0.5053230000000  0.5546840000000 1.0
C      1  0.5317570000000  0.5564290000000  0.4160860000000 1.0
C      1  0.5201370000000  0.4652380000000  0.5677910000000 1.0
C      1  0.5257250000000  0.5281910000000  0.3684770000000 1.0
C      1  0.4277770000000  0.5280110000000  0.4969210000000 1.0
C      1  0.4099840000000  0.5039850000000  0.5073200000000 1.0
C      1  0.4747080000000  0.3858930000000  0.5050100000000 1.0
C      1  0.5148990000000  0.5104920000000  0.5593920000000 1.0
C      1  0.4743070000000  0.4044210000000  0.5552100000000 1.0
C      1  0.4738890000000  0.4417300000000  0.5934990000000 1.0
C      1  0.4578560000000  0.3948800000000  0.5294740000000 1.0
C      1  0.5780320000000  0.4936930000000  0.4059940000000 1.0
C      1  0.3865800000000  0.5325550000000  0.4705970000000 1.0
C      1  0.5636910000000  0.5876450000000  0.4428130000000 1.0
C      1  0.5961140000000  0.4904260000000  0.5065530000000 1.0
C      1  0.5693030000000  0.5948470000000  0.4733060000000 1.0
C      1  0.4598580000000  0.4678030000000  0.4525740000000 1.0
C      1  0.5025700000000  0.3805780000000  0.4875210000000 1.0
C      1  0.4833070000000  0.4874400000000  0.5530440000000 1.0
C      1  0.5504190000000  0.4405860000000  0.4704450000000 1.0
C      1  0.4315040000000  0.4017820000000  0.5217790000000 1.0
C      1  0.5197630000000  0.4659230000000  0.6076050000000 1.0
C      1  0.4760110000000  0.6139620000000  0.4915650000000 1.0
C      1  0.5019480000000  0.5396540000000  0.5193420000000 1.0
C      1  0.3970670000000  0.4450760000000  0.5092230000000 1.0
C      1  0.4236450000000  0.5610630000000  0.4509610000000 1.0
C      1  0.4648260000000  0.4366290000000  0.5549190000000 1.0
C      1  0.4485580000000  0.5534220000000  0.4900590000000 1.0
C      1  0.4516890000000  0.5254050000000  0.4470330000000 1.0
C      1  0.4102400000000  0.4897570000000  0.4404710000000 1.0
C      1  0.5052070000000  0.4543000000000  0.4915610000000 1.0
C      1  0.4770760000000  0.5385890000000  0.4527890000000 1.0
C      1  0.5318030000000  0.6226460000000  0.4643560000000 1.0
C      1  0.4286030000000  0.4614010000000  0.5286810000000 1.0
C      1  0.5592100000000  0.4184660000000  0.4461590000000 1.0
C      1  0.5222810000000  0.4261730000000  0.4829630000000 1.0
C      1  0.5545010000000  0.5657240000000  0.4748560000000 1.0
C      1  0.4763970000000  0.5451080000000  0.4845220000000 1.0
C      1  0.3814510000000  0.5016550000000  0.5428970000000 1.0
C      1  0.5075960000000  0.4291080000000  0.5376030000000 1.0
C      1  0.5181280000000  0.4832790000000  0.4673740000000 1.0
C      1  0.4316590000000  0.4397880000000  0.4510440000000 1.0
C      1  0.4907090000000  0.4203270000000  0.5804330000000 1.0
C      1  0.3828060000000  0.4935500000000  0.4980280000000 1.0
C      1  0.5128100000000  0.4604720000000  0.4427980000000 1.0
C      1  0.4004790000000  0.5196370000000  0.5643920000000 1.0
C      1  0.5368820000000  0.4008260000000  0.4656120000000 1.0
C      1  0.5784840000000  0.4266060000000  0.5368320000000 1.0
C      1  0.4998060000000  0.5695790000000  0.4876570000000 1.0
C      1  0.5604310000000  0.5083900000000  0.5971270000000 1.0
C      1  0.5220570000000  0.5176470000000  0.6010430000000 1.0
C      1  0.4929880000000  0.4116720000000  0.4923400000000 1.0
C      1  0.4108600000000  0.5586180000000  0.5323010000000 1.0
C      1  0.4275030000000  0.4130340000000  0.4682630000000 1.0
C      1  0.5007100000000  0.5192400000000  0.4677360000000 1.0
C      1  0.4040950000000  0.4821760000000  0.5522940000000 1.0
C      1  0.5131200000000  0.5510260000000  0.3885070000000 1.0
C      1  0.5381910000000  0.4135530000000  0.4198540000000 1.0
C      1  0.4292170000000  0.5374300000000  0.4269490000000 1.0
C      1  0.4252160000000  0.5207670000000  0.4059300000000 1.0
END
