TITL C-2847953-8112-161 0.000424883539465817 125000 -699.871546734537 0 0 129 (C1) n - 1
REM
REM in /home/bkarasulu/work/CARBON/AIRSS/Generating-Clusters/AIREBO/with-SteepDescent/Only-C1/SD-CG-opt/Try1-1.4A-POS3A/HFTN-CG
REM
REM
REM
REM
REM
REM ./C.cell (11c1c37f851c82e70ff6c80c92926a4b)
REM
REM compiler GCC version 9.2.1 20190827 (Red Hat 9.2.1-1)
REM options -cpp -mtune=generic -march=x86-64 -g -O0 -fpre-include=/usr/include/finclude/math-vector-fortran.h
REM seed 238333867 1954424344 1713511350 -914756604 1317781713 166268368 -948243887 916933334 -498716162 1975431151 1844247136 -694900112 1966596732 -1161826107 1803223120 772316871 1899847209 -1147127006 2118564296 819274012 1780135561 -266667962 264462535 733690215 1829661002 -254830371 -1826670613 861766725 1805303216 -1215464342 -1676001118 373309957 -1958859972
REM
CELL 1.54180   50.00000   50.00000   50.00000   90.00000   90.00000   90.00000
LATT -1
SFAC C  
C      1  0.4879840000000  0.4511410000000  0.4901340000000 1.0
C      1  0.4720630000000  0.5594550000000  0.5271400000000 1.0
C      1  0.5004150000000  0.4053210000000  0.5038990000000 1.0
C      1  0.5027130000000  0.5748390000000  0.5786840000000 1.0
C      1  0.4026570000000  0.5207640000000  0.5199290000000 1.0
C      1  0.5397770000000  0.5771440000000  0.4562560000000 1.0
C      1  0.5310260000000  0.4495140000000  0.5106370000000 1.0
C      1  0.4173750000000  0.4543200000000  0.4788650000000 1.0
C      1  0.5805680000000  0.5068560000000  0.5225140000000 1.0
C      1  0.4939250000000  0.4816530000000  0.4650910000000 1.0
C      1  0.4232490000000  0.5413330000000  0.5128970000000 1.0
C      1  0.4397730000000  0.5597390000000  0.4727820000000 1.0
C      1  0.5082640000000  0.5174170000000  0.4734780000000 1.0
C      1  0.5594970000000  0.5722990000000  0.5067070000000 1.0
C      1  0.5538920000000  0.5174560000000  0.5727410000000 1.0
C      1  0.4715080000000  0.5065160000000  0.4624020000000 1.0
C      1  0.5222080000000  0.4281080000000  0.5818910000000 1.0
C      1  0.5321900000000  0.4959640000000  0.4846210000000 1.0
C      1  0.5639160000000  0.4572370000000  0.5697800000000 1.0
C      1  0.5086510000000  0.5358430000000  0.4203990000000 1.0
C      1  0.3985630000000  0.4994700000000  0.5011700000000 1.0
C      1  0.4824610000000  0.6243520000000  0.4626580000000 1.0
C      1  0.4587520000000  0.5777830000000  0.4565810000000 1.0
C      1  0.5031070000000  0.5220770000000  0.5127750000000 1.0
C      1  0.4555770000000  0.5126610000000  0.4079980000000 1.0
C      1  0.5046750000000  0.3867770000000  0.5616870000000 1.0
C      1  0.4935500000000  0.5456500000000  0.4789880000000 1.0
C      1  0.4427680000000  0.5183810000000  0.5856130000000 1.0
C      1  0.5506140000000  0.5259900000000  0.4482450000000 1.0
C      1  0.6004260000000  0.4743650000000  0.4599130000000 1.0
C      1  0.5031150000000  0.5125040000000  0.5937130000000 1.0
C      1  0.4820000000000  0.4637380000000  0.4407500000000 1.0
C      1  0.4522510000000  0.5091250000000  0.5327620000000 1.0
C      1  0.4624670000000  0.4816440000000  0.4114800000000 1.0
C      1  0.4510020000000  0.4319950000000  0.5083650000000 1.0
C      1  0.5483380000000  0.4883940000000  0.5895810000000 1.0
C      1  0.5429520000000  0.4663100000000  0.4324320000000 1.0
C      1  0.3858970000000  0.5000210000000  0.5708080000000 1.0
C      1  0.5642040000000  0.5626710000000  0.4750450000000 1.0
C      1  0.5098040000000  0.5814670000000  0.4471700000000 1.0
C      1  0.4768840000000  0.4280820000000  0.5550940000000 1.0
C      1  0.5171380000000  0.4654830000000  0.4839740000000 1.0
C      1  0.5613540000000  0.4588310000000  0.4649960000000 1.0
C      1  0.4443820000000  0.5009540000000  0.4821330000000 1.0
C      1  0.6029430000000  0.4906120000000  0.4814250000000 1.0
C      1  0.5904740000000  0.5328360000000  0.4355970000000 1.0
C      1  0.4882500000000  0.4410930000000  0.5192100000000 1.0
C      1  0.5621930000000  0.4517700000000  0.5435520000000 1.0
C      1  0.4164100000000  0.4770830000000  0.4986120000000 1.0
C      1  0.5034040000000  0.5489020000000  0.5343180000000 1.0
C      1  0.4967790000000  0.4548100000000  0.5482070000000 1.0
C      1  0.4776140000000  0.5002210000000  0.5489090000000 1.0
C      1  0.4444900000000  0.4872050000000  0.5123280000000 1.0
C      1  0.4727180000000  0.4053600000000  0.5099460000000 1.0
C      1  0.4715080000000  0.4486540000000  0.4125040000000 1.0
C      1  0.4512310000000  0.4909420000000  0.5682860000000 1.0
C      1  0.4671130000000  0.5612570000000  0.4325850000000 1.0
C      1  0.5057190000000  0.4149480000000  0.5583240000000 1.0
C      1  0.4269170000000  0.5372600000000  0.4540080000000 1.0
C      1  0.4580980000000  0.4232710000000  0.4609070000000 1.0
C      1  0.3987690000000  0.5138700000000  0.5459450000000 1.0
C      1  0.4743430000000  0.5369170000000  0.5031480000000 1.0
C      1  0.5740510000000  0.4777370000000  0.4400970000000 1.0
C      1  0.4620170000000  0.4626890000000  0.5180110000000 1.0
C      1  0.5441660000000  0.4075290000000  0.5339530000000 1.0
C      1  0.5360650000000  0.4570810000000  0.5845530000000 1.0
C      1  0.5221020000000  0.5158870000000  0.4433170000000 1.0
C      1  0.4943370000000  0.4959660000000  0.4959540000000 1.0
C      1  0.4979050000000  0.5762730000000  0.4848680000000 1.0
C      1  0.5163520000000  0.4237070000000  0.5272300000000 1.0
C      1  0.4827480000000  0.4115550000000  0.4502070000000 1.0
C      1  0.4365650000000  0.4322900000000  0.4822390000000 1.0
C      1  0.5549320000000  0.5319650000000  0.4780970000000 1.0
C      1  0.5147070000000  0.5694080000000  0.5571370000000 1.0
C      1  0.5084810000000  0.4190530000000  0.4550280000000 1.0
C      1  0.4683170000000  0.4514860000000  0.4675580000000 1.0
C      1  0.5380510000000  0.5382010000000  0.4124410000000 1.0
C      1  0.5734120000000  0.4366290000000  0.4793690000000 1.0
C      1  0.4735750000000  0.5828830000000  0.5043800000000 1.0
C      1  0.4531360000000  0.5402390000000  0.5724910000000 1.0
C      1  0.5773720000000  0.5022880000000  0.5920960000000 1.0
C      1  0.5206370000000  0.4869050000000  0.5423980000000 1.0
C      1  0.5515690000000  0.5556620000000  0.4348890000000 1.0
C      1  0.4765460000000  0.5326830000000  0.4183260000000 1.0
C      1  0.4587530000000  0.5752160000000  0.5541760000000 1.0
C      1  0.5235160000000  0.4205730000000  0.4842880000000 1.0
C      1  0.4808120000000  0.4605820000000  0.5943860000000 1.0
C      1  0.4484040000000  0.4739910000000  0.4641110000000 1.0
C      1  0.4962960000000  0.4793830000000  0.4141610000000 1.0
C      1  0.5467010000000  0.5107240000000  0.4116220000000 1.0
C      1  0.5322710000000  0.5173220000000  0.5486610000000 1.0
C      1  0.4465900000000  0.5149070000000  0.4407240000000 1.0
C      1  0.4788930000000  0.5354080000000  0.4521360000000 1.0
C      1  0.5543150000000  0.5248180000000  0.5268220000000 1.0
C      1  0.4469830000000  0.5328240000000  0.4923310000000 1.0
C      1  0.5351620000000  0.5251370000000  0.5018380000000 1.0
C      1  0.5436790000000  0.4710340000000  0.5283780000000 1.0
C      1  0.4581240000000  0.4673750000000  0.5863420000000 1.0
C      1  0.5231350000000  0.5562570000000  0.5081700000000 1.0
C      1  0.5890890000000  0.5433650000000  0.4618780000000 1.0
C      1  0.4502730000000  0.5380860000000  0.5421490000000 1.0
C      1  0.4332220000000  0.5661760000000  0.5334070000000 1.0
C      1  0.4423940000000  0.5709320000000  0.5029160000000 1.0
C      1  0.5307220000000  0.4445160000000  0.4612210000000 1.0
C      1  0.5188680000000  0.4919660000000  0.5763010000000 1.0
C      1  0.4166510000000  0.5121910000000  0.4669420000000 1.0
C      1  0.6052400000000  0.5017030000000  0.5097230000000 1.0
C      1  0.4991920000000  0.5224610000000  0.5552760000000 1.0
C      1  0.5622830000000  0.4878180000000  0.4795990000000 1.0
C      1  0.5611930000000  0.5565570000000  0.5302350000000 1.0
C      1  0.4722550000000  0.5648520000000  0.5811220000000 1.0
C      1  0.5005900000000  0.4633470000000  0.3875730000000 1.0
C      1  0.5530330000000  0.4260100000000  0.4996950000000 1.0
C      1  0.4198430000000  0.5015340000000  0.5696220000000 1.0
C      1  0.5718120000000  0.5065050000000  0.4307400000000 1.0
C      1  0.5231820000000  0.4896330000000  0.4232230000000 1.0
C      1  0.4348220000000  0.4862680000000  0.4288020000000 1.0
C      1  0.4991130000000  0.5628430000000  0.4314200000000 1.0
C      1  0.5591980000000  0.5478640000000  0.5589510000000 1.0
C      1  0.4914030000000  0.5368250000000  0.5831140000000 1.0
C      1  0.4915260000000  0.4801620000000  0.5261450000000 1.0
C      1  0.5826160000000  0.5151280000000  0.4796770000000 1.0
C      1  0.4213560000000  0.4677230000000  0.4491090000000 1.0
C      1  0.5605400000000  0.4883410000000  0.5115930000000 1.0
C      1  0.4854070000000  0.5970570000000  0.4623220000000 1.0
C      1  0.4597050000000  0.4166990000000  0.5366030000000 1.0
C      1  0.5314220000000  0.5802120000000  0.4890920000000 1.0
C      1  0.5045120000000  0.4633430000000  0.5756540000000 1.0
C      1  0.5649590000000  0.4275600000000  0.5305210000000 1.0
END
