TITL C-2848507-1641-360 0.000343637558046014 125000 -931.848627096306 0 0 177 (C1) n - 1
REM
REM in /home/bkarasulu/work/CARBON/AIRSS/Generating-Clusters/AIREBO/with-SteepDescent/Only-C1/SD-CG-opt/Try1-1.4A-POS3A/HFTN-CG
REM
REM
REM
REM
REM
REM ./C.cell (11c1c37f851c82e70ff6c80c92926a4b)
REM
REM compiler GCC version 9.2.1 20190827 (Red Hat 9.2.1-1)
REM options -cpp -mtune=generic -march=x86-64 -g -O0 -fpre-include=/usr/include/finclude/math-vector-fortran.h
REM seed -108875941 916615036 -1067462727 222856707 2111359761 -1576748939 -552479111 -610369602 1572664682 1745755838 -4914095 -364298092 -224297826 -832796790 119852548 -1285586481 1129107667 -96180733 1686147251 -1698750564 -1936361083 -1073181473 937426927 -1314843617 -231895346 1172143036 348591681 663813453 -248756145 210454882 1349211026 -2026132493 -648805367
REM
CELL 1.54180   50.00000   50.00000   50.00000   90.00000   90.00000   90.00000
LATT -1
SFAC C  
C      1  0.4595170000000  0.5252510000000  0.4270350000000 1.0
C      1  0.4272010000000  0.4447170000000  0.4661640000000 1.0
C      1  0.4497390000000  0.4592270000000  0.4956730000000 1.0
C      1  0.5394340000000  0.5530830000000  0.5274780000000 1.0
C      1  0.4156680000000  0.4207010000000  0.4450310000000 1.0
C      1  0.4478090000000  0.5191730000000  0.5993650000000 1.0
C      1  0.4911980000000  0.5692180000000  0.5563240000000 1.0
C      1  0.5786980000000  0.5390890000000  0.5553710000000 1.0
C      1  0.5598180000000  0.4525020000000  0.5810080000000 1.0
C      1  0.5291900000000  0.4835670000000  0.5992180000000 1.0
C      1  0.4528050000000  0.4707340000000  0.4308770000000 1.0
C      1  0.4858440000000  0.4887120000000  0.3861450000000 1.0
C      1  0.4862620000000  0.4033080000000  0.4724170000000 1.0
C      1  0.5013630000000  0.6018490000000  0.5358010000000 1.0
C      1  0.4403880000000  0.5431700000000  0.4728450000000 1.0
C      1  0.4540190000000  0.5685210000000  0.4232790000000 1.0
C      1  0.4524430000000  0.6084960000000  0.4953270000000 1.0
C      1  0.5059750000000  0.4086280000000  0.4449270000000 1.0
C      1  0.5763500000000  0.4971700000000  0.5683600000000 1.0
C      1  0.5383050000000  0.4676050000000  0.5509530000000 1.0
C      1  0.4199480000000  0.4687950000000  0.5760480000000 1.0
C      1  0.4238660000000  0.5826590000000  0.5300100000000 1.0
C      1  0.4345340000000  0.4875690000000  0.5280880000000 1.0
C      1  0.5381690000000  0.5809490000000  0.4736430000000 1.0
C      1  0.4060250000000  0.4965450000000  0.5007830000000 1.0
C      1  0.4018870000000  0.4705220000000  0.4825600000000 1.0
C      1  0.4101460000000  0.5190650000000  0.5407620000000 1.0
C      1  0.4569280000000  0.4517640000000  0.5396260000000 1.0
C      1  0.4364900000000  0.4107490000000  0.4863750000000 1.0
C      1  0.4707780000000  0.5991320000000  0.5354860000000 1.0
C      1  0.5334870000000  0.4143890000000  0.4885330000000 1.0
C      1  0.4576390000000  0.4594810000000  0.4625970000000 1.0
C      1  0.5469530000000  0.5784610000000  0.3976450000000 1.0
C      1  0.4950030000000  0.4021450000000  0.5586900000000 1.0
C      1  0.4251510000000  0.4158970000000  0.5158090000000 1.0
C      1  0.4530790000000  0.5811880000000  0.5126570000000 1.0
C      1  0.4741870000000  0.3993160000000  0.5344190000000 1.0
C      1  0.4319480000000  0.5678460000000  0.4895830000000 1.0
C      1  0.4753200000000  0.5132340000000  0.4546440000000 1.0
C      1  0.4696980000000  0.5033130000000  0.5175470000000 1.0
C      1  0.5427510000000  0.4347850000000  0.5586620000000 1.0
C      1  0.4966160000000  0.5127970000000  0.5902420000000 1.0
C      1  0.5490160000000  0.4968000000000  0.5195290000000 1.0
C      1  0.4772910000000  0.5365090000000  0.5982990000000 1.0
C      1  0.4376040000000  0.4067390000000  0.4596230000000 1.0
C      1  0.5225660000000  0.5055790000000  0.4023940000000 1.0
C      1  0.5018080000000  0.5030270000000  0.4197470000000 1.0
C      1  0.4838310000000  0.3926140000000  0.5001400000000 1.0
C      1  0.5049360000000  0.5387250000000  0.3777690000000 1.0
C      1  0.5756270000000  0.4745600000000  0.5857410000000 1.0
C      1  0.5797960000000  0.5472500000000  0.4642550000000 1.0
C      1  0.5038540000000  0.6078840000000  0.4737510000000 1.0
C      1  0.4201660000000  0.5541630000000  0.5247610000000 1.0
C      1  0.4981940000000  0.5796130000000  0.4815960000000 1.0
C      1  0.4138300000000  0.4951320000000  0.4621270000000 1.0
C      1  0.5340180000000  0.5476230000000  0.5802340000000 1.0
C      1  0.4391000000000  0.4915890000000  0.4946350000000 1.0
C      1  0.4149420000000  0.4436030000000  0.4979410000000 1.0
C      1  0.4659940000000  0.5257950000000  0.5510240000000 1.0
C      1  0.5691720000000  0.5731140000000  0.4128150000000 1.0
C      1  0.5709570000000  0.5269460000000  0.4885990000000 1.0
C      1  0.6104590000000  0.4910130000000  0.4958170000000 1.0
C      1  0.4721070000000  0.5596280000000  0.5308710000000 1.0
C      1  0.5399330000000  0.4519060000000  0.4245470000000 1.0
C      1  0.4675380000000  0.4890500000000  0.4761540000000 1.0
C      1  0.5509790000000  0.4123310000000  0.5367350000000 1.0
C      1  0.5118480000000  0.6076790000000  0.4478140000000 1.0
C      1  0.5008350000000  0.5482630000000  0.5184490000000 1.0
C      1  0.4588690000000  0.4282390000000  0.4981980000000 1.0
C      1  0.5961090000000  0.4454080000000  0.4766780000000 1.0
C      1  0.5373540000000  0.4830220000000  0.4633940000000 1.0
C      1  0.4738330000000  0.5644670000000  0.4006380000000 1.0
C      1  0.6194560000000  0.5120420000000  0.4750560000000 1.0
C      1  0.4768310000000  0.5384710000000  0.4882780000000 1.0
C      1  0.4592300000000  0.4666840000000  0.5825990000000 1.0
C      1  0.5988700000000  0.5222810000000  0.4604360000000 1.0
C      1  0.5538450000000  0.4708140000000  0.4100660000000 1.0
C      1  0.5000040000000  0.5146660000000  0.5129810000000 1.0
C      1  0.5730200000000  0.4888540000000  0.5422650000000 1.0
C      1  0.5173950000000  0.4715380000000  0.4955400000000 1.0
C      1  0.5754900000000  0.5649550000000  0.5454000000000 1.0
C      1  0.4667440000000  0.4396290000000  0.4292600000000 1.0
C      1  0.5035510000000  0.4525220000000  0.5389190000000 1.0
C      1  0.4020410000000  0.5202260000000  0.5145980000000 1.0
C      1  0.5216910000000  0.4545540000000  0.4533290000000 1.0
C      1  0.5857480000000  0.4529000000000  0.5142880000000 1.0
C      1  0.4806910000000  0.4369900000000  0.5227710000000 1.0
C      1  0.5096850000000  0.4656890000000  0.5692220000000 1.0
C      1  0.5221180000000  0.5732290000000  0.4099580000000 1.0
C      1  0.4831830000000  0.4827010000000  0.5645460000000 1.0
C      1  0.4507560000000  0.5233080000000  0.4984440000000 1.0
C      1  0.4465110000000  0.5393500000000  0.5266780000000 1.0
C      1  0.5482210000000  0.4252340000000  0.4229310000000 1.0
C      1  0.5686390000000  0.5600690000000  0.4353870000000 1.0
C      1  0.4100280000000  0.4403790000000  0.5314350000000 1.0
C      1  0.5227530000000  0.5978130000000  0.5167290000000 1.0
C      1  0.4112380000000  0.5451190000000  0.4170990000000 1.0
C      1  0.5844760000000  0.4259080000000  0.4980250000000 1.0
C      1  0.5029480000000  0.4113490000000  0.5208180000000 1.0
C      1  0.5462840000000  0.5518410000000  0.4607290000000 1.0
C      1  0.5359160000000  0.3859330000000  0.4710900000000 1.0
C      1  0.4265890000000  0.5679460000000  0.4173640000000 1.0
C      1  0.5662950000000  0.5679920000000  0.5162090000000 1.0
C      1  0.4850510000000  0.4666110000000  0.6010320000000 1.0
C      1  0.5014370000000  0.5614630000000  0.3951280000000 1.0
C      1  0.4494020000000  0.4186050000000  0.5395330000000 1.0
C      1  0.4417300000000  0.5142230000000  0.4606040000000 1.0
C      1  0.5508830000000  0.6021030000000  0.5300170000000 1.0
C      1  0.4111880000000  0.4711910000000  0.5312460000000 1.0
C      1  0.5462860000000  0.4973440000000  0.4146070000000 1.0
C      1  0.5165450000000  0.5462990000000  0.4452090000000 1.0
C      1  0.4625480000000  0.5512530000000  0.4487470000000 1.0
C      1  0.4734720000000  0.4243900000000  0.5891880000000 1.0
C      1  0.5619820000000  0.5285410000000  0.5206580000000 1.0
C      1  0.4863590000000  0.4457960000000  0.4885870000000 1.0
C      1  0.5025470000000  0.4880220000000  0.6040150000000 1.0
C      1  0.5467800000000  0.4392930000000  0.4711830000000 1.0
C      1  0.4880250000000  0.4158740000000  0.4213470000000 1.0
C      1  0.5178620000000  0.6191320000000  0.4941820000000 1.0
C      1  0.5610160000000  0.4574250000000  0.4913850000000 1.0
C      1  0.5445600000000  0.5792580000000  0.5774740000000 1.0
C      1  0.5923050000000  0.5230230000000  0.5350140000000 1.0
C      1  0.5089670000000  0.5134320000000  0.4495730000000 1.0
C      1  0.5111780000000  0.5407020000000  0.5995350000000 1.0
C      1  0.4043790000000  0.5276200000000  0.4655580000000 1.0
C      1  0.5372360000000  0.5055630000000  0.4888600000000 1.0
C      1  0.5203710000000  0.4314700000000  0.6118570000000 1.0
C      1  0.4858600000000  0.6005110000000  0.5659310000000 1.0
C      1  0.4286410000000  0.4473780000000  0.5579800000000 1.0
C      1  0.4374290000000  0.4995960000000  0.4302130000000 1.0
C      1  0.4887170000000  0.4593160000000  0.4461610000000 1.0
C      1  0.5717190000000  0.4642500000000  0.3910060000000 1.0
C      1  0.5028750000000  0.4851150000000  0.5298900000000 1.0
C      1  0.5944380000000  0.4735790000000  0.5291010000000 1.0
C      1  0.4957590000000  0.5111420000000  0.5587250000000 1.0
C      1  0.4644530000000  0.4807570000000  0.5403900000000 1.0
C      1  0.5080210000000  0.4294360000000  0.4717510000000 1.0
C      1  0.4911790000000  0.5602490000000  0.4559120000000 1.0
C      1  0.5301520000000  0.4315410000000  0.5179390000000 1.0
C      1  0.4833120000000  0.4779190000000  0.4182160000000 1.0
C      1  0.5378660000000  0.4151980000000  0.4488720000000 1.0
C      1  0.6174630000000  0.4625900000000  0.4864710000000 1.0
C      1  0.5809100000000  0.4758830000000  0.4735260000000 1.0
C      1  0.4070790000000  0.5451400000000  0.4946700000000 1.0
C      1  0.5037740000000  0.5254670000000  0.4809580000000 1.0
C      1  0.5554300000000  0.5232780000000  0.5744810000000 1.0
C      1  0.5253020000000  0.3903140000000  0.5355310000000 1.0
C      1  0.6071660000000  0.5020260000000  0.5262580000000 1.0
C      1  0.4846970000000  0.4768320000000  0.5023770000000 1.0
C      1  0.4399680000000  0.4946880000000  0.5808550000000 1.0
C      1  0.5242910000000  0.5792500000000  0.4419000000000 1.0
C      1  0.5369660000000  0.4948560000000  0.5712660000000 1.0
C      1  0.5230930000000  0.5674780000000  0.5013380000000 1.0
C      1  0.5065520000000  0.4870600000000  0.4709050000000 1.0
C      1  0.4742350000000  0.5650380000000  0.4914940000000 1.0
C      1  0.5249000000000  0.5044320000000  0.5423110000000 1.0
C      1  0.4131950000000  0.5232990000000  0.4344490000000 1.0
C      1  0.5707000000000  0.5048130000000  0.4619750000000 1.0
C      1  0.4409000000000  0.5479500000000  0.5885360000000 1.0
C      1  0.5624420000000  0.4111430000000  0.5060600000000 1.0
C      1  0.5440980000000  0.5050530000000  0.4425740000000 1.0
C      1  0.5575210000000  0.5865130000000  0.5531490000000 1.0
C      1  0.5771850000000  0.4962850000000  0.5004710000000 1.0
C      1  0.5108110000000  0.4268080000000  0.5609320000000 1.0
C      1  0.4603820000000  0.5374520000000  0.3990560000000 1.0
C      1  0.5576050000000  0.5903390000000  0.4988280000000 1.0
C      1  0.4067870000000  0.4654870000000  0.4495080000000 1.0
C      1  0.4845920000000  0.6131730000000  0.5895000000000 1.0
C      1  0.4922340000000  0.5141000000000  0.3777920000000 1.0
C      1  0.4638820000000  0.4122340000000  0.4492340000000 1.0
C      1  0.4391600000000  0.5089970000000  0.5528450000000 1.0
C      1  0.4690760000000  0.5506860000000  0.5697010000000 1.0
C      1  0.5398490000000  0.4641260000000  0.5171390000000 1.0
C      1  0.5030300000000  0.4404860000000  0.5910740000000 1.0
C      1  0.4530430000000  0.4310220000000  0.5713770000000 1.0
C      1  0.5326150000000  0.5379770000000  0.4873460000000 1.0
C      1  0.5210930000000  0.5585280000000  0.5527570000000 1.0
END
