TITL C-2847952-8118-686 0.000596292486211031 125000 -963.243145302709 0 0 176 (C1) n - 1
REM
REM in /home/bkarasulu/work/CARBON/AIRSS/Generating-Clusters/AIREBO/with-SteepDescent/Only-C1/SD-CG-opt/Try1-1.4A-POS3A/HFTN-CG
REM
REM
REM
REM
REM
REM ./C.cell (11c1c37f851c82e70ff6c80c92926a4b)
REM
REM compiler GCC version 9.2.1 20190827 (Red Hat 9.2.1-1)
REM options -cpp -mtune=generic -march=x86-64 -g -O0 -fpre-include=/usr/include/finclude/math-vector-fortran.h
REM seed -1867736243 -1223086589 -336219381 -782017925 -1650426724 1469081407 -310367778 -1321054414 -471950334 -1663763358 -1516365009 37747539 229819935 -1974435543 -1437619505 -1593924953 1599060159 -1128281950 712075239 188107008 -995505003 -970978824 -1576903564 407781773 -1021202040 1022272020 245460473 1008360970 -578484615 -119286 -1048564108 2128400825 706503810
REM
CELL 1.54180   50.00000   50.00000   50.00000   90.00000   90.00000   90.00000
LATT -1
SFAC C  
C      1  0.4729070000000  0.5769720000000  0.5715980000000 1.0
C      1  0.4720250000000  0.4967340000000  0.4447880000000 1.0
C      1  0.5082480000000  0.4050830000000  0.4936660000000 1.0
C      1  0.5000350000000  0.6162680000000  0.5195690000000 1.0
C      1  0.5739580000000  0.5439430000000  0.4246410000000 1.0
C      1  0.4891300000000  0.4330270000000  0.4905310000000 1.0
C      1  0.5927020000000  0.5514970000000  0.5242480000000 1.0
C      1  0.4052280000000  0.4735160000000  0.4523010000000 1.0
C      1  0.4904790000000  0.4718720000000  0.3881740000000 1.0
C      1  0.4939570000000  0.4663440000000  0.5658920000000 1.0
C      1  0.5122970000000  0.5065520000000  0.5011030000000 1.0
C      1  0.4146460000000  0.5114880000000  0.5258130000000 1.0
C      1  0.5571230000000  0.4552860000000  0.5786520000000 1.0
C      1  0.3864130000000  0.4822310000000  0.4859100000000 1.0
C      1  0.4353790000000  0.5920980000000  0.4879000000000 1.0
C      1  0.5469470000000  0.5580350000000  0.4692990000000 1.0
C      1  0.5894290000000  0.5202700000000  0.5102490000000 1.0
C      1  0.4466820000000  0.5064430000000  0.4051690000000 1.0
C      1  0.4734380000000  0.6062010000000  0.5297090000000 1.0
C      1  0.5719220000000  0.5078570000000  0.4641110000000 1.0
C      1  0.4671240000000  0.4196090000000  0.4468770000000 1.0
C      1  0.5483800000000  0.5678670000000  0.5274670000000 1.0
C      1  0.5188430000000  0.5551320000000  0.5164450000000 1.0
C      1  0.4395680000000  0.4982930000000  0.4889060000000 1.0
C      1  0.5647560000000  0.5097690000000  0.4955700000000 1.0
C      1  0.4277290000000  0.4334170000000  0.4744720000000 1.0
C      1  0.5831280000000  0.5808660000000  0.5098070000000 1.0
C      1  0.5185070000000  0.5395350000000  0.4233440000000 1.0
C      1  0.4274890000000  0.4429710000000  0.4255750000000 1.0
C      1  0.5121040000000  0.5429610000000  0.5843460000000 1.0
C      1  0.4362110000000  0.4157320000000  0.4950950000000 1.0
C      1  0.5153460000000  0.5165730000000  0.4628340000000 1.0
C      1  0.5628600000000  0.4379100000000  0.4407280000000 1.0
C      1  0.5598510000000  0.5440850000000  0.5488330000000 1.0
C      1  0.4468410000000  0.4921700000000  0.5696710000000 1.0
C      1  0.5268790000000  0.4609720000000  0.3998820000000 1.0
C      1  0.5008580000000  0.4907690000000  0.4526770000000 1.0
C      1  0.4715760000000  0.4239720000000  0.5724500000000 1.0
C      1  0.5790430000000  0.4373680000000  0.4920800000000 1.0
C      1  0.5010990000000  0.4281410000000  0.5446410000000 1.0
C      1  0.3879780000000  0.4991500000000  0.4595340000000 1.0
C      1  0.4198430000000  0.4636890000000  0.5326980000000 1.0
C      1  0.5170470000000  0.4665340000000  0.4481330000000 1.0
C      1  0.4978450000000  0.5623540000000  0.4048480000000 1.0
C      1  0.4630500000000  0.5877840000000  0.5478150000000 1.0
C      1  0.5191860000000  0.4414960000000  0.4657410000000 1.0
C      1  0.4500640000000  0.4203070000000  0.5486380000000 1.0
C      1  0.4832100000000  0.4546900000000  0.5369290000000 1.0
C      1  0.4382910000000  0.5766750000000  0.4641550000000 1.0
C      1  0.5035690000000  0.5677530000000  0.5682600000000 1.0
C      1  0.4897090000000  0.4974040000000  0.5674420000000 1.0
C      1  0.3873100000000  0.4674290000000  0.5408940000000 1.0
C      1  0.5256010000000  0.5800190000000  0.4545590000000 1.0
C      1  0.4096040000000  0.4571520000000  0.4803520000000 1.0
C      1  0.5522190000000  0.4844570000000  0.5377850000000 1.0
C      1  0.5378580000000  0.6013400000000  0.4780490000000 1.0
C      1  0.5857990000000  0.4955800000000  0.5563880000000 1.0
C      1  0.4682120000000  0.5626270000000  0.4610250000000 1.0
C      1  0.5330640000000  0.5280600000000  0.5108140000000 1.0
C      1  0.5681740000000  0.4833350000000  0.5830550000000 1.0
C      1  0.5443400000000  0.5311210000000  0.3805710000000 1.0
C      1  0.4346630000000  0.4833510000000  0.4587880000000 1.0
C      1  0.5576850000000  0.4824110000000  0.5063070000000 1.0
C      1  0.5577840000000  0.4117130000000  0.4931620000000 1.0
C      1  0.5673640000000  0.5845470000000  0.4799010000000 1.0
C      1  0.4490840000000  0.4452220000000  0.4507720000000 1.0
C      1  0.4710060000000  0.4522250000000  0.5798710000000 1.0
C      1  0.4219080000000  0.4774770000000  0.5025090000000 1.0
C      1  0.5846780000000  0.4642680000000  0.5036680000000 1.0
C      1  0.4617460000000  0.5435590000000  0.6084530000000 1.0
C      1  0.4970910000000  0.5321190000000  0.5291970000000 1.0
C      1  0.4732830000000  0.5496830000000  0.5423670000000 1.0
C      1  0.4670330000000  0.5162010000000  0.3944500000000 1.0
C      1  0.4284860000000  0.5311770000000  0.4487400000000 1.0
C      1  0.4703540000000  0.5224510000000  0.5592970000000 1.0
C      1  0.5796560000000  0.5189130000000  0.4142320000000 1.0
C      1  0.4612770000000  0.5146920000000  0.5904910000000 1.0
C      1  0.6118850000000  0.5068920000000  0.4937670000000 1.0
C      1  0.3794010000000  0.5380470000000  0.4315710000000 1.0
C      1  0.5281130000000  0.4320970000000  0.5257520000000 1.0
C      1  0.5824830000000  0.4684650000000  0.5373770000000 1.0
C      1  0.4169710000000  0.5581360000000  0.4625800000000 1.0
C      1  0.5546940000000  0.5071590000000  0.5629840000000 1.0
C      1  0.5696810000000  0.4143640000000  0.5474430000000 1.0
C      1  0.5998610000000  0.4770790000000  0.4582650000000 1.0
C      1  0.5304740000000  0.4168710000000  0.4507590000000 1.0
C      1  0.5443390000000  0.5373040000000  0.5748960000000 1.0
C      1  0.5473310000000  0.5427270000000  0.6083270000000 1.0
C      1  0.5806570000000  0.4445360000000  0.5555380000000 1.0
C      1  0.4759990000000  0.4104940000000  0.4709990000000 1.0
C      1  0.5684300000000  0.4236280000000  0.5794970000000 1.0
C      1  0.4958260000000  0.5853930000000  0.5040090000000 1.0
C      1  0.5246650000000  0.5458930000000  0.3919370000000 1.0
C      1  0.5036260000000  0.4224860000000  0.5780990000000 1.0
C      1  0.4633030000000  0.5952170000000  0.5022110000000 1.0
C      1  0.3935000000000  0.4891850000000  0.5170940000000 1.0
C      1  0.4728520000000  0.4905620000000  0.4950230000000 1.0
C      1  0.4703400000000  0.5129860000000  0.5204880000000 1.0
C      1  0.5492460000000  0.4104910000000  0.5223500000000 1.0
C      1  0.4816310000000  0.3981560000000  0.5085150000000 1.0
C      1  0.5388620000000  0.4551250000000  0.5433920000000 1.0
C      1  0.5859970000000  0.4990600000000  0.4363400000000 1.0
C      1  0.3959420000000  0.5219830000000  0.4464700000000 1.0
C      1  0.4650260000000  0.4497350000000  0.5018160000000 1.0
C      1  0.5389680000000  0.5121620000000  0.4429050000000 1.0
C      1  0.5396550000000  0.4958740000000  0.4144390000000 1.0
C      1  0.4190840000000  0.5718560000000  0.5289490000000 1.0
C      1  0.4422880000000  0.5393310000000  0.5654140000000 1.0
C      1  0.5404540000000  0.5141700000000  0.6071150000000 1.0
C      1  0.4715490000000  0.4644760000000  0.4340100000000 1.0
C      1  0.4451150000000  0.4301140000000  0.5185990000000 1.0
C      1  0.5466150000000  0.4739510000000  0.4371190000000 1.0
C      1  0.5170580000000  0.5093440000000  0.5829140000000 1.0
C      1  0.5776880000000  0.4655810000000  0.4364580000000 1.0
C      1  0.5614020000000  0.3835920000000  0.5377200000000 1.0
C      1  0.4589990000000  0.4664330000000  0.4754480000000 1.0
C      1  0.5208650000000  0.4428860000000  0.4977450000000 1.0
C      1  0.5069050000000  0.6112010000000  0.4701680000000 1.0
C      1  0.4412430000000  0.5037260000000  0.4356340000000 1.0
C      1  0.5102420000000  0.4492180000000  0.5980790000000 1.0
C      1  0.3984590000000  0.5363600000000  0.5084830000000 1.0
C      1  0.4875410000000  0.5886910000000  0.4711870000000 1.0
C      1  0.5263770000000  0.4762960000000  0.4945280000000 1.0
C      1  0.4132450000000  0.5810220000000  0.5026860000000 1.0
C      1  0.5118680000000  0.4914790000000  0.4019190000000 1.0
C      1  0.5845120000000  0.5240120000000  0.5423330000000 1.0
C      1  0.5520850000000  0.5958030000000  0.5084340000000 1.0
C      1  0.4028860000000  0.5568440000000  0.4879760000000 1.0
C      1  0.5395670000000  0.5266660000000  0.4801560000000 1.0
C      1  0.4968540000000  0.4716970000000  0.5108310000000 1.0
C      1  0.5158830000000  0.5791130000000  0.4281820000000 1.0
C      1  0.4196400000000  0.5305400000000  0.5535360000000 1.0
C      1  0.4977600000000  0.5196840000000  0.4050990000000 1.0
C      1  0.4548220000000  0.5585250000000  0.5840400000000 1.0
C      1  0.5664000000000  0.5520520000000  0.5033330000000 1.0
C      1  0.4331910000000  0.4477550000000  0.5557830000000 1.0
C      1  0.4696100000000  0.5292790000000  0.4544320000000 1.0
C      1  0.5702450000000  0.4243260000000  0.4638450000000 1.0
C      1  0.4442160000000  0.4994750000000  0.5375970000000 1.0
C      1  0.4721620000000  0.4617870000000  0.4020810000000 1.0
C      1  0.4832750000000  0.4220320000000  0.4254090000000 1.0
C      1  0.5461500000000  0.5435390000000  0.4387040000000 1.0
C      1  0.5311650000000  0.4054300000000  0.4782030000000 1.0
C      1  0.4571160000000  0.3961900000000  0.4892220000000 1.0
C      1  0.5759170000000  0.5405530000000  0.4728330000000 1.0
C      1  0.4883060000000  0.5168530000000  0.4799770000000 1.0
C      1  0.5331410000000  0.4385830000000  0.4247190000000 1.0
C      1  0.4452440000000  0.5274260000000  0.4780900000000 1.0
C      1  0.5074240000000  0.4701010000000  0.6149110000000 1.0
C      1  0.4474720000000  0.5641640000000  0.5305570000000 1.0
C      1  0.4464880000000  0.4642510000000  0.5742430000000 1.0
C      1  0.5230030000000  0.4947920000000  0.5302120000000 1.0
C      1  0.5437670000000  0.4890440000000  0.4674530000000 1.0
C      1  0.6059050000000  0.5284010000000  0.4747210000000 1.0
C      1  0.4057380000000  0.4557010000000  0.4280370000000 1.0
C      1  0.5585240000000  0.5112810000000  0.3967710000000 1.0
C      1  0.4972570000000  0.5715760000000  0.5350520000000 1.0
C      1  0.5001270000000  0.4952980000000  0.6088540000000 1.0
C      1  0.5005400000000  0.4481210000000  0.4266940000000 1.0
C      1  0.5596960000000  0.4953480000000  0.6098440000000 1.0
C      1  0.4639510000000  0.5646650000000  0.4923460000000 1.0
C      1  0.5242300000000  0.4557550000000  0.5700380000000 1.0
C      1  0.6083310000000  0.4772430000000  0.4873360000000 1.0
C      1  0.4774920000000  0.4112960000000  0.5326260000000 1.0
C      1  0.4532430000000  0.4680360000000  0.5279380000000 1.0
C      1  0.4785800000000  0.5407580000000  0.4236860000000 1.0
C      1  0.6324180000000  0.4628070000000  0.4916480000000 1.0
C      1  0.4038140000000  0.5485640000000  0.5358330000000 1.0
C      1  0.4914380000000  0.4933070000000  0.5365190000000 1.0
C      1  0.4552710000000  0.5396980000000  0.5081390000000 1.0
C      1  0.4898070000000  0.5275110000000  0.6052340000000 1.0
C      1  0.5187410000000  0.5189360000000  0.5503290000000 1.0
C      1  0.5190410000000  0.5674500000000  0.4863410000000 1.0
C      1  0.5153650000000  0.3985120000000  0.5861290000000 1.0
C      1  0.4480880000000  0.5474020000000  0.4261810000000 1.0
C      1  0.5311420000000  0.5811930000000  0.5535780000000 1.0
END
