TITL C-2848509-3138-44 0.00549360750851595 125000 -432.178253647754 0 0 80 (C1) n - 1
REM
REM in /home/bkarasulu/work/CARBON/AIRSS/Generating-Clusters/AIREBO/with-SteepDescent/Only-C1/SD-CG-opt/Try1-1.4A-POS3A/HFTN-CG
REM
REM
REM
REM
REM
REM ./C.cell (11c1c37f851c82e70ff6c80c92926a4b)
REM
REM compiler GCC version 9.2.1 20190827 (Red Hat 9.2.1-1)
REM options -cpp -mtune=generic -march=x86-64 -g -O0 -fpre-include=/usr/include/finclude/math-vector-fortran.h
REM seed -1466870234 1748953450 1877495712 568237917 -401067413 1338772523 883334040 -639757751 -419628707 1341270354 -341711412 -689233934 1855289549 -1570485245 -1619123504 -1499869386 -1514286948 -970340212 -1559727984 -1677432811 1363045926 1002707764 1898553675 -364957922 -1650159763 -715530713 2133135687 489658004 1381043006 809438884 -931916185 547646934 -900023725
REM
CELL 1.54180   50.00000   50.00000   50.00000   90.00000   90.00000   90.00000
LATT -1
SFAC C  
C      1  0.4754270000000  0.4517460000000  0.4251200000000 1.0
C      1  0.5085220000000  0.5300120000000  0.5063710000000 1.0
C      1  0.5076110000000  0.4956630000000  0.5961120000000 1.0
C      1  0.5359930000000  0.5656800000000  0.4953180000000 1.0
C      1  0.5323140000000  0.4514700000000  0.4817170000000 1.0
C      1  0.4845210000000  0.4623400000000  0.5127930000000 1.0
C      1  0.5019370000000  0.4779240000000  0.5676660000000 1.0
C      1  0.4867310000000  0.5720720000000  0.4925710000000 1.0
C      1  0.4435060000000  0.5510670000000  0.4742780000000 1.0
C      1  0.5360520000000  0.5153060000000  0.4621650000000 1.0
C      1  0.5822700000000  0.5312830000000  0.4559520000000 1.0
C      1  0.4599160000000  0.4491230000000  0.4501970000000 1.0
C      1  0.5315120000000  0.4218360000000  0.4646990000000 1.0
C      1  0.6047880000000  0.5292280000000  0.4427040000000 1.0
C      1  0.4590340000000  0.5158840000000  0.5273820000000 1.0
C      1  0.5809410000000  0.4686410000000  0.4954520000000 1.0
C      1  0.4501630000000  0.4725210000000  0.5733220000000 1.0
C      1  0.4837360000000  0.4927100000000  0.5243070000000 1.0
C      1  0.4562030000000  0.4266420000000  0.5341470000000 1.0
C      1  0.4050530000000  0.5070420000000  0.4689360000000 1.0
C      1  0.4365510000000  0.4750560000000  0.4858730000000 1.0
C      1  0.5129410000000  0.5232170000000  0.4405240000000 1.0
C      1  0.5055630000000  0.4430430000000  0.5009490000000 1.0
C      1  0.4923010000000  0.5415620000000  0.4521000000000 1.0
C      1  0.4380000000000  0.4972870000000  0.5097460000000 1.0
C      1  0.4331880000000  0.4348620000000  0.5198170000000 1.0
C      1  0.4832530000000  0.5397650000000  0.5269520000000 1.0
C      1  0.5005330000000  0.4291220000000  0.4724440000000 1.0
C      1  0.5211420000000  0.5740730000000  0.4581100000000 1.0
C      1  0.5594460000000  0.5313870000000  0.4714480000000 1.0
C      1  0.4673900000000  0.4721390000000  0.4077210000000 1.0
C      1  0.5332650000000  0.4817860000000  0.5806670000000 1.0
C      1  0.4261790000000  0.5434000000000  0.5021220000000 1.0
C      1  0.4288350000000  0.4652590000000  0.5175080000000 1.0
C      1  0.5629060000000  0.5479530000000  0.5448630000000 1.0
C      1  0.5091000000000  0.5517550000000  0.4798620000000 1.0
C      1  0.5263820000000  0.5880350000000  0.5102020000000 1.0
C      1  0.5540060000000  0.4330510000000  0.5140820000000 1.0
C      1  0.4543080000000  0.4946980000000  0.5512320000000 1.0
C      1  0.4743620000000  0.4478860000000  0.5385080000000 1.0
C      1  0.5775250000000  0.4884730000000  0.5136750000000 1.0
C      1  0.5469460000000  0.4040280000000  0.4550810000000 1.0
C      1  0.5211180000000  0.4983490000000  0.4835170000000 1.0
C      1  0.5311480000000  0.4459220000000  0.5212080000000 1.0
C      1  0.4980760000000  0.5859830000000  0.5145380000000 1.0
C      1  0.5268950000000  0.5053000000000  0.5219170000000 1.0
C      1  0.4566240000000  0.4950270000000  0.4190140000000 1.0
C      1  0.5648880000000  0.4466610000000  0.4902670000000 1.0
C      1  0.5576740000000  0.5488820000000  0.4941210000000 1.0
C      1  0.4770450000000  0.4616360000000  0.5629830000000 1.0
C      1  0.5289790000000  0.4859800000000  0.4140500000000 1.0
C      1  0.4986390000000  0.4439910000000  0.4419110000000 1.0
C      1  0.4887710000000  0.5667190000000  0.4343380000000 1.0
C      1  0.5545420000000  0.5232380000000  0.5592610000000 1.0
C      1  0.5714780000000  0.5432910000000  0.5179110000000 1.0
C      1  0.5275700000000  0.4760460000000  0.5058410000000 1.0
C      1  0.4627800000000  0.5196480000000  0.4878480000000 1.0
C      1  0.4599610000000  0.4016640000000  0.5433390000000 1.0
C      1  0.5860180000000  0.5175640000000  0.5171640000000 1.0
C      1  0.5180100000000  0.5113830000000  0.4131690000000 1.0
C      1  0.4895590000000  0.5043240000000  0.4946740000000 1.0
C      1  0.4909380000000  0.5758100000000  0.5648740000000 1.0
C      1  0.4943260000000  0.5279410000000  0.5568690000000 1.0
C      1  0.4579960000000  0.4759460000000  0.4652170000000 1.0
C      1  0.4578060000000  0.5011260000000  0.4454050000000 1.0
C      1  0.4854610000000  0.4744860000000  0.4800100000000 1.0
C      1  0.5105500000000  0.4666540000000  0.4611710000000 1.0
C      1  0.4652180000000  0.5511400000000  0.5004500000000 1.0
C      1  0.5563600000000  0.5087730000000  0.5313020000000 1.0
C      1  0.5118800000000  0.5259870000000  0.5856130000000 1.0
C      1  0.5044670000000  0.5002020000000  0.5453140000000 1.0
C      1  0.4291730000000  0.5153930000000  0.4845480000000 1.0
C      1  0.5396380000000  0.5118590000000  0.5787630000000 1.0
C      1  0.5237700000000  0.4883920000000  0.4453850000000 1.0
C      1  0.4958730000000  0.5531210000000  0.5779490000000 1.0
C      1  0.4347660000000  0.5393170000000  0.5286490000000 1.0
C      1  0.4691400000000  0.4279640000000  0.4649610000000 1.0
C      1  0.4291980000000  0.4765200000000  0.5470020000000 1.0
C      1  0.4890290000000  0.5720980000000  0.5372670000000 1.0
C      1  0.4642850000000  0.5296360000000  0.4574860000000 1.0
END
