TITL C-2848505-4874-40 8.82981068184527e-05 125000 -250.582184748737 0 0 45 (C1) n - 1
REM
REM in /home/bkarasulu/work/CARBON/AIRSS/Generating-Clusters/AIREBO/with-SteepDescent/Only-C1/SD-CG-opt/Try1-1.4A-POS3A/HFTN-CG
REM
REM
REM
REM
REM
REM ./C.cell (11c1c37f851c82e70ff6c80c92926a4b)
REM
REM compiler GCC version 9.2.1 20190827 (Red Hat 9.2.1-1)
REM options -cpp -mtune=generic -march=x86-64 -g -O0 -fpre-include=/usr/include/finclude/math-vector-fortran.h
REM seed 1023881146 1145485874 1268585797 676968364 -1388402413 604326420 1357880616 -1039973180 -520860478 821437698 -259863746 1302773000 120618700 87103475 -554272941 -573867816 1954451631 -2105675423 1328608821 -2134921273 -496100799 1201509183 -1623625288 665944684 565955949 666662615 -1026857949 1696168446 -1378043312 1865284942 -398189421 97097026 -2115254676
REM
CELL 1.54180   50.00000   50.00000   50.00000   90.00000   90.00000   90.00000
LATT -1
SFAC C  
C      1  0.5323890000000  0.4705200000000  0.4498320000000 1.0
C      1  0.5271190000000  0.4499220000000  0.5477450000000 1.0
C      1  0.4616210000000  0.5228250000000  0.5701150000000 1.0
C      1  0.5116230000000  0.5160680000000  0.5649930000000 1.0
C      1  0.4586060000000  0.4828090000000  0.5337810000000 1.0
C      1  0.4785140000000  0.4448840000000  0.4920430000000 1.0
C      1  0.4874900000000  0.4578270000000  0.4689630000000 1.0
C      1  0.5468440000000  0.4922690000000  0.4923740000000 1.0
C      1  0.5039920000000  0.4650710000000  0.5549450000000 1.0
C      1  0.5501430000000  0.5148500000000  0.4479810000000 1.0
C      1  0.4675480000000  0.6530510000000  0.4791560000000 1.0
C      1  0.5299150000000  0.4923780000000  0.5190650000000 1.0
C      1  0.5297750000000  0.4964310000000  0.4373220000000 1.0
C      1  0.5133840000000  0.4516670000000  0.4602210000000 1.0
C      1  0.4816110000000  0.4991780000000  0.4399910000000 1.0
C      1  0.4147480000000  0.5077310000000  0.5112770000000 1.0
C      1  0.4712560000000  0.4186170000000  0.4936760000000 1.0
C      1  0.5058280000000  0.5104730000000  0.4435810000000 1.0
C      1  0.5014880000000  0.5531470000000  0.4731250000000 1.0
C      1  0.5542700000000  0.5431550000000  0.4930770000000 1.0
C      1  0.5543740000000  0.4722170000000  0.4683310000000 1.0
C      1  0.4970400000000  0.4891980000000  0.5131410000000 1.0
C      1  0.4505680000000  0.5095880000000  0.5505260000000 1.0
C      1  0.5374260000000  0.4371340000000  0.5023240000000 1.0
C      1  0.5636630000000  0.5625840000000  0.5067030000000 1.0
C      1  0.4411360000000  0.5074970000000  0.5191240000000 1.0
C      1  0.5520400000000  0.4618500000000  0.5067390000000 1.0
C      1  0.5276610000000  0.4279870000000  0.5282390000000 1.0
C      1  0.4626770000000  0.5204250000000  0.4996910000000 1.0
C      1  0.4932480000000  0.5782190000000  0.4727520000000 1.0
C      1  0.4177610000000  0.4770770000000  0.4655160000000 1.0
C      1  0.5413400000000  0.5194640000000  0.4791760000000 1.0
C      1  0.5085090000000  0.5232580000000  0.4724200000000 1.0
C      1  0.5467610000000  0.4689360000000  0.5366660000000 1.0
C      1  0.4760200000000  0.6284640000000  0.4758750000000 1.0
C      1  0.4429300000000  0.4811550000000  0.4667700000000 1.0
C      1  0.4770240000000  0.4585530000000  0.5476770000000 1.0
C      1  0.4856540000000  0.5054380000000  0.4889680000000 1.0
C      1  0.4769030000000  0.4631200000000  0.5145680000000 1.0
C      1  0.5267340000000  0.4321700000000  0.4766120000000 1.0
C      1  0.5357610000000  0.5211880000000  0.5769240000000 1.0
C      1  0.5093130000000  0.4945610000000  0.5449960000000 1.0
C      1  0.4857760000000  0.6036970000000  0.4748640000000 1.0
C      1  0.4734350000000  0.4844060000000  0.4658310000000 1.0
C      1  0.4880800000000  0.5289410000000  0.5723050000000 1.0
END
