TITL C-2847959-7740-307 0.0005263849428792 125000 -912.742999624401 0 0 171 (C1) n - 1
REM
REM in /home/bkarasulu/work/CARBON/AIRSS/Generating-Clusters/AIREBO/with-SteepDescent/Only-C1/SD-CG-opt/Try1-1.4A-POS3A/HFTN-CG
REM
REM
REM
REM
REM
REM ./C.cell (11c1c37f851c82e70ff6c80c92926a4b)
REM
REM compiler GCC version 9.2.1 20190827 (Red Hat 9.2.1-1)
REM options -cpp -mtune=generic -march=x86-64 -g -O0 -fpre-include=/usr/include/finclude/math-vector-fortran.h
REM seed -263836975 1658706332 -534653051 2017984210 -779713576 268286793 -612522378 1217876095 544570457 1051725643 630776326 -377886212 1047407011 -1829220527 1147801215 994951406 -1064442031 -672617004 646063729 1049786352 -1202855731 -1568145976 -1748235417 582673554 -1520410608 -488135178 -412545689 -1566398615 -1826223040 -1300722074 -552254579 -252138034 -190737620
REM
CELL 1.54180   50.00000   50.00000   50.00000   90.00000   90.00000   90.00000
LATT -1
SFAC C  
C      1  0.5220220000000  0.5655290000000  0.4806200000000 1.0
C      1  0.4266010000000  0.4477750000000  0.4944060000000 1.0
C      1  0.5761280000000  0.5248160000000  0.4428240000000 1.0
C      1  0.5766610000000  0.4734050000000  0.5339410000000 1.0
C      1  0.5675400000000  0.5670720000000  0.5132290000000 1.0
C      1  0.4626330000000  0.5023110000000  0.5033970000000 1.0
C      1  0.5653540000000  0.4386450000000  0.4842800000000 1.0
C      1  0.5075040000000  0.5072700000000  0.5612710000000 1.0
C      1  0.4397140000000  0.5408370000000  0.4722380000000 1.0
C      1  0.4580140000000  0.5153460000000  0.4750280000000 1.0
C      1  0.5155490000000  0.4175250000000  0.5894330000000 1.0
C      1  0.4953080000000  0.4818950000000  0.3812620000000 1.0
C      1  0.5153050000000  0.4665960000000  0.3976730000000 1.0
C      1  0.4908590000000  0.4570080000000  0.5617870000000 1.0
C      1  0.5247100000000  0.4014990000000  0.5058710000000 1.0
C      1  0.5295260000000  0.5944840000000  0.4644380000000 1.0
C      1  0.4560850000000  0.5625370000000  0.5574810000000 1.0
C      1  0.4934630000000  0.5275120000000  0.4018620000000 1.0
C      1  0.5756910000000  0.4503660000000  0.5654290000000 1.0
C      1  0.4812860000000  0.4975580000000  0.6053540000000 1.0
C      1  0.4327980000000  0.4273490000000  0.5188830000000 1.0
C      1  0.4780040000000  0.5506350000000  0.4778330000000 1.0
C      1  0.4668800000000  0.4378730000000  0.4285300000000 1.0
C      1  0.3936370000000  0.4638200000000  0.5318600000000 1.0
C      1  0.4305970000000  0.5798910000000  0.4676130000000 1.0
C      1  0.5316390000000  0.4399600000000  0.5281040000000 1.0
C      1  0.4929490000000  0.5459880000000  0.5236180000000 1.0
C      1  0.5268780000000  0.4465210000000  0.4768560000000 1.0
C      1  0.4501930000000  0.4703940000000  0.5044850000000 1.0
C      1  0.4803460000000  0.5716530000000  0.5051980000000 1.0
C      1  0.5262620000000  0.5425980000000  0.5930330000000 1.0
C      1  0.4823770000000  0.5040910000000  0.4322570000000 1.0
C      1  0.5542960000000  0.4604270000000  0.3912340000000 1.0
C      1  0.4729170000000  0.3943360000000  0.4641690000000 1.0
C      1  0.3945080000000  0.5389850000000  0.4912220000000 1.0
C      1  0.5607400000000  0.5614910000000  0.4397220000000 1.0
C      1  0.5917540000000  0.5852190000000  0.5102070000000 1.0
C      1  0.4388730000000  0.4089280000000  0.5429990000000 1.0
C      1  0.4772930000000  0.5648710000000  0.4405280000000 1.0
C      1  0.4140160000000  0.4589290000000  0.5524740000000 1.0
C      1  0.6014180000000  0.4555610000000  0.4839230000000 1.0
C      1  0.4788960000000  0.4994070000000  0.3985080000000 1.0
C      1  0.5259010000000  0.5111640000000  0.5846690000000 1.0
C      1  0.5573330000000  0.5346500000000  0.4193110000000 1.0
C      1  0.6050540000000  0.5129230000000  0.4559430000000 1.0
C      1  0.4663950000000  0.4398340000000  0.5780050000000 1.0
C      1  0.4398230000000  0.5922980000000  0.5259290000000 1.0
C      1  0.4306050000000  0.5034340000000  0.4328030000000 1.0
C      1  0.5717240000000  0.5559610000000  0.5514260000000 1.0
C      1  0.5141410000000  0.5804420000000  0.5468740000000 1.0
C      1  0.4501250000000  0.4146660000000  0.4698440000000 1.0
C      1  0.5427360000000  0.4488700000000  0.5578580000000 1.0
C      1  0.4875450000000  0.5232090000000  0.4600930000000 1.0
C      1  0.5211560000000  0.5965880000000  0.4404940000000 1.0
C      1  0.4978220000000  0.4012400000000  0.4862680000000 1.0
C      1  0.5940430000000  0.5093960000000  0.5666390000000 1.0
C      1  0.4917950000000  0.4536120000000  0.4138310000000 1.0
C      1  0.5858400000000  0.4828150000000  0.5650210000000 1.0
C      1  0.6016240000000  0.4856330000000  0.4680590000000 1.0
C      1  0.5733310000000  0.5341530000000  0.5774860000000 1.0
C      1  0.5047310000000  0.5390080000000  0.4930230000000 1.0
C      1  0.4255850000000  0.4359200000000  0.4640940000000 1.0
C      1  0.5986200000000  0.5359250000000  0.4739790000000 1.0
C      1  0.4870070000000  0.4921840000000  0.5248440000000 1.0
C      1  0.5078540000000  0.4663520000000  0.5966760000000 1.0
C      1  0.5562910000000  0.5476520000000  0.6009970000000 1.0
C      1  0.5754500000000  0.5151370000000  0.5052190000000 1.0
C      1  0.4941430000000  0.4215630000000  0.4253250000000 1.0
C      1  0.4297160000000  0.4990520000000  0.4655340000000 1.0
C      1  0.4960770000000  0.4384340000000  0.4718080000000 1.0
C      1  0.4095730000000  0.4829750000000  0.4867390000000 1.0
C      1  0.5475510000000  0.5767470000000  0.5393250000000 1.0
C      1  0.4648280000000  0.5287170000000  0.5217350000000 1.0
C      1  0.5395840000000  0.4846060000000  0.4405370000000 1.0
C      1  0.5401940000000  0.4169690000000  0.4842220000000 1.0
C      1  0.5020510000000  0.4780910000000  0.4995040000000 1.0
C      1  0.4510340000000  0.4919530000000  0.5977800000000 1.0
C      1  0.4396890000000  0.5352260000000  0.4247010000000 1.0
C      1  0.5826700000000  0.4404280000000  0.5335420000000 1.0
C      1  0.5316650000000  0.5156640000000  0.5095830000000 1.0
C      1  0.4944990000000  0.4241270000000  0.5660420000000 1.0
C      1  0.4752130000000  0.4487450000000  0.4966130000000 1.0
C      1  0.4058570000000  0.5681010000000  0.4830430000000 1.0
C      1  0.4643210000000  0.4535610000000  0.5408060000000 1.0
C      1  0.5368710000000  0.4545150000000  0.4475520000000 1.0
C      1  0.4738590000000  0.4655010000000  0.5967920000000 1.0
C      1  0.5229430000000  0.4455680000000  0.5842400000000 1.0
C      1  0.5311700000000  0.4650750000000  0.5051620000000 1.0
C      1  0.5087230000000  0.5713590000000  0.4282880000000 1.0
C      1  0.4647630000000  0.4417150000000  0.4587030000000 1.0
C      1  0.5874130000000  0.5275420000000  0.5412810000000 1.0
C      1  0.5453170000000  0.4917860000000  0.4895570000000 1.0
C      1  0.5213320000000  0.5315100000000  0.4574670000000 1.0
C      1  0.4795240000000  0.5283790000000  0.5799690000000 1.0
C      1  0.5678180000000  0.4932270000000  0.4444650000000 1.0
C      1  0.5087040000000  0.6003870000000  0.5198470000000 1.0
C      1  0.5441530000000  0.5374530000000  0.5443020000000 1.0
C      1  0.4962360000000  0.5356190000000  0.6022980000000 1.0
C      1  0.4476100000000  0.5602690000000  0.4463020000000 1.0
C      1  0.4934050000000  0.5774340000000  0.4665050000000 1.0
C      1  0.5107850000000  0.4723160000000  0.5388600000000 1.0
C      1  0.5688870000000  0.5092670000000  0.4723780000000 1.0
C      1  0.4816690000000  0.6195660000000  0.5104590000000 1.0
C      1  0.4676280000000  0.4765720000000  0.4187960000000 1.0
C      1  0.4158160000000  0.5368710000000  0.4476280000000 1.0
C      1  0.4658330000000  0.4846900000000  0.5478510000000 1.0
C      1  0.5520620000000  0.4271140000000  0.4360880000000 1.0
C      1  0.4500340000000  0.4717930000000  0.4646630000000 1.0
C      1  0.5204090000000  0.4900340000000  0.6058020000000 1.0
C      1  0.5921950000000  0.4617560000000  0.4457610000000 1.0
C      1  0.5217870000000  0.5200830000000  0.3983160000000 1.0
C      1  0.4807730000000  0.4954950000000  0.5714160000000 1.0
C      1  0.4881750000000  0.5513030000000  0.5564200000000 1.0
C      1  0.4072100000000  0.5374680000000  0.5520040000000 1.0
C      1  0.4793810000000  0.5931200000000  0.5316820000000 1.0
C      1  0.4639150000000  0.4034680000000  0.5244770000000 1.0
C      1  0.4936220000000  0.3944020000000  0.5179740000000 1.0
C      1  0.4348850000000  0.5055760000000  0.5795530000000 1.0
C      1  0.4593920000000  0.5235180000000  0.5532750000000 1.0
C      1  0.5740890000000  0.4415930000000  0.4543700000000 1.0
C      1  0.4376810000000  0.4767030000000  0.4233330000000 1.0
C      1  0.3835190000000  0.4954720000000  0.5300000000000 1.0
C      1  0.5022580000000  0.4102580000000  0.4537780000000 1.0
C      1  0.5711050000000  0.5449700000000  0.4894550000000 1.0
C      1  0.4784090000000  0.5982830000000  0.4841440000000 1.0
C      1  0.3896310000000  0.5278980000000  0.5232310000000 1.0
C      1  0.5552320000000  0.5078510000000  0.5750910000000 1.0
C      1  0.4490010000000  0.6104350000000  0.5075750000000 1.0
C      1  0.4316250000000  0.5545880000000  0.4985540000000 1.0
C      1  0.5001670000000  0.5073760000000  0.4874060000000 1.0
C      1  0.4401250000000  0.4389870000000  0.5562460000000 1.0
C      1  0.5076850000000  0.5170500000000  0.5307940000000 1.0
C      1  0.5433630000000  0.4802380000000  0.5330880000000 1.0
C      1  0.4353130000000  0.5387730000000  0.5715570000000 1.0
C      1  0.4232380000000  0.4857180000000  0.5631890000000 1.0
C      1  0.5347650000000  0.4073930000000  0.4537140000000 1.0
C      1  0.4048840000000  0.5214080000000  0.4718850000000 1.0
C      1  0.5449970000000  0.4807720000000  0.5670580000000 1.0
C      1  0.4797970000000  0.4747940000000  0.4752330000000 1.0
C      1  0.4605000000000  0.5363390000000  0.4026860000000 1.0
C      1  0.4827300000000  0.5845220000000  0.5612020000000 1.0
C      1  0.5603330000000  0.5097060000000  0.5341410000000 1.0
C      1  0.4926700000000  0.4475530000000  0.5233950000000 1.0
C      1  0.5216350000000  0.5511610000000  0.5624740000000 1.0
C      1  0.6017940000000  0.4615610000000  0.5162850000000 1.0
C      1  0.5316470000000  0.4902340000000  0.4115850000000 1.0
C      1  0.5360510000000  0.4461290000000  0.4141360000000 1.0
C      1  0.4850810000000  0.5584520000000  0.4091810000000 1.0
C      1  0.5051140000000  0.4203390000000  0.5348800000000 1.0
C      1  0.5277640000000  0.4947480000000  0.6317660000000 1.0
C      1  0.5297000000000  0.5494210000000  0.4325210000000 1.0
C      1  0.4099420000000  0.4950200000000  0.5132500000000 1.0
C      1  0.5831290000000  0.4784820000000  0.4223320000000 1.0
C      1  0.5598750000000  0.4306990000000  0.5159260000000 1.0
C      1  0.3981690000000  0.4582180000000  0.5032440000000 1.0
C      1  0.5483420000000  0.5495680000000  0.4678680000000 1.0
C      1  0.5397100000000  0.5475230000000  0.5134710000000 1.0
C      1  0.4314890000000  0.5163650000000  0.5391600000000 1.0
C      1  0.4576150000000  0.4229440000000  0.4985190000000 1.0
C      1  0.4963070000000  0.4849400000000  0.4528430000000 1.0
C      1  0.4536580000000  0.5613260000000  0.5235680000000 1.0
C      1  0.5234360000000  0.4982760000000  0.4643410000000 1.0
C      1  0.4453670000000  0.6008530000000  0.4785200000000 1.0
C      1  0.4310870000000  0.4562590000000  0.4433640000000 1.0
C      1  0.5714960000000  0.4701570000000  0.4915470000000 1.0
C      1  0.5688160000000  0.4822440000000  0.3989290000000 1.0
C      1  0.4359400000000  0.4850660000000  0.5316480000000 1.0
C      1  0.4200940000000  0.5399950000000  0.5215810000000 1.0
C      1  0.5543220000000  0.5115010000000  0.3978150000000 1.0
C      1  0.5301280000000  0.5799930000000  0.5103030000000 1.0
C      1  0.5964530000000  0.4911500000000  0.5003810000000 1.0
END
