TITL C-2847958-8115-611 0.017398025516107 125000 -166.121675697927 0 0 31 (C1) n - 1
REM
REM in /home/bkarasulu/work/CARBON/AIRSS/Generating-Clusters/AIREBO/with-SteepDescent/Only-C1/SD-CG-opt/Try1-1.4A-POS3A/HFTN-CG
REM
REM
REM
REM
REM
REM ./C.cell (11c1c37f851c82e70ff6c80c92926a4b)
REM
REM compiler GCC version 9.2.1 20190827 (Red Hat 9.2.1-1)
REM options -cpp -mtune=generic -march=x86-64 -g -O0 -fpre-include=/usr/include/finclude/math-vector-fortran.h
REM seed 2031963598 -548371261 -235633539 -1830449494 -504005767 1514184577 588920045 1156301157 1380136920 -1180496023 534645904 -1412096580 -512000167 1338622420 678095328 1941958517 -991264448 1912392325 -203315195 1969970674 -1239984299 -462018186 -312069476 484357182 973937206 237314007 -774579002 1465114424 -1658497333 169508772 1394335884 608628235 -533330062
REM
CELL 1.54180   50.00000   50.00000   50.00000   90.00000   90.00000   90.00000
LATT -1
SFAC C  
C      1  0.4987810000000  0.3873210000000  0.4746260000000 1.0
C      1  0.5039940000000  0.5220870000000  0.5725630000000 1.0
C      1  0.5188780000000  0.5220570000000  0.4499820000000 1.0
C      1  0.5150630000000  0.4935270000000  0.5619660000000 1.0
C      1  0.5518510000000  0.5405840000000  0.5098570000000 1.0
C      1  0.5265270000000  0.4764130000000  0.5806870000000 1.0
C      1  0.4308590000000  0.4928790000000  0.4951430000000 1.0
C      1  0.4961750000000  0.4808510000000  0.5416280000000 1.0
C      1  0.4532720000000  0.4725990000000  0.4551180000000 1.0
C      1  0.4762570000000  0.4006280000000  0.4553920000000 1.0
C      1  0.4877050000000  0.5356630000000  0.4957300000000 1.0
C      1  0.5014480000000  0.5210660000000  0.4708020000000 1.0
C      1  0.4716270000000  0.4638370000000  0.4980180000000 1.0
C      1  0.4830850000000  0.4145150000000  0.4837730000000 1.0
C      1  0.5071430000000  0.5441580000000  0.5617730000000 1.0
C      1  0.5708260000000  0.5455130000000  0.4918270000000 1.0
C      1  0.4561420000000  0.4875190000000  0.4836620000000 1.0
C      1  0.4633510000000  0.4461840000000  0.4554990000000 1.0
C      1  0.4819190000000  0.4687450000000  0.5229800000000 1.0
C      1  0.5193810000000  0.5849350000000  0.5340660000000 1.0
C      1  0.5337920000000  0.5368590000000  0.5302720000000 1.0
C      1  0.4657680000000  0.4223130000000  0.4396280000000 1.0
C      1  0.5175250000000  0.5034590000000  0.4303930000000 1.0
C      1  0.5107380000000  0.5582640000000  0.5334100000000 1.0
C      1  0.4633660000000  0.5661410000000  0.5228650000000 1.0
C      1  0.4866950000000  0.5532280000000  0.5161270000000 1.0
C      1  0.5877370000000  0.5498920000000  0.4722870000000 1.0
C      1  0.4730860000000  0.5113930000000  0.4813160000000 1.0
C      1  0.5388550000000  0.5402900000000  0.4500370000000 1.0
C      1  0.5335680000000  0.5156250000000  0.5465500000000 1.0
C      1  0.4745840000000  0.4414540000000  0.4820230000000 1.0
END
