TITL C-2848505-4874-316 0.00138678952942399 125000 -199.383929507938 0 0 39 (C1) n - 1
REM
REM in /home/bkarasulu/work/CARBON/AIRSS/Generating-Clusters/AIREBO/with-SteepDescent/Only-C1/SD-CG-opt/Try1-1.4A-POS3A/HFTN-CG
REM
REM
REM
REM
REM
REM ./C.cell (11c1c37f851c82e70ff6c80c92926a4b)
REM
REM compiler GCC version 9.2.1 20190827 (Red Hat 9.2.1-1)
REM options -cpp -mtune=generic -march=x86-64 -g -O0 -fpre-include=/usr/include/finclude/math-vector-fortran.h
REM seed -1166889558 -1850322695 -1003213632 -271700488 -1370472675 -1720387301 -789996595 -1331798443 -584356187 -1213496981 -2084144921 -2075034722 692932260 1318879578 257968436 -223091936 -875793512 -2065727288 -267906978 904216172 838496139 1673836400 1796829709 1096129373 -582565852 -92405253 -1251992417 -107512690 1464170200 1706727415 -358919882 423923129 -1692095064
REM
CELL 1.54180   50.00000   50.00000   50.00000   90.00000   90.00000   90.00000
LATT -1
SFAC C  
C      1  0.5298230000000  0.5353090000000  0.4955400000000 1.0
C      1  0.4399690000000  0.5155790000000  0.4768770000000 1.0
C      1  0.5175810000000  0.5196590000000  0.5501630000000 1.0
C      1  0.5182740000000  0.5626840000000  0.4501870000000 1.0
C      1  0.4442080000000  0.5006520000000  0.5257930000000 1.0
C      1  0.5107280000000  0.4608020000000  0.4982220000000 1.0
C      1  0.5013100000000  0.5040500000000  0.5672360000000 1.0
C      1  0.5340870000000  0.4191880000000  0.5128690000000 1.0
C      1  0.4562920000000  0.4666800000000  0.4875780000000 1.0
C      1  0.5460080000000  0.4870230000000  0.4684720000000 1.0
C      1  0.4996310000000  0.4765040000000  0.5616560000000 1.0
C      1  0.5074480000000  0.4298310000000  0.5542630000000 1.0
C      1  0.4530950000000  0.4967140000000  0.4999700000000 1.0
C      1  0.5356850000000  0.5194320000000  0.4698310000000 1.0
C      1  0.5163260000000  0.4381940000000  0.5233800000000 1.0
C      1  0.4826270000000  0.5246800000000  0.4418160000000 1.0
C      1  0.5480160000000  0.5211370000000  0.5457800000000 1.0
C      1  0.5120090000000  0.4874180000000  0.4684800000000 1.0
C      1  0.4639140000000  0.5031240000000  0.4561910000000 1.0
C      1  0.5294550000000  0.4998850000000  0.4417030000000 1.0
C      1  0.4887170000000  0.5149680000000  0.5884490000000 1.0
C      1  0.4757240000000  0.5233410000000  0.4808530000000 1.0
C      1  0.4861670000000  0.5533020000000  0.4565290000000 1.0
C      1  0.4300970000000  0.5426390000000  0.4843370000000 1.0
C      1  0.4673240000000  0.4715700000000  0.4602810000000 1.0
C      1  0.5539210000000  0.4984220000000  0.5230050000000 1.0
C      1  0.5101750000000  0.5548820000000  0.4822820000000 1.0
C      1  0.5551640000000  0.5303910000000  0.5155580000000 1.0
C      1  0.5388240000000  0.4597130000000  0.4791020000000 1.0
C      1  0.4467950000000  0.5597390000000  0.4937780000000 1.0
C      1  0.4971010000000  0.4634890000000  0.5355520000000 1.0
C      1  0.4946720000000  0.4601070000000  0.4682290000000 1.0
C      1  0.4798980000000  0.4688600000000  0.5101010000000 1.0
C      1  0.5182590000000  0.5159620000000  0.5197570000000 1.0
C      1  0.5271520000000  0.4869840000000  0.5123950000000 1.0
C      1  0.4859420000000  0.4934440000000  0.4880200000000 1.0
C      1  0.5154410000000  0.5292600000000  0.4446200000000 1.0
C      1  0.4766750000000  0.5543620000000  0.4880900000000 1.0
C      1  0.5054630000000  0.4500220000000  0.5730530000000 1.0
END
