TITL C-2847957-7266-718 5.8013362628192e-05 125000 -995.683378655925 0 0 181 (C1) n - 1
REM
REM in /home/bkarasulu/work/CARBON/AIRSS/Generating-Clusters/AIREBO/with-SteepDescent/Only-C1/SD-CG-opt/Try1-1.4A-POS3A/HFTN-CG
REM
REM
REM
REM
REM
REM ./C.cell (11c1c37f851c82e70ff6c80c92926a4b)
REM
REM compiler GCC version 9.2.1 20190827 (Red Hat 9.2.1-1)
REM options -cpp -mtune=generic -march=x86-64 -g -O0 -fpre-include=/usr/include/finclude/math-vector-fortran.h
REM seed -815616592 1777216756 1204282423 55855128 -1420492072 -1331819671 1114164430 -878775579 -466714686 13196414 -1802119729 1726270031 780804899 -1478066539 -547280401 -2075630233 -1750218690 -892432923 -1584729111 1512699648 807564318 -1521911321 -1983284160 -1782320943 -865468476 831677298 -929653132 -786691626 5664901 -1724128573 -705596975 198124706 -1640852365
REM
CELL 1.54180   50.00000   50.00000   50.00000   90.00000   90.00000   90.00000
LATT -1
SFAC C  
C      1  0.5007220000000  0.5862290000000  0.5727470000000 1.0
C      1  0.5307710000000  0.4417340000000  0.4446800000000 1.0
C      1  0.5408600000000  0.5085990000000  0.6112810000000 1.0
C      1  0.5404180000000  0.5681330000000  0.4604920000000 1.0
C      1  0.5024460000000  0.6130680000000  0.5199130000000 1.0
C      1  0.4185680000000  0.5639900000000  0.5557710000000 1.0
C      1  0.5343960000000  0.5461470000000  0.4348530000000 1.0
C      1  0.4440090000000  0.5635080000000  0.4403970000000 1.0
C      1  0.4077310000000  0.4958670000000  0.4857910000000 1.0
C      1  0.5010540000000  0.4721040000000  0.5502660000000 1.0
C      1  0.5381100000000  0.3921600000000  0.4884240000000 1.0
C      1  0.5181390000000  0.4444670000000  0.5496580000000 1.0
C      1  0.4634660000000  0.5853720000000  0.5135140000000 1.0
C      1  0.5064840000000  0.3848380000000  0.4962120000000 1.0
C      1  0.5511800000000  0.4741560000000  0.4910200000000 1.0
C      1  0.5117210000000  0.4172280000000  0.5617810000000 1.0
C      1  0.5899970000000  0.4325820000000  0.5378530000000 1.0
C      1  0.5685330000000  0.5707740000000  0.4794670000000 1.0
C      1  0.4429170000000  0.4192700000000  0.5416130000000 1.0
C      1  0.5201070000000  0.5515320000000  0.5106020000000 1.0
C      1  0.3908430000000  0.4863650000000  0.5137430000000 1.0
C      1  0.5012030000000  0.4794370000000  0.6066960000000 1.0
C      1  0.4942870000000  0.5110510000000  0.4394830000000 1.0
C      1  0.6085900000000  0.4820940000000  0.4706630000000 1.0
C      1  0.4795500000000  0.5795930000000  0.4542000000000 1.0
C      1  0.5633550000000  0.4824060000000  0.5570840000000 1.0
C      1  0.5627100000000  0.4181120000000  0.5403270000000 1.0
C      1  0.4741970000000  0.4720090000000  0.4712340000000 1.0
C      1  0.4067250000000  0.4638210000000  0.4576530000000 1.0
C      1  0.4461250000000  0.5449660000000  0.4689320000000 1.0
C      1  0.4619450000000  0.5044660000000  0.4096200000000 1.0
C      1  0.5066640000000  0.4348760000000  0.5864480000000 1.0
C      1  0.4196960000000  0.5211360000000  0.4435250000000 1.0
C      1  0.5381980000000  0.4977050000000  0.5578220000000 1.0
C      1  0.4192040000000  0.5899210000000  0.5361660000000 1.0
C      1  0.5987340000000  0.5072260000000  0.5434400000000 1.0
C      1  0.5006570000000  0.4771890000000  0.3883250000000 1.0
C      1  0.5092210000000  0.4552900000000  0.5072660000000 1.0
C      1  0.4695830000000  0.4261810000000  0.4696980000000 1.0
C      1  0.5449120000000  0.5107970000000  0.4491900000000 1.0
C      1  0.5307030000000  0.4568200000000  0.5922690000000 1.0
C      1  0.5607620000000  0.5362620000000  0.5335640000000 1.0
C      1  0.4819240000000  0.4635030000000  0.5235110000000 1.0
C      1  0.5034120000000  0.5422980000000  0.3938660000000 1.0
C      1  0.4170150000000  0.5243060000000  0.5514650000000 1.0
C      1  0.4508500000000  0.4695800000000  0.4254310000000 1.0
C      1  0.5653130000000  0.4717060000000  0.4412210000000 1.0
C      1  0.4166120000000  0.5034850000000  0.5715700000000 1.0
C      1  0.4579300000000  0.5568840000000  0.5542230000000 1.0
C      1  0.5909760000000  0.5077690000000  0.5709490000000 1.0
C      1  0.5138880000000  0.3941370000000  0.4643520000000 1.0
C      1  0.5807010000000  0.4786660000000  0.5043800000000 1.0
C      1  0.5099030000000  0.5229860000000  0.5238320000000 1.0
C      1  0.5135350000000  0.4368900000000  0.4078530000000 1.0
C      1  0.3996220000000  0.5220480000000  0.5274950000000 1.0
C      1  0.4784890000000  0.6072120000000  0.5023840000000 1.0
C      1  0.4480060000000  0.5073890000000  0.4564030000000 1.0
C      1  0.5749130000000  0.5296990000000  0.5764200000000 1.0
C      1  0.5358950000000  0.5753090000000  0.5246060000000 1.0
C      1  0.5023800000000  0.4619970000000  0.4252130000000 1.0
C      1  0.4446400000000  0.4334180000000  0.5864840000000 1.0
C      1  0.5373780000000  0.5631770000000  0.5656150000000 1.0
C      1  0.4839150000000  0.4985630000000  0.5614560000000 1.0
C      1  0.5461830000000  0.5154510000000  0.3860480000000 1.0
C      1  0.4345910000000  0.5168660000000  0.4826640000000 1.0
C      1  0.4474350000000  0.5309590000000  0.5378130000000 1.0
C      1  0.4885340000000  0.4107820000000  0.4897230000000 1.0
C      1  0.5253060000000  0.5848180000000  0.4350260000000 1.0
C      1  0.5896080000000  0.4546600000000  0.4560590000000 1.0
C      1  0.5927500000000  0.4559790000000  0.5527840000000 1.0
C      1  0.4884610000000  0.6000040000000  0.4750480000000 1.0
C      1  0.4290830000000  0.4341230000000  0.5634870000000 1.0
C      1  0.4364360000000  0.5556460000000  0.5781780000000 1.0
C      1  0.5329770000000  0.5281790000000  0.5944390000000 1.0
C      1  0.5273380000000  0.4944610000000  0.5301380000000 1.0
C      1  0.4736320000000  0.4093880000000  0.5396260000000 1.0
C      1  0.5988060000000  0.4560070000000  0.4877930000000 1.0
C      1  0.5697140000000  0.5590300000000  0.5684850000000 1.0
C      1  0.5051620000000  0.6037880000000  0.5456200000000 1.0
C      1  0.5723700000000  0.5836470000000  0.5107030000000 1.0
C      1  0.4560020000000  0.4988300000000  0.5450360000000 1.0
C      1  0.5063520000000  0.5396000000000  0.5961210000000 1.0
C      1  0.5173960000000  0.4835230000000  0.5769380000000 1.0
C      1  0.4553690000000  0.4472140000000  0.5098890000000 1.0
C      1  0.5867360000000  0.4812520000000  0.5332890000000 1.0
C      1  0.5374460000000  0.4630690000000  0.5200810000000 1.0
C      1  0.4913190000000  0.4480170000000  0.4542700000000 1.0
C      1  0.4082430000000  0.4552810000000  0.4867080000000 1.0
C      1  0.4268450000000  0.4737740000000  0.5031880000000 1.0
C      1  0.4210530000000  0.4584050000000  0.5526640000000 1.0
C      1  0.5429050000000  0.4243200000000  0.4782900000000 1.0
C      1  0.4323420000000  0.5773750000000  0.5058490000000 1.0
C      1  0.5515020000000  0.4555230000000  0.4678390000000 1.0
C      1  0.4494890000000  0.5844200000000  0.5411430000000 1.0
C      1  0.5758730000000  0.4964780000000  0.4283850000000 1.0
C      1  0.4308610000000  0.4132350000000  0.5129780000000 1.0
C      1  0.4867760000000  0.5666270000000  0.4085850000000 1.0
C      1  0.4361890000000  0.5069760000000  0.5917620000000 1.0
C      1  0.5829280000000  0.5442420000000  0.4795500000000 1.0
C      1  0.4647120000000  0.4155210000000  0.5086080000000 1.0
C      1  0.4748570000000  0.4732250000000  0.4070930000000 1.0
C      1  0.4761660000000  0.4689040000000  0.6055540000000 1.0
C      1  0.5095090000000  0.5350460000000  0.5542050000000 1.0
C      1  0.4276140000000  0.4420720000000  0.4544300000000 1.0
C      1  0.4573180000000  0.4814010000000  0.4531330000000 1.0
C      1  0.3950910000000  0.5448610000000  0.5099170000000 1.0
C      1  0.5107770000000  0.4318640000000  0.4851860000000 1.0
C      1  0.5381860000000  0.5460700000000  0.4862830000000 1.0
C      1  0.5554940000000  0.4376610000000  0.5064410000000 1.0
C      1  0.5827740000000  0.4273860000000  0.4449630000000 1.0
C      1  0.4639630000000  0.5260030000000  0.4358700000000 1.0
C      1  0.5412780000000  0.5808550000000  0.4122780000000 1.0
C      1  0.4125230000000  0.4263190000000  0.4934640000000 1.0
C      1  0.4265150000000  0.5029990000000  0.5190970000000 1.0
C      1  0.4620710000000  0.4753510000000  0.5688080000000 1.0
C      1  0.5169920000000  0.4931950000000  0.4574430000000 1.0
C      1  0.5714810000000  0.5081960000000  0.4921060000000 1.0
C      1  0.5647570000000  0.5682590000000  0.5369490000000 1.0
C      1  0.4594690000000  0.5623070000000  0.4109360000000 1.0
C      1  0.5132360000000  0.4641180000000  0.4746780000000 1.0
C      1  0.5234200000000  0.5321840000000  0.4632940000000 1.0
C      1  0.5733820000000  0.5189780000000  0.4613590000000 1.0
C      1  0.4831060000000  0.5369010000000  0.5072130000000 1.0
C      1  0.5982600000000  0.5091120000000  0.4425540000000 1.0
C      1  0.5147680000000  0.5931120000000  0.4952190000000 1.0
C      1  0.4758940000000  0.5481570000000  0.4587430000000 1.0
C      1  0.4542070000000  0.5320020000000  0.5890410000000 1.0
C      1  0.4563710000000  0.5156610000000  0.5087620000000 1.0
C      1  0.4999210000000  0.4163160000000  0.4454540000000 1.0
C      1  0.6044800000000  0.5057560000000  0.4842900000000 1.0
C      1  0.5853620000000  0.4392950000000  0.5096340000000 1.0
C      1  0.5585440000000  0.4561620000000  0.5766330000000 1.0
C      1  0.4363670000000  0.5392710000000  0.4200840000000 1.0
C      1  0.5497510000000  0.4065100000000  0.5141190000000 1.0
C      1  0.6008950000000  0.5333840000000  0.5011030000000 1.0
C      1  0.5314880000000  0.5610250000000  0.3897230000000 1.0
C      1  0.5499420000000  0.5252590000000  0.5064640000000 1.0
C      1  0.4945090000000  0.5315060000000  0.4756220000000 1.0
C      1  0.5029080000000  0.5021500000000  0.4870700000000 1.0
C      1  0.4086860000000  0.4863340000000  0.5427790000000 1.0
C      1  0.5441730000000  0.5894670000000  0.4941850000000 1.0
C      1  0.4992640000000  0.3979880000000  0.5453820000000 1.0
C      1  0.5870380000000  0.4752710000000  0.5804140000000 1.0
C      1  0.5078580000000  0.4939860000000  0.4150430000000 1.0
C      1  0.4675600000000  0.4215510000000  0.4363950000000 1.0
C      1  0.4308210000000  0.4974320000000  0.4217980000000 1.0
C      1  0.5322160000000  0.4981810000000  0.4987950000000 1.0
C      1  0.5564980000000  0.5504840000000  0.4108230000000 1.0
C      1  0.4277790000000  0.5705480000000  0.4760760000000 1.0
C      1  0.4709260000000  0.4411380000000  0.5466750000000 1.0
C      1  0.4081540000000  0.4892580000000  0.4463430000000 1.0
C      1  0.4955440000000  0.5660760000000  0.4949160000000 1.0
C      1  0.5147130000000  0.5269410000000  0.4202870000000 1.0
C      1  0.4248860000000  0.5525990000000  0.5243600000000 1.0
C      1  0.5240350000000  0.5222550000000  0.3757190000000 1.0
C      1  0.5553470000000  0.4183830000000  0.4467720000000 1.0
C      1  0.4435370000000  0.4697730000000  0.5324510000000 1.0
C      1  0.5063770000000  0.3793880000000  0.5270030000000 1.0
C      1  0.3876170000000  0.5473730000000  0.4830240000000 1.0
C      1  0.4757020000000  0.5494610000000  0.6057050000000 1.0
C      1  0.5329440000000  0.4717050000000  0.4365650000000 1.0
C      1  0.5102360000000  0.5679570000000  0.5456850000000 1.0
C      1  0.4760890000000  0.4885520000000  0.5010040000000 1.0
C      1  0.4979280000000  0.5807170000000  0.4302510000000 1.0
C      1  0.4966050000000  0.5718700000000  0.5948430000000 1.0
C      1  0.5114330000000  0.4349320000000  0.3819400000000 1.0
C      1  0.5310700000000  0.4826690000000  0.6143540000000 1.0
C      1  0.5553270000000  0.5172050000000  0.4171210000000 1.0
C      1  0.4426340000000  0.4354560000000  0.4819430000000 1.0
C      1  0.4508640000000  0.4842390000000  0.5972330000000 1.0
C      1  0.4751960000000  0.4460720000000  0.5800580000000 1.0
C      1  0.4448010000000  0.4408080000000  0.4322490000000 1.0
C      1  0.5278510000000  0.4143630000000  0.4268660000000 1.0
C      1  0.4073510000000  0.5467520000000  0.4627150000000 1.0
C      1  0.5488450000000  0.4464630000000  0.5474920000000 1.0
C      1  0.5911520000000  0.5289130000000  0.5277930000000 1.0
C      1  0.4759190000000  0.5226170000000  0.3900500000000 1.0
C      1  0.5433880000000  0.5298860000000  0.5621090000000 1.0
C      1  0.4803270000000  0.5613250000000  0.5307350000000 1.0
C      1  0.4474830000000  0.5905980000000  0.4569480000000 1.0
C      1  0.4846640000000  0.5262170000000  0.5746670000000 1.0
END
