TITL C-2847949-8115-461 -0.000932450082688734 125000 -545.99611772539 0 0 100 (C1) n - 1
REM
REM in /home/bkarasulu/work/CARBON/AIRSS/Generating-Clusters/AIREBO/with-SteepDescent/Only-C1/SD-CG-opt/Try1-1.4A-POS3A/HFTN-CG
REM
REM
REM
REM
REM
REM ./C.cell (11c1c37f851c82e70ff6c80c92926a4b)
REM
REM compiler GCC version 9.2.1 20190827 (Red Hat 9.2.1-1)
REM options -cpp -mtune=generic -march=x86-64 -g -O0 -fpre-include=/usr/include/finclude/math-vector-fortran.h
REM seed 1215769395 1728405014 40986925 -406602004 -2085223378 -1890139863 -1097376071 -890186027 -1292635006 1212959681 1346632410 -1857722952 469546669 614024436 -387742122 103094445 141703382 1199621806 1785472349 1357309525 -2123871081 519965347 -2122883166 -1702244692 -888385461 -233890947 356725966 1431576706 -1938201510 2047515697 -1198338792 -1552372753 1210580274
REM
CELL 1.54180   50.00000   50.00000   50.00000   90.00000   90.00000   90.00000
LATT -1
SFAC C  
C      1  0.4146540000000  0.5001190000000  0.5455250000000 1.0
C      1  0.4322430000000  0.4831220000000  0.4871790000000 1.0
C      1  0.4799130000000  0.5546850000000  0.5067400000000 1.0
C      1  0.4891060000000  0.5022410000000  0.5636750000000 1.0
C      1  0.4885840000000  0.5139620000000  0.5131290000000 1.0
C      1  0.4962330000000  0.4729060000000  0.5022330000000 1.0
C      1  0.4770490000000  0.4307670000000  0.4564840000000 1.0
C      1  0.5733220000000  0.4730980000000  0.4956280000000 1.0
C      1  0.4413850000000  0.5745980000000  0.5269190000000 1.0
C      1  0.5942540000000  0.4667330000000  0.5182310000000 1.0
C      1  0.4866220000000  0.4658570000000  0.4721070000000 1.0
C      1  0.5227340000000  0.4618620000000  0.4874430000000 1.0
C      1  0.5479100000000  0.6022140000000  0.4965550000000 1.0
C      1  0.5093430000000  0.5468300000000  0.5219060000000 1.0
C      1  0.4225210000000  0.4678860000000  0.5379270000000 1.0
C      1  0.4525160000000  0.5423180000000  0.4966550000000 1.0
C      1  0.4457030000000  0.4638970000000  0.4548810000000 1.0
C      1  0.5392330000000  0.5152470000000  0.4888270000000 1.0
C      1  0.4797990000000  0.5284010000000  0.5687280000000 1.0
C      1  0.5469030000000  0.4764660000000  0.5588410000000 1.0
C      1  0.5379950000000  0.5186670000000  0.5803980000000 1.0
C      1  0.5102430000000  0.5321790000000  0.4942520000000 1.0
C      1  0.4636770000000  0.4825510000000  0.5001520000000 1.0
C      1  0.4655560000000  0.4831850000000  0.4437470000000 1.0
C      1  0.4966720000000  0.4148120000000  0.4725400000000 1.0
C      1  0.4111190000000  0.5193690000000  0.5251310000000 1.0
C      1  0.5612490000000  0.5143160000000  0.4440300000000 1.0
C      1  0.5677030000000  0.4865900000000  0.4459260000000 1.0
C      1  0.4867320000000  0.5435740000000  0.4303710000000 1.0
C      1  0.4787690000000  0.4017830000000  0.5213380000000 1.0
C      1  0.4573660000000  0.5280220000000  0.4740330000000 1.0
C      1  0.5551640000000  0.5669820000000  0.4209430000000 1.0
C      1  0.5331470000000  0.5811060000000  0.4850020000000 1.0
C      1  0.4677980000000  0.4962580000000  0.4168720000000 1.0
C      1  0.5018570000000  0.4159640000000  0.5027040000000 1.0
C      1  0.4513370000000  0.4195880000000  0.5308400000000 1.0
C      1  0.4536780000000  0.5423290000000  0.4513660000000 1.0
C      1  0.5014010000000  0.4623670000000  0.5318210000000 1.0
C      1  0.4285260000000  0.4891730000000  0.4576070000000 1.0
C      1  0.4733110000000  0.4816830000000  0.5731060000000 1.0
C      1  0.5654420000000  0.5742090000000  0.4455270000000 1.0
C      1  0.4612300000000  0.3951440000000  0.5482560000000 1.0
C      1  0.5626770000000  0.5333790000000  0.4721420000000 1.0
C      1  0.5743980000000  0.5226630000000  0.5182390000000 1.0
C      1  0.5174040000000  0.4990340000000  0.4204140000000 1.0
C      1  0.4779880000000  0.5804100000000  0.4763040000000 1.0
C      1  0.4344010000000  0.5301650000000  0.5157680000000 1.0
C      1  0.5722300000000  0.4553750000000  0.5562700000000 1.0
C      1  0.5619150000000  0.4530210000000  0.4521210000000 1.0
C      1  0.5320080000000  0.4233570000000  0.5032050000000 1.0
C      1  0.3866990000000  0.5258670000000  0.5158420000000 1.0
C      1  0.5293230000000  0.5460620000000  0.5448350000000 1.0
C      1  0.5507580000000  0.4946120000000  0.5826010000000 1.0
C      1  0.5745040000000  0.4758720000000  0.6268010000000 1.0
C      1  0.5276830000000  0.4943260000000  0.4524800000000 1.0
C      1  0.4332050000000  0.5092180000000  0.5677670000000 1.0
C      1  0.4585220000000  0.5809390000000  0.5036850000000 1.0
C      1  0.4336730000000  0.5098510000000  0.4387830000000 1.0
C      1  0.5465890000000  0.4344460000000  0.4713730000000 1.0
C      1  0.4584640000000  0.4489720000000  0.5015580000000 1.0
C      1  0.5529700000000  0.5471420000000  0.5680740000000 1.0
C      1  0.4907430000000  0.5798470000000  0.5268960000000 1.0
C      1  0.4548510000000  0.4420370000000  0.4698290000000 1.0
C      1  0.4941470000000  0.4555180000000  0.4405960000000 1.0
C      1  0.5447980000000  0.4841070000000  0.4800300000000 1.0
C      1  0.4642190000000  0.5283290000000  0.5320300000000 1.0
C      1  0.4570330000000  0.4952290000000  0.5290090000000 1.0
C      1  0.4476640000000  0.4808400000000  0.5558660000000 1.0
C      1  0.4460580000000  0.5535740000000  0.5458320000000 1.0
C      1  0.5013500000000  0.4955680000000  0.5360370000000 1.0
C      1  0.5271220000000  0.4533840000000  0.5435670000000 1.0
C      1  0.5837360000000  0.5214940000000  0.4914070000000 1.0
C      1  0.5340930000000  0.5481430000000  0.4219170000000 1.0
C      1  0.5114290000000  0.5561300000000  0.4374470000000 1.0
C      1  0.4955900000000  0.4808420000000  0.4178870000000 1.0
C      1  0.4942360000000  0.4935400000000  0.4586570000000 1.0
C      1  0.5157340000000  0.5560210000000  0.4705880000000 1.0
C      1  0.5209540000000  0.5469640000000  0.5772970000000 1.0
C      1  0.5407260000000  0.4315400000000  0.5326500000000 1.0
C      1  0.4581140000000  0.5269810000000  0.4224440000000 1.0
C      1  0.5550360000000  0.5625450000000  0.4680350000000 1.0
C      1  0.4835350000000  0.4388320000000  0.5176050000000 1.0
C      1  0.4729960000000  0.5664850000000  0.4515790000000 1.0
C      1  0.5913280000000  0.4965730000000  0.4835240000000 1.0
C      1  0.5254940000000  0.5262710000000  0.4596820000000 1.0
C      1  0.4858830000000  0.5508980000000  0.5454470000000 1.0
C      1  0.4149330000000  0.4722310000000  0.5053820000000 1.0
C      1  0.4771720000000  0.5072480000000  0.4817560000000 1.0
C      1  0.4091610000000  0.4285830000000  0.5050150000000 1.0
C      1  0.5469530000000  0.5133360000000  0.5206340000000 1.0
C      1  0.5021300000000  0.5848920000000  0.4951410000000 1.0
C      1  0.5152020000000  0.4400340000000  0.4629680000000 1.0
C      1  0.4319700000000  0.4412250000000  0.5190580000000 1.0
C      1  0.5523600000000  0.4503460000000  0.4995350000000 1.0
C      1  0.4497330000000  0.5323600000000  0.5689130000000 1.0
C      1  0.5664940000000  0.4310120000000  0.5440140000000 1.0
C      1  0.5410610000000  0.5199530000000  0.4236390000000 1.0
C      1  0.5640580000000  0.4854960000000  0.6047720000000 1.0
C      1  0.5430960000000  0.4701640000000  0.4341640000000 1.0
C      1  0.5333990000000  0.4936570000000  0.5353120000000 1.0
END
