TITL C-2848509-3138-140 -0.000875738522930485 125000 -223.312238572881 0 0 42 (C1) n - 1
REM
REM in /home/bkarasulu/work/CARBON/AIRSS/Generating-Clusters/AIREBO/with-SteepDescent/Only-C1/SD-CG-opt/Try1-1.4A-POS3A/HFTN-CG
REM
REM
REM
REM
REM
REM ./C.cell (11c1c37f851c82e70ff6c80c92926a4b)
REM
REM compiler GCC version 9.2.1 20190827 (Red Hat 9.2.1-1)
REM options -cpp -mtune=generic -march=x86-64 -g -O0 -fpre-include=/usr/include/finclude/math-vector-fortran.h
REM seed -1289734190 938217916 -2042245558 283620509 -414800398 -848013419 218744047 -567602473 -859272692 429811049 5596621 -818156076 232398967 -1327091212 -1186338819 70072470 506324646 923949430 1192523561 -101139412 11965885 -1264753902 239590513 -1716089377 -2074921786 46634235 -2136084878 -340061100 -759216095 898836760 1295809776 -311168170 1368792483
REM
CELL 1.54180   50.00000   50.00000   50.00000   90.00000   90.00000   90.00000
LATT -1
SFAC C  
C      1  0.4765430000000  0.5229960000000  0.5114800000000 1.0
C      1  0.4709810000000  0.4317130000000  0.4934770000000 1.0
C      1  0.4606060000000  0.5371870000000  0.4670190000000 1.0
C      1  0.4743410000000  0.4479170000000  0.5231810000000 1.0
C      1  0.4405990000000  0.4416090000000  0.5436260000000 1.0
C      1  0.4668330000000  0.4307780000000  0.5520320000000 1.0
C      1  0.5653220000000  0.4998890000000  0.5129120000000 1.0
C      1  0.4426690000000  0.5167670000000  0.4681470000000 1.0
C      1  0.4206890000000  0.4967310000000  0.4805460000000 1.0
C      1  0.5070030000000  0.5163930000000  0.4652540000000 1.0
C      1  0.4900310000000  0.4775650000000  0.5288360000000 1.0
C      1  0.4718870000000  0.5325910000000  0.5374690000000 1.0
C      1  0.5263840000000  0.5007160000000  0.4448980000000 1.0
C      1  0.5220150000000  0.5076630000000  0.4944850000000 1.0
C      1  0.4330760000000  0.4756500000000  0.5017120000000 1.0
C      1  0.5100760000000  0.4618830000000  0.4720220000000 1.0
C      1  0.5226330000000  0.5325660000000  0.4392390000000 1.0
C      1  0.5137780000000  0.4748300000000  0.5446660000000 1.0
C      1  0.4843770000000  0.5355960000000  0.4503600000000 1.0
C      1  0.5514480000000  0.5513560000000  0.5178640000000 1.0
C      1  0.4530060000000  0.4867000000000  0.4768680000000 1.0
C      1  0.5496350000000  0.4684830000000  0.4709080000000 1.0
C      1  0.5052250000000  0.4344470000000  0.5185830000000 1.0
C      1  0.4817080000000  0.4464640000000  0.4729710000000 1.0
C      1  0.5030850000000  0.5704980000000  0.5363510000000 1.0
C      1  0.5297080000000  0.4744740000000  0.4504750000000 1.0
C      1  0.5083880000000  0.5556430000000  0.4582590000000 1.0
C      1  0.5628810000000  0.5255090000000  0.5025910000000 1.0
C      1  0.4915720000000  0.4964770000000  0.5047140000000 1.0
C      1  0.5253480000000  0.4526910000000  0.4983020000000 1.0
C      1  0.5214480000000  0.4895640000000  0.5655790000000 1.0
C      1  0.5186310000000  0.5589820000000  0.5119540000000 1.0
C      1  0.5421020000000  0.4809340000000  0.5007110000000 1.0
C      1  0.5270580000000  0.4530640000000  0.5324050000000 1.0
C      1  0.5267050000000  0.5280650000000  0.5191020000000 1.0
C      1  0.4423590000000  0.4588080000000  0.5193010000000 1.0
C      1  0.5478700000000  0.5227060000000  0.4782850000000 1.0
C      1  0.4812660000000  0.4790080000000  0.4798090000000 1.0
C      1  0.5012380000000  0.5572070000000  0.4868960000000 1.0
C      1  0.5689260000000  0.5701360000000  0.5270540000000 1.0
C      1  0.4765550000000  0.5429230000000  0.4912730000000 1.0
C      1  0.4839980000000  0.5548200000000  0.5483850000000 1.0
END
