TITL C-2847956-8218-307 0.00159473918471718 125000 -867.0212469215 0 0 164 (C1) n - 1
REM
REM in /home/bkarasulu/work/CARBON/AIRSS/Generating-Clusters/AIREBO/with-SteepDescent/Only-C1/SD-CG-opt/Try1-1.4A-POS3A/HFTN-CG
REM
REM
REM
REM
REM
REM ./C.cell (11c1c37f851c82e70ff6c80c92926a4b)
REM
REM compiler GCC version 9.2.1 20190827 (Red Hat 9.2.1-1)
REM options -cpp -mtune=generic -march=x86-64 -g -O0 -fpre-include=/usr/include/finclude/math-vector-fortran.h
REM seed -675243001 4682761 1414812928 1639070264 -1035939744 -265233671 -736176374 -1220995606 -1071116861 1825652023 431876666 -1204079810 1539622718 -999382187 -1288627420 -603537470 1745561022 1147482821 -247065264 1157915743 -1047494732 534869078 1202919015 -1551236910 204989946 1813718622 831419352 510175174 1335819437 -768425695 1582772835 -726106558 -1061074730
REM
CELL 1.54180   50.00000   50.00000   50.00000   90.00000   90.00000   90.00000
LATT -1
SFAC C  
C      1  0.4385440000000  0.4890170000000  0.5340790000000 1.0
C      1  0.4253430000000  0.5181910000000  0.5298060000000 1.0
C      1  0.4991590000000  0.4825030000000  0.4807620000000 1.0
C      1  0.4684560000000  0.4538040000000  0.5130000000000 1.0
C      1  0.5005820000000  0.4092390000000  0.4449290000000 1.0
C      1  0.4299100000000  0.4804300000000  0.4425520000000 1.0
C      1  0.5351710000000  0.5061320000000  0.5900050000000 1.0
C      1  0.4407450000000  0.5915190000000  0.4787280000000 1.0
C      1  0.5780530000000  0.4246390000000  0.4938290000000 1.0
C      1  0.5963470000000  0.4562510000000  0.5589070000000 1.0
C      1  0.5802910000000  0.5728630000000  0.4825780000000 1.0
C      1  0.5318880000000  0.4907330000000  0.4849680000000 1.0
C      1  0.5264670000000  0.4606160000000  0.4164750000000 1.0
C      1  0.6088270000000  0.4975280000000  0.5202180000000 1.0
C      1  0.5489390000000  0.4090590000000  0.4827700000000 1.0
C      1  0.4793400000000  0.5640670000000  0.5116470000000 1.0
C      1  0.3987650000000  0.4834480000000  0.5088510000000 1.0
C      1  0.4697770000000  0.5375620000000  0.4809830000000 1.0
C      1  0.4843430000000  0.4737940000000  0.4535240000000 1.0
C      1  0.4626550000000  0.5580920000000  0.4548300000000 1.0
C      1  0.5619140000000  0.5060970000000  0.4222010000000 1.0
C      1  0.4521940000000  0.4245170000000  0.5071180000000 1.0
C      1  0.5498470000000  0.4426740000000  0.4878710000000 1.0
C      1  0.5506540000000  0.5874990000000  0.4745990000000 1.0
C      1  0.6013550000000  0.5107050000000  0.4687530000000 1.0
C      1  0.5330710000000  0.5379750000000  0.5110650000000 1.0
C      1  0.5257520000000  0.5432000000000  0.4720400000000 1.0
C      1  0.4317680000000  0.4796270000000  0.4150200000000 1.0
C      1  0.5485720000000  0.5689290000000  0.5810110000000 1.0
C      1  0.4817610000000  0.5883800000000  0.5448130000000 1.0
C      1  0.4581110000000  0.4887420000000  0.5622410000000 1.0
C      1  0.4970820000000  0.4363520000000  0.5130050000000 1.0
C      1  0.4523410000000  0.4085800000000  0.4832450000000 1.0
C      1  0.5904350000000  0.5407210000000  0.4770140000000 1.0
C      1  0.5565830000000  0.4290160000000  0.4359900000000 1.0
C      1  0.5241130000000  0.4358060000000  0.4667360000000 1.0
C      1  0.5664540000000  0.5190960000000  0.5004500000000 1.0
C      1  0.3950130000000  0.4559160000000  0.4699870000000 1.0
C      1  0.4604710000000  0.4867360000000  0.4740120000000 1.0
C      1  0.4617940000000  0.5604350000000  0.5747310000000 1.0
C      1  0.5275990000000  0.5350010000000  0.5826380000000 1.0
C      1  0.5931800000000  0.4919370000000  0.4421350000000 1.0
C      1  0.4883160000000  0.4755210000000  0.5555950000000 1.0
C      1  0.5957410000000  0.5445820000000  0.5324800000000 1.0
C      1  0.5646940000000  0.4905170000000  0.4867730000000 1.0
C      1  0.5103860000000  0.5163570000000  0.4633950000000 1.0
C      1  0.4090430000000  0.4295380000000  0.4763790000000 1.0
C      1  0.5182040000000  0.4912900000000  0.4146320000000 1.0
C      1  0.5331330000000  0.4677160000000  0.4616180000000 1.0
C      1  0.4591940000000  0.4349130000000  0.5693820000000 1.0
C      1  0.4675950000000  0.4126870000000  0.4546750000000 1.0
C      1  0.5002220000000  0.5212870000000  0.6020460000000 1.0
C      1  0.4334670000000  0.5061230000000  0.4518200000000 1.0
C      1  0.5655520000000  0.5463280000000  0.4446390000000 1.0
C      1  0.4881780000000  0.6084510000000  0.4856530000000 1.0
C      1  0.5078530000000  0.4001190000000  0.5022670000000 1.0
C      1  0.5718260000000  0.4756620000000  0.4208440000000 1.0
C      1  0.4123600000000  0.4251030000000  0.5038420000000 1.0
C      1  0.4689810000000  0.5197800000000  0.5585450000000 1.0
C      1  0.5112900000000  0.4587960000000  0.4944390000000 1.0
C      1  0.4968090000000  0.4250110000000  0.4809360000000 1.0
C      1  0.5287080000000  0.4974590000000  0.4457410000000 1.0
C      1  0.4089810000000  0.5634260000000  0.5018060000000 1.0
C      1  0.5563070000000  0.5415500000000  0.4770160000000 1.0
C      1  0.5682620000000  0.4909630000000  0.5323630000000 1.0
C      1  0.4606590000000  0.4907800000000  0.4047740000000 1.0
C      1  0.5260410000000  0.4702480000000  0.5188180000000 1.0
C      1  0.4210300000000  0.4678790000000  0.4883700000000 1.0
C      1  0.4542150000000  0.5414110000000  0.5082310000000 1.0
C      1  0.5615210000000  0.4946850000000  0.4542290000000 1.0
C      1  0.5208560000000  0.5633980000000  0.4343780000000 1.0
C      1  0.5441970000000  0.4556790000000  0.5511140000000 1.0
C      1  0.5624120000000  0.4517700000000  0.4580690000000 1.0
C      1  0.4355940000000  0.5439510000000  0.5798590000000 1.0
C      1  0.5956480000000  0.5166740000000  0.5453380000000 1.0
C      1  0.5035620000000  0.4783610000000  0.3889300000000 1.0
C      1  0.5715380000000  0.5582930000000  0.5322830000000 1.0
C      1  0.4346200000000  0.4204010000000  0.4587000000000 1.0
C      1  0.5979340000000  0.5258440000000  0.5066310000000 1.0
C      1  0.5093580000000  0.5857280000000  0.5445770000000 1.0
C      1  0.5435120000000  0.4782070000000  0.6046900000000 1.0
C      1  0.4876780000000  0.4399770000000  0.4517550000000 1.0
C      1  0.4180400000000  0.4509250000000  0.5177090000000 1.0
C      1  0.5111330000000  0.4971610000000  0.5598900000000 1.0
C      1  0.5896350000000  0.4654860000000  0.4606240000000 1.0
C      1  0.4044870000000  0.5215620000000  0.4743060000000 1.0
C      1  0.5053710000000  0.5206930000000  0.4220560000000 1.0
C      1  0.4126890000000  0.4800580000000  0.5741130000000 1.0
C      1  0.5028140000000  0.5539350000000  0.5961770000000 1.0
C      1  0.5982870000000  0.4887500000000  0.4917610000000 1.0
C      1  0.4814390000000  0.4974670000000  0.4288990000000 1.0
C      1  0.5041130000000  0.5434320000000  0.5226990000000 1.0
C      1  0.4434840000000  0.5376060000000  0.5478400000000 1.0
C      1  0.5426030000000  0.4851020000000  0.5643310000000 1.0
C      1  0.5250520000000  0.5903380000000  0.4515790000000 1.0
C      1  0.5028560000000  0.4920440000000  0.5918080000000 1.0
C      1  0.4297020000000  0.5302960000000  0.4161220000000 1.0
C      1  0.5215180000000  0.6023750000000  0.5256020000000 1.0
C      1  0.4374100000000  0.4541460000000  0.4618860000000 1.0
C      1  0.5532900000000  0.4543140000000  0.4193480000000 1.0
C      1  0.4970330000000  0.5577950000000  0.4829270000000 1.0
C      1  0.4936000000000  0.6014390000000  0.4582210000000 1.0
C      1  0.4478590000000  0.4798180000000  0.5055380000000 1.0
C      1  0.5520610000000  0.5484960000000  0.5540520000000 1.0
C      1  0.4579180000000  0.4465510000000  0.4358370000000 1.0
C      1  0.4761830000000  0.5247210000000  0.5259890000000 1.0
C      1  0.5045810000000  0.6184430000000  0.5074080000000 1.0
C      1  0.4767960000000  0.5125640000000  0.4590290000000 1.0
C      1  0.5360710000000  0.4155150000000  0.5136000000000 1.0
C      1  0.4776950000000  0.5399290000000  0.4178740000000 1.0
C      1  0.4568940000000  0.5936920000000  0.5271210000000 1.0
C      1  0.4318060000000  0.4143230000000  0.5294140000000 1.0
C      1  0.5855900000000  0.4151730000000  0.5217340000000 1.0
C      1  0.4146300000000  0.5312690000000  0.4434190000000 1.0
C      1  0.4961610000000  0.5567910000000  0.4489530000000 1.0
C      1  0.5693900000000  0.4858540000000  0.5939200000000 1.0
C      1  0.4784240000000  0.4690800000000  0.3949300000000 1.0
C      1  0.4728370000000  0.5881490000000  0.4425710000000 1.0
C      1  0.4926570000000  0.4739780000000  0.5258180000000 1.0
C      1  0.5597370000000  0.4365580000000  0.5273100000000 1.0
C      1  0.4021560000000  0.4892790000000  0.4698380000000 1.0
C      1  0.5084090000000  0.5247300000000  0.5494220000000 1.0
C      1  0.5179790000000  0.5819870000000  0.4830930000000 1.0
C      1  0.5058970000000  0.4434330000000  0.4232470000000 1.0
C      1  0.4322760000000  0.5078530000000  0.3998350000000 1.0
C      1  0.4645740000000  0.4536860000000  0.4808630000000 1.0
C      1  0.4837300000000  0.4075100000000  0.5250960000000 1.0
C      1  0.4784130000000  0.4483530000000  0.4137960000000 1.0
C      1  0.5545220000000  0.5221250000000  0.5321520000000 1.0
C      1  0.5976230000000  0.4774340000000  0.5429240000000 1.0
C      1  0.4146790000000  0.5530050000000  0.4767560000000 1.0
C      1  0.4322580000000  0.4358740000000  0.5525400000000 1.0
C      1  0.5150650000000  0.5148980000000  0.4970580000000 1.0
C      1  0.5220450000000  0.4635370000000  0.6121720000000 1.0
C      1  0.5741480000000  0.4410320000000  0.5577870000000 1.0
C      1  0.4369280000000  0.5682010000000  0.5201440000000 1.0
C      1  0.4899900000000  0.4456190000000  0.5702680000000 1.0
C      1  0.4727580000000  0.5331770000000  0.5898390000000 1.0
C      1  0.5588770000000  0.4663320000000  0.5108580000000 1.0
C      1  0.4548970000000  0.5291410000000  0.4387770000000 1.0
C      1  0.4658910000000  0.5917320000000  0.4970090000000 1.0
C      1  0.4729930000000  0.5681160000000  0.4175560000000 1.0
C      1  0.5279970000000  0.5725220000000  0.5961870000000 1.0
C      1  0.4892220000000  0.5005590000000  0.5087680000000 1.0
C      1  0.5566260000000  0.5616180000000  0.5044860000000 1.0
C      1  0.4626360000000  0.4128380000000  0.5436850000000 1.0
C      1  0.5194150000000  0.5559780000000  0.5571370000000 1.0
C      1  0.5211760000000  0.4350230000000  0.5369710000000 1.0
C      1  0.4600010000000  0.4645360000000  0.5860570000000 1.0
C      1  0.5387970000000  0.5885510000000  0.5064470000000 1.0
C      1  0.4039860000000  0.5113880000000  0.5067490000000 1.0
C      1  0.4681610000000  0.5597010000000  0.5434800000000 1.0
C      1  0.5538850000000  0.5325870000000  0.4227530000000 1.0
C      1  0.5731090000000  0.5001800000000  0.5647310000000 1.0
C      1  0.5341250000000  0.4091730000000  0.4516080000000 1.0
C      1  0.4397280000000  0.5201570000000  0.5960220000000 1.0
C      1  0.4919840000000  0.4639770000000  0.5976970000000 1.0
C      1  0.4197670000000  0.4646110000000  0.5470230000000 1.0
C      1  0.4346440000000  0.5682240000000  0.4650790000000 1.0
C      1  0.5278420000000  0.5420110000000  0.4174090000000 1.0
C      1  0.5092030000000  0.4275060000000  0.5619570000000 1.0
C      1  0.4332110000000  0.4965740000000  0.5829530000000 1.0
C      1  0.4109150000000  0.5479320000000  0.5286040000000 1.0
C      1  0.5864710000000  0.4575710000000  0.4930060000000 1.0
END
