TITL C-2848504-8560-55 -69.642704077613 125000 -110.726542036276 0 0 20 (C1) n - 1
REM
REM in /home/bkarasulu/work/CARBON/AIRSS/Generating-Clusters/AIREBO/with-SteepDescent/Only-C1/SD-CG-opt/Try1-1.4A-POS3A/HFTN-CG
REM
REM
REM
REM
REM
REM ./C.cell (11c1c37f851c82e70ff6c80c92926a4b)
REM
REM compiler GCC version 9.2.1 20190827 (Red Hat 9.2.1-1)
REM options -cpp -mtune=generic -march=x86-64 -g -O0 -fpre-include=/usr/include/finclude/math-vector-fortran.h
REM seed -1149856867 -220709950 953531118 -2002428633 995639632 1336027639 -626731413 -2091950220 1382516823 -1317210434 -298814100 -411839379 -1067320416 -1490801730 -1463510217 -1953281532 -848306580 422052870 836981738 -986463024 231303921 -1791401399 978592706 -2001421348 1565501293 -889824262 616220886 -418332773 1644096339 -546488031 701735310 1790808589 -1980072623
REM
CELL 1.54180   50.00000   50.00000   50.00000   90.00000   90.00000   90.00000
LATT -1
SFAC C  
C      1  0.4269070000000  0.4451320000000  0.4623610000000 1.0
C      1  0.4435300000000  0.4550430000000  0.4440560000000 1.0
C      1  0.5292810000000  0.5222230000000  0.5037620000000 1.0
C      1  0.3946410000000  0.4283810000000  0.5006350000000 1.0
C      1  0.5524150000000  0.5379990000000  0.6273870000000 1.0
C      1  0.4098730000000  0.4377030000000  0.4814480000000 1.0
C      1  0.5263110000000  0.5175860000000  0.4777000000000 1.0
C      1  0.5358520000000  0.5295860000000  0.5837540000000 1.0
C      1  0.4616270000000  0.4544910000000  0.4000890000000 1.0
C      1  0.5489360000000  0.5441880000000  0.4148600000000 1.0
C      1  0.5336210000000  0.5281300000000  0.5564660000000 1.0
C      1  0.4819910000000  0.4814230000000  0.4335620000000 1.0
C      1  0.5155300000000  0.5229770000000  0.6039620000000 1.0
C      1  0.5258260000000  0.5281560000000  0.6300840000000 1.0
C      1  0.5213330000000  0.5147630000000  0.4505660000000 1.0
C      1  0.5587910000000  0.5389920000000  0.5995750000000 1.0
C      1  0.4625480000000  0.4632980000000  0.4256220000000 1.0
C      1  0.5323860000000  0.5242490000000  0.5301410000000 1.0
C      1  0.5364500000000  0.5289380000000  0.4321390000000 1.0
C      1  0.5021510000000  0.4967410000000  0.4418330000000 1.0
END
