TITL C-2847954-6904-455 0.00186663979268955 125000 -906.822736016089 0 0 173 (C1) n - 1
REM
REM in /home/bkarasulu/work/CARBON/AIRSS/Generating-Clusters/AIREBO/with-SteepDescent/Only-C1/SD-CG-opt/Try1-1.4A-POS3A/HFTN-CG
REM
REM
REM
REM
REM
REM ./C.cell (11c1c37f851c82e70ff6c80c92926a4b)
REM
REM compiler GCC version 9.2.1 20190827 (Red Hat 9.2.1-1)
REM options -cpp -mtune=generic -march=x86-64 -g -O0 -fpre-include=/usr/include/finclude/math-vector-fortran.h
REM seed -747194042 1755092763 -299955897 2058680117 1240800277 -96610906 -68907197 152192406 -1093646917 753136762 -1764036451 1194071148 377440148 924366608 1058105108 -549297843 -1080253394 964579719 528137168 232062328 -635619118 1268311858 1105740488 -77590682 -2109992364 11492192 188908233 -274946825 1400100660 -710215826 1384076348 -1378397169 -267609603
REM
CELL 1.54180   50.00000   50.00000   50.00000   90.00000   90.00000   90.00000
LATT -1
SFAC C  
C      1  0.4849050000000  0.5618610000000  0.4650000000000 1.0
C      1  0.5920270000000  0.5089330000000  0.4843870000000 1.0
C      1  0.4823640000000  0.4638800000000  0.6062480000000 1.0
C      1  0.5427960000000  0.4646740000000  0.4348490000000 1.0
C      1  0.5735940000000  0.3952940000000  0.5058340000000 1.0
C      1  0.5610310000000  0.4148720000000  0.4655910000000 1.0
C      1  0.5041480000000  0.5324720000000  0.3915240000000 1.0
C      1  0.6068660000000  0.5019100000000  0.5206030000000 1.0
C      1  0.4475040000000  0.5597220000000  0.5361570000000 1.0
C      1  0.5311220000000  0.4796640000000  0.5324490000000 1.0
C      1  0.4606160000000  0.5549990000000  0.5735060000000 1.0
C      1  0.4654390000000  0.4746250000000  0.5787770000000 1.0
C      1  0.5806710000000  0.5619740000000  0.5315690000000 1.0
C      1  0.5342290000000  0.4643160000000  0.5895010000000 1.0
C      1  0.5411780000000  0.4595930000000  0.3952560000000 1.0
C      1  0.5063630000000  0.4214550000000  0.4247960000000 1.0
C      1  0.4615270000000  0.5841890000000  0.5551550000000 1.0
C      1  0.5647420000000  0.4258740000000  0.5148070000000 1.0
C      1  0.4508330000000  0.5031660000000  0.4060950000000 1.0
C      1  0.4644390000000  0.5755680000000  0.4235420000000 1.0
C      1  0.5327000000000  0.4261670000000  0.5196830000000 1.0
C      1  0.5677250000000  0.4747400000000  0.4569700000000 1.0
C      1  0.5680390000000  0.5015190000000  0.5673710000000 1.0
C      1  0.5740520000000  0.4327860000000  0.4829910000000 1.0
C      1  0.4284800000000  0.4180790000000  0.4716670000000 1.0
C      1  0.4470510000000  0.4663010000000  0.5442750000000 1.0
C      1  0.4139140000000  0.4874440000000  0.4434440000000 1.0
C      1  0.5218820000000  0.5739770000000  0.5040190000000 1.0
C      1  0.4990470000000  0.4880670000000  0.5249160000000 1.0
C      1  0.6080010000000  0.5324550000000  0.4656660000000 1.0
C      1  0.4853250000000  0.5004990000000  0.6072210000000 1.0
C      1  0.4629130000000  0.4236670000000  0.5695530000000 1.0
C      1  0.5986700000000  0.4814520000000  0.4693960000000 1.0
C      1  0.4307720000000  0.4513320000000  0.4718430000000 1.0
C      1  0.4587640000000  0.5227340000000  0.4977180000000 1.0
C      1  0.5240750000000  0.4513180000000  0.4578640000000 1.0
C      1  0.4991160000000  0.6387770000000  0.5167840000000 1.0
C      1  0.5251100000000  0.5425940000000  0.4913360000000 1.0
C      1  0.4470720000000  0.4467890000000  0.5721230000000 1.0
C      1  0.4804020000000  0.5765360000000  0.5053620000000 1.0
C      1  0.4152580000000  0.5390380000000  0.5815410000000 1.0
C      1  0.4569620000000  0.5061880000000  0.6032460000000 1.0
C      1  0.4631190000000  0.4435640000000  0.4732640000000 1.0
C      1  0.5117570000000  0.4094030000000  0.5000130000000 1.0
C      1  0.4494660000000  0.4252100000000  0.4293180000000 1.0
C      1  0.5629230000000  0.4764750000000  0.4101090000000 1.0
C      1  0.5144990000000  0.4044580000000  0.4520870000000 1.0
C      1  0.4441770000000  0.4775330000000  0.3958450000000 1.0
C      1  0.5677470000000  0.3899240000000  0.4788540000000 1.0
C      1  0.5263520000000  0.5372370000000  0.5249700000000 1.0
C      1  0.4148360000000  0.5657350000000  0.5288510000000 1.0
C      1  0.5143900000000  0.4367950000000  0.5919400000000 1.0
C      1  0.5115720000000  0.5804030000000  0.4634150000000 1.0
C      1  0.5664040000000  0.4434780000000  0.5594560000000 1.0
C      1  0.4368990000000  0.4520070000000  0.4171090000000 1.0
C      1  0.4152910000000  0.4566020000000  0.5016570000000 1.0
C      1  0.4685440000000  0.6155730000000  0.5464090000000 1.0
C      1  0.3852440000000  0.4525400000000  0.5014420000000 1.0
C      1  0.4446200000000  0.4213980000000  0.5193530000000 1.0
C      1  0.5487060000000  0.5577810000000  0.5402920000000 1.0
C      1  0.3878580000000  0.5162540000000  0.4841550000000 1.0
C      1  0.4375330000000  0.5035960000000  0.4350030000000 1.0
C      1  0.5065590000000  0.4406350000000  0.4936250000000 1.0
C      1  0.4597960000000  0.5949940000000  0.5223890000000 1.0
C      1  0.4996830000000  0.5464280000000  0.6013460000000 1.0
C      1  0.5297550000000  0.5992210000000  0.5037290000000 1.0
C      1  0.5356700000000  0.4230300000000  0.4576480000000 1.0
C      1  0.4591270000000  0.5765950000000  0.4541460000000 1.0
C      1  0.5381190000000  0.5628330000000  0.4694220000000 1.0
C      1  0.4735200000000  0.4002280000000  0.5533980000000 1.0
C      1  0.4911080000000  0.5259190000000  0.5039220000000 1.0
C      1  0.5242110000000  0.5322470000000  0.5585530000000 1.0
C      1  0.4778110000000  0.4820290000000  0.4703340000000 1.0
C      1  0.4797920000000  0.4570180000000  0.5459640000000 1.0
C      1  0.5192390000000  0.4084050000000  0.5836450000000 1.0
C      1  0.6048860000000  0.5055540000000  0.4468880000000 1.0
C      1  0.4337760000000  0.5128620000000  0.4780210000000 1.0
C      1  0.4602870000000  0.4999770000000  0.5229830000000 1.0
C      1  0.4781900000000  0.4782100000000  0.5039560000000 1.0
C      1  0.5215130000000  0.5102580000000  0.5828740000000 1.0
C      1  0.4471830000000  0.5301950000000  0.4520220000000 1.0
C      1  0.4289540000000  0.4431730000000  0.5271340000000 1.0
C      1  0.5431330000000  0.5207180000000  0.4334320000000 1.0
C      1  0.4786650000000  0.4484130000000  0.4992230000000 1.0
C      1  0.5621410000000  0.4695990000000  0.4901130000000 1.0
C      1  0.5063470000000  0.3964360000000  0.5559210000000 1.0
C      1  0.4958990000000  0.4504460000000  0.4088340000000 1.0
C      1  0.5759830000000  0.4500410000000  0.5329590000000 1.0
C      1  0.5106320000000  0.4669550000000  0.5564340000000 1.0
C      1  0.5211460000000  0.4258970000000  0.5477510000000 1.0
C      1  0.3929860000000  0.5614720000000  0.4809610000000 1.0
C      1  0.5346520000000  0.5067970000000  0.5122590000000 1.0
C      1  0.4996360000000  0.5253020000000  0.6151540000000 1.0
C      1  0.4462880000000  0.6011890000000  0.4947200000000 1.0
C      1  0.5252440000000  0.5794800000000  0.4353680000000 1.0
C      1  0.5686090000000  0.5326440000000  0.4616510000000 1.0
C      1  0.4323050000000  0.4814680000000  0.5174190000000 1.0
C      1  0.5613240000000  0.5065710000000  0.4106170000000 1.0
C      1  0.5896620000000  0.5349180000000  0.4371340000000 1.0
C      1  0.5194390000000  0.4884440000000  0.4280130000000 1.0
C      1  0.4760640000000  0.5415560000000  0.5396100000000 1.0
C      1  0.5437010000000  0.5100860000000  0.6073200000000 1.0
C      1  0.5612430000000  0.5309440000000  0.4948010000000 1.0
C      1  0.4350120000000  0.4071620000000  0.4969960000000 1.0
C      1  0.4990430000000  0.5179080000000  0.5313190000000 1.0
C      1  0.4986230000000  0.5059520000000  0.4704100000000 1.0
C      1  0.5883600000000  0.5009850000000  0.5426240000000 1.0
C      1  0.5704530000000  0.5838150000000  0.4558310000000 1.0
C      1  0.4541760000000  0.5560050000000  0.5030140000000 1.0
C      1  0.4278600000000  0.5169050000000  0.5923080000000 1.0
C      1  0.4540340000000  0.5247480000000  0.5593290000000 1.0
C      1  0.5577910000000  0.5304930000000  0.5623140000000 1.0
C      1  0.4670270000000  0.4859520000000  0.4383250000000 1.0
C      1  0.4005740000000  0.4944630000000  0.4655340000000 1.0
C      1  0.4115970000000  0.4961550000000  0.4978900000000 1.0
C      1  0.5515790000000  0.5039720000000  0.4617950000000 1.0
C      1  0.5051080000000  0.5117580000000  0.4404450000000 1.0
C      1  0.4352050000000  0.4839960000000  0.5911920000000 1.0
C      1  0.4681000000000  0.4599160000000  0.4225480000000 1.0
C      1  0.4660160000000  0.6005090000000  0.4739990000000 1.0
C      1  0.5148280000000  0.4704200000000  0.4045530000000 1.0
C      1  0.4740750000000  0.5188980000000  0.4344760000000 1.0
C      1  0.6103410000000  0.4784770000000  0.5017950000000 1.0
C      1  0.5332530000000  0.5793890000000  0.5557460000000 1.0
C      1  0.5608930000000  0.5484490000000  0.4249490000000 1.0
C      1  0.5061320000000  0.3922240000000  0.4755530000000 1.0
C      1  0.5855340000000  0.4635940000000  0.4302370000000 1.0
C      1  0.4373470000000  0.4950740000000  0.5596650000000 1.0
C      1  0.4391160000000  0.5561280000000  0.4725120000000 1.0
C      1  0.4805170000000  0.5335700000000  0.4735880000000 1.0
C      1  0.4188670000000  0.5392050000000  0.5173490000000 1.0
C      1  0.5331100000000  0.4371600000000  0.4167580000000 1.0
C      1  0.4197410000000  0.4599050000000  0.4417260000000 1.0
C      1  0.4948860000000  0.5962570000000  0.4844280000000 1.0
C      1  0.5701050000000  0.5607200000000  0.4807840000000 1.0
C      1  0.4784560000000  0.4317230000000  0.4385450000000 1.0
C      1  0.4959080000000  0.3670250000000  0.4780530000000 1.0
C      1  0.5382280000000  0.4479070000000  0.5621300000000 1.0
C      1  0.5237350000000  0.5342740000000  0.4578680000000 1.0
C      1  0.5097190000000  0.6203740000000  0.4991740000000 1.0
C      1  0.4907220000000  0.5141080000000  0.5700590000000 1.0
C      1  0.4939150000000  0.5478920000000  0.5678670000000 1.0
C      1  0.6051920000000  0.5306010000000  0.5055430000000 1.0
C      1  0.4343080000000  0.4092270000000  0.4454010000000 1.0
C      1  0.5907810000000  0.5548510000000  0.5071430000000 1.0
C      1  0.5823890000000  0.5510350000000  0.5594880000000 1.0
C      1  0.5091170000000  0.5774950000000  0.5627720000000 1.0
C      1  0.4735020000000  0.5284000000000  0.4036750000000 1.0
C      1  0.4131340000000  0.5384910000000  0.4866010000000 1.0
C      1  0.4835930000000  0.5593880000000  0.4126840000000 1.0
C      1  0.5047200000000  0.4810100000000  0.5871970000000 1.0
C      1  0.5266510000000  0.4980930000000  0.4819440000000 1.0
C      1  0.4728410000000  0.4318220000000  0.5241720000000 1.0
C      1  0.4449630000000  0.4821170000000  0.4744930000000 1.0
C      1  0.4258340000000  0.5845360000000  0.4856770000000 1.0
C      1  0.5228360000000  0.4672540000000  0.4842330000000 1.0
C      1  0.4291380000000  0.5551590000000  0.5644340000000 1.0
C      1  0.5891130000000  0.4551990000000  0.5031490000000 1.0
C      1  0.4356290000000  0.5220350000000  0.5308620000000 1.0
C      1  0.5004290000000  0.5592140000000  0.5237800000000 1.0
C      1  0.5390950000000  0.4561030000000  0.5097670000000 1.0
C      1  0.4922310000000  0.4534870000000  0.4587660000000 1.0
C      1  0.4930810000000  0.4327040000000  0.5657090000000 1.0
C      1  0.4062700000000  0.4988570000000  0.5558820000000 1.0
C      1  0.5109270000000  0.5636280000000  0.4168320000000 1.0
C      1  0.5301750000000  0.5402330000000  0.4087810000000 1.0
C      1  0.4928730000000  0.4074260000000  0.5263800000000 1.0
C      1  0.5671800000000  0.4994490000000  0.5055960000000 1.0
C      1  0.5535870000000  0.5761580000000  0.4351030000000 1.0
C      1  0.5547770000000  0.4891190000000  0.5894020000000 1.0
C      1  0.4778530000000  0.4905650000000  0.5513940000000 1.0
C      1  0.4844570000000  0.6357320000000  0.5397980000000 1.0
C      1  0.5654040000000  0.4805020000000  0.5337800000000 1.0
END
