TITL C-2847950-6905-692 1.20164778612778e-05 125000 -818.347385378448 0 0 149 (C1) n - 1
REM
REM in /home/bkarasulu/work/CARBON/AIRSS/Generating-Clusters/AIREBO/with-SteepDescent/Only-C1/SD-CG-opt/Try1-1.4A-POS3A/HFTN-CG
REM
REM
REM
REM
REM
REM ./C.cell (11c1c37f851c82e70ff6c80c92926a4b)
REM
REM compiler GCC version 9.2.1 20190827 (Red Hat 9.2.1-1)
REM options -cpp -mtune=generic -march=x86-64 -g -O0 -fpre-include=/usr/include/finclude/math-vector-fortran.h
REM seed 612679927 -12376424 -244448475 8240506 1985905713 1950629185 -1982684756 1985435433 282699282 -553158290 872288499 2059918460 -1450576457 302963911 -454264301 267357549 127354206 1916179955 -995353135 311120930 1717142122 -2102742667 2062020487 -2066860314 -1990422695 -1417628512 1568092173 260227910 -163230918 -108734682 342970248 494000504 1906863412
REM
CELL 1.54180   50.00000   50.00000   50.00000   90.00000   90.00000   90.00000
LATT -1
SFAC C  
C      1  0.4921620000000  0.4020030000000  0.5032860000000 1.0
C      1  0.4249590000000  0.4468620000000  0.4589870000000 1.0
C      1  0.5170870000000  0.5753100000000  0.4376580000000 1.0
C      1  0.6078420000000  0.4545720000000  0.5117710000000 1.0
C      1  0.4227600000000  0.4353660000000  0.5165010000000 1.0
C      1  0.5859150000000  0.4611480000000  0.4628230000000 1.0
C      1  0.5035190000000  0.5554310000000  0.4912300000000 1.0
C      1  0.4993050000000  0.4846010000000  0.5897330000000 1.0
C      1  0.4567250000000  0.4430400000000  0.5429250000000 1.0
C      1  0.5889270000000  0.5559990000000  0.4897650000000 1.0
C      1  0.4810140000000  0.5580610000000  0.4416330000000 1.0
C      1  0.5469630000000  0.5170180000000  0.5059510000000 1.0
C      1  0.4407910000000  0.5658830000000  0.4714850000000 1.0
C      1  0.5381910000000  0.4525490000000  0.3978610000000 1.0
C      1  0.4593480000000  0.5609580000000  0.5088040000000 1.0
C      1  0.4727990000000  0.5289990000000  0.4569900000000 1.0
C      1  0.4036520000000  0.5523660000000  0.5009700000000 1.0
C      1  0.4929630000000  0.4393290000000  0.4655970000000 1.0
C      1  0.5844530000000  0.5277670000000  0.5441050000000 1.0
C      1  0.4716030000000  0.4469500000000  0.5851200000000 1.0
C      1  0.4431050000000  0.4813170000000  0.4922540000000 1.0
C      1  0.4785450000000  0.4993140000000  0.5734310000000 1.0
C      1  0.5747110000000  0.4423940000000  0.4807150000000 1.0
C      1  0.3947320000000  0.4985360000000  0.4809560000000 1.0
C      1  0.4806260000000  0.3972580000000  0.4779580000000 1.0
C      1  0.5726130000000  0.4521260000000  0.5549070000000 1.0
C      1  0.4481570000000  0.5365530000000  0.4348030000000 1.0
C      1  0.5192350000000  0.4165730000000  0.5022360000000 1.0
C      1  0.4798100000000  0.5346950000000  0.5912150000000 1.0
C      1  0.4450980000000  0.4884150000000  0.4450580000000 1.0
C      1  0.4689590000000  0.4936940000000  0.3741160000000 1.0
C      1  0.5385120000000  0.5009940000000  0.5332430000000 1.0
C      1  0.4530250000000  0.5052840000000  0.4712260000000 1.0
C      1  0.4571800000000  0.5862600000000  0.5412000000000 1.0
C      1  0.4039150000000  0.5229450000000  0.4591270000000 1.0
C      1  0.4318910000000  0.4134130000000  0.5343120000000 1.0
C      1  0.5293730000000  0.4512980000000  0.4499070000000 1.0
C      1  0.5394330000000  0.4933810000000  0.4853780000000 1.0
C      1  0.4789580000000  0.5591360000000  0.5709700000000 1.0
C      1  0.5034030000000  0.3921570000000  0.4607630000000 1.0
C      1  0.5659380000000  0.5022420000000  0.4312070000000 1.0
C      1  0.4857070000000  0.4264540000000  0.5213490000000 1.0
C      1  0.5488670000000  0.5724180000000  0.4300060000000 1.0
C      1  0.5853110000000  0.5496890000000  0.5223680000000 1.0
C      1  0.5671510000000  0.4866980000000  0.5216410000000 1.0
C      1  0.4075850000000  0.5145640000000  0.5131900000000 1.0
C      1  0.4990850000000  0.6079030000000  0.5197240000000 1.0
C      1  0.5381070000000  0.4269580000000  0.5266620000000 1.0
C      1  0.5538320000000  0.4365480000000  0.5711020000000 1.0
C      1  0.4511050000000  0.4546350000000  0.4437140000000 1.0
C      1  0.5838810000000  0.4950410000000  0.4592120000000 1.0
C      1  0.4477440000000  0.5286260000000  0.4109820000000 1.0
C      1  0.5271140000000  0.5162990000000  0.5614660000000 1.0
C      1  0.5599420000000  0.5676330000000  0.5146650000000 1.0
C      1  0.4878180000000  0.5859210000000  0.4284470000000 1.0
C      1  0.5122370000000  0.5873750000000  0.4690940000000 1.0
C      1  0.4640040000000  0.4228100000000  0.4660330000000 1.0
C      1  0.5421720000000  0.4608360000000  0.4948380000000 1.0
C      1  0.4576340000000  0.5143720000000  0.5932510000000 1.0
C      1  0.4128920000000  0.5521670000000  0.4742050000000 1.0
C      1  0.4956310000000  0.5088510000000  0.4983970000000 1.0
C      1  0.4613310000000  0.4434590000000  0.5110470000000 1.0
C      1  0.4051080000000  0.4654200000000  0.4519870000000 1.0
C      1  0.5232240000000  0.4972270000000  0.5874200000000 1.0
C      1  0.5383560000000  0.5445350000000  0.5065840000000 1.0
C      1  0.4848250000000  0.5962190000000  0.5416050000000 1.0
C      1  0.5124500000000  0.5485510000000  0.5234940000000 1.0
C      1  0.3760930000000  0.4766040000000  0.5577930000000 1.0
C      1  0.4502020000000  0.5657700000000  0.5604370000000 1.0
C      1  0.4027900000000  0.4791660000000  0.5502290000000 1.0
C      1  0.4443350000000  0.4578760000000  0.5703010000000 1.0
C      1  0.5429480000000  0.5576070000000  0.5962770000000 1.0
C      1  0.4147880000000  0.4827430000000  0.5035110000000 1.0
C      1  0.4692230000000  0.4717230000000  0.5054880000000 1.0
C      1  0.4680230000000  0.4841640000000  0.4227570000000 1.0
C      1  0.5816770000000  0.4440520000000  0.5075360000000 1.0
C      1  0.5267300000000  0.4891090000000  0.4032360000000 1.0
C      1  0.5111110000000  0.4478450000000  0.4916310000000 1.0
C      1  0.4991170000000  0.5791700000000  0.5595820000000 1.0
C      1  0.4859370000000  0.4911400000000  0.5426550000000 1.0
C      1  0.4562800000000  0.5155230000000  0.5533870000000 1.0
C      1  0.5663360000000  0.5234000000000  0.5646290000000 1.0
C      1  0.5661140000000  0.4641060000000  0.4418020000000 1.0
C      1  0.4929820000000  0.4400160000000  0.4171010000000 1.0
C      1  0.4971130000000  0.4788120000000  0.4928290000000 1.0
C      1  0.6130160000000  0.5365230000000  0.4968730000000 1.0
C      1  0.5176300000000  0.4161290000000  0.4624370000000 1.0
C      1  0.5181260000000  0.6020810000000  0.4991940000000 1.0
C      1  0.5649770000000  0.5512960000000  0.4472190000000 1.0
C      1  0.6121530000000  0.4808670000000  0.5030370000000 1.0
C      1  0.5237500000000  0.5645820000000  0.5489750000000 1.0
C      1  0.5231070000000  0.4399050000000  0.4229970000000 1.0
C      1  0.5020320000000  0.5271610000000  0.4746810000000 1.0
C      1  0.5343380000000  0.5678840000000  0.4839360000000 1.0
C      1  0.5105300000000  0.4476090000000  0.5256270000000 1.0
C      1  0.4923940000000  0.4255410000000  0.5541080000000 1.0
C      1  0.4139660000000  0.4924700000000  0.4476750000000 1.0
C      1  0.4263530000000  0.4802550000000  0.5732080000000 1.0
C      1  0.5440690000000  0.5262280000000  0.4413470000000 1.0
C      1  0.5199220000000  0.4400740000000  0.5679170000000 1.0
C      1  0.4656130000000  0.5129030000000  0.5018780000000 1.0
C      1  0.5685800000000  0.4963260000000  0.5739840000000 1.0
C      1  0.4612970000000  0.5346950000000  0.5256710000000 1.0
C      1  0.4993740000000  0.4564740000000  0.5885370000000 1.0
C      1  0.5210470000000  0.5443520000000  0.4240920000000 1.0
C      1  0.4130020000000  0.5411990000000  0.5323750000000 1.0
C      1  0.4113420000000  0.4615640000000  0.5244050000000 1.0
C      1  0.4718130000000  0.5116510000000  0.4028540000000 1.0
C      1  0.5952770000000  0.4999460000000  0.5337150000000 1.0
C      1  0.5539480000000  0.4048570000000  0.5398370000000 1.0
C      1  0.4187670000000  0.5088990000000  0.5565330000000 1.0
C      1  0.5434440000000  0.5970290000000  0.5097230000000 1.0
C      1  0.5351510000000  0.4654510000000  0.5512690000000 1.0
C      1  0.5062900000000  0.4645060000000  0.3971260000000 1.0
C      1  0.3818250000000  0.5360890000000  0.5198050000000 1.0
C      1  0.5526900000000  0.4772430000000  0.4161930000000 1.0
C      1  0.4925510000000  0.5220360000000  0.5300680000000 1.0
C      1  0.5848700000000  0.4940770000000  0.4924750000000 1.0
C      1  0.5839020000000  0.5260400000000  0.4448250000000 1.0
C      1  0.5770560000000  0.5215880000000  0.5054900000000 1.0
C      1  0.4713030000000  0.4311680000000  0.4333900000000 1.0
C      1  0.5410040000000  0.5448700000000  0.5685640000000 1.0
C      1  0.6159270000000  0.5116200000000  0.5103460000000 1.0
C      1  0.4978260000000  0.5322920000000  0.5620590000000 1.0
C      1  0.5281020000000  0.5169580000000  0.4653470000000 1.0
C      1  0.5858420000000  0.4788430000000  0.5585370000000 1.0
C      1  0.4394460000000  0.4338420000000  0.4868630000000 1.0
C      1  0.4347130000000  0.5008630000000  0.5967080000000 1.0
C      1  0.4568310000000  0.4949950000000  0.5269600000000 1.0
C      1  0.4824890000000  0.5981130000000  0.4815970000000 1.0
C      1  0.5133470000000  0.4794200000000  0.5325940000000 1.0
C      1  0.5449470000000  0.5840950000000  0.5387160000000 1.0
C      1  0.5408670000000  0.4811480000000  0.4541000000000 1.0
C      1  0.4961140000000  0.5276970000000  0.4080530000000 1.0
C      1  0.5091520000000  0.4754500000000  0.4627930000000 1.0
C      1  0.5441260000000  0.4342150000000  0.4737210000000 1.0
C      1  0.4616620000000  0.4116400000000  0.5493970000000 1.0
C      1  0.5244950000000  0.5163070000000  0.4045280000000 1.0
C      1  0.5443790000000  0.4829230000000  0.5751070000000 1.0
C      1  0.4715320000000  0.5525480000000  0.4800690000000 1.0
C      1  0.4628940000000  0.5812340000000  0.4511260000000 1.0
C      1  0.4581350000000  0.5884110000000  0.4901380000000 1.0
C      1  0.5651950000000  0.5603510000000  0.4756010000000 1.0
C      1  0.4826840000000  0.4665350000000  0.4478630000000 1.0
C      1  0.4779710000000  0.4624680000000  0.5555050000000 1.0
C      1  0.4341190000000  0.5391970000000  0.5544470000000 1.0
C      1  0.4773380000000  0.4732340000000  0.3944160000000 1.0
C      1  0.5556000000000  0.4561080000000  0.5257330000000 1.0
C      1  0.4246500000000  0.5156960000000  0.4837970000000 1.0
END
