TITL C-2848503-6230-573 0.000675256047210448 125000 -800.688875297853 0 0 154 (C1) n - 1
REM
REM in /home/bkarasulu/work/CARBON/AIRSS/Generating-Clusters/AIREBO/with-SteepDescent/Only-C1/SD-CG-opt/Try1-1.4A-POS3A/HFTN-CG
REM
REM
REM
REM
REM
REM ./C.cell (11c1c37f851c82e70ff6c80c92926a4b)
REM
REM compiler GCC version 9.2.1 20190827 (Red Hat 9.2.1-1)
REM options -cpp -mtune=generic -march=x86-64 -g -O0 -fpre-include=/usr/include/finclude/math-vector-fortran.h
REM seed -471045156 -389660597 -664322256 -570475226 2064821092 1325071618 994073920 -162754114 1507826495 1466332049 -1184007404 -2128198893 498003546 -638967953 1479666010 -1555199826 1736714965 429219107 2134993440 285966738 -1176220994 -1185664621 1082783791 -1647241088 1883321360 -258858810 56870419 1899524436 982785172 706711513 -376508616 -921454876 -722035377
REM
CELL 1.54180   50.00000   50.00000   50.00000   90.00000   90.00000   90.00000
LATT -1
SFAC C  
C      1  0.4945200000000  0.5007630000000  0.5027300000000 1.0
C      1  0.4923670000000  0.5326690000000  0.4109280000000 1.0
C      1  0.4631760000000  0.4456690000000  0.4616910000000 1.0
C      1  0.4611150000000  0.5557140000000  0.4820720000000 1.0
C      1  0.5269800000000  0.4286340000000  0.5209890000000 1.0
C      1  0.5442400000000  0.4946520000000  0.6045720000000 1.0
C      1  0.4596260000000  0.4180460000000  0.4812020000000 1.0
C      1  0.4915600000000  0.5077340000000  0.4405120000000 1.0
C      1  0.5147120000000  0.6048140000000  0.4869540000000 1.0
C      1  0.3963740000000  0.5235100000000  0.4787280000000 1.0
C      1  0.4804970000000  0.5008510000000  0.4091080000000 1.0
C      1  0.4441550000000  0.5798040000000  0.4482260000000 1.0
C      1  0.4169010000000  0.4920500000000  0.4902240000000 1.0
C      1  0.5263420000000  0.5727780000000  0.5213450000000 1.0
C      1  0.5869040000000  0.5231070000000  0.5079000000000 1.0
C      1  0.4470750000000  0.4885900000000  0.4978420000000 1.0
C      1  0.4961920000000  0.4280510000000  0.5294910000000 1.0
C      1  0.4831000000000  0.4877130000000  0.5589690000000 1.0
C      1  0.5790730000000  0.5275720000000  0.5627170000000 1.0
C      1  0.5705150000000  0.4509100000000  0.5003290000000 1.0
C      1  0.5018890000000  0.5191850000000  0.5303790000000 1.0
C      1  0.4786380000000  0.5444360000000  0.4480570000000 1.0
C      1  0.5021080000000  0.5916320000000  0.5301650000000 1.0
C      1  0.5580670000000  0.4477720000000  0.5593910000000 1.0
C      1  0.4693680000000  0.5527350000000  0.4165800000000 1.0
C      1  0.5813290000000  0.5668400000000  0.5288750000000 1.0
C      1  0.4406440000000  0.4763630000000  0.4494940000000 1.0
C      1  0.4623930000000  0.5197520000000  0.4649920000000 1.0
C      1  0.5305650000000  0.4344740000000  0.4221560000000 1.0
C      1  0.5015040000000  0.5566640000000  0.5070420000000 1.0
C      1  0.5139660000000  0.5717950000000  0.4788500000000 1.0
C      1  0.4450750000000  0.5754630000000  0.5121310000000 1.0
C      1  0.4787470000000  0.4912740000000  0.4738560000000 1.0
C      1  0.5420200000000  0.5843200000000  0.4934310000000 1.0
C      1  0.5061520000000  0.4094140000000  0.5777590000000 1.0
C      1  0.5309130000000  0.5467050000000  0.4651850000000 1.0
C      1  0.4863260000000  0.4207810000000  0.4524490000000 1.0
C      1  0.5150040000000  0.5115740000000  0.6006910000000 1.0
C      1  0.4333050000000  0.5518560000000  0.4642810000000 1.0
C      1  0.4473100000000  0.4557530000000  0.4160540000000 1.0
C      1  0.4533830000000  0.4492340000000  0.5808440000000 1.0
C      1  0.5708000000000  0.4822730000000  0.5438870000000 1.0
C      1  0.5602550000000  0.5157600000000  0.4432160000000 1.0
C      1  0.5143960000000  0.4627190000000  0.5376350000000 1.0
C      1  0.5368500000000  0.5435350000000  0.5647600000000 1.0
C      1  0.5198320000000  0.5170400000000  0.4068480000000 1.0
C      1  0.5318470000000  0.5049150000000  0.5736220000000 1.0
C      1  0.4253320000000  0.5353610000000  0.4357870000000 1.0
C      1  0.4366550000000  0.5472640000000  0.4130490000000 1.0
C      1  0.5495270000000  0.4965060000000  0.4691160000000 1.0
C      1  0.5374590000000  0.5014590000000  0.4223940000000 1.0
C      1  0.5893000000000  0.4900080000000  0.4625600000000 1.0
C      1  0.5649550000000  0.5026960000000  0.5684090000000 1.0
C      1  0.4750940000000  0.5633160000000  0.5227410000000 1.0
C      1  0.5723030000000  0.4056620000000  0.5370870000000 1.0
C      1  0.4584140000000  0.4166410000000  0.5336100000000 1.0
C      1  0.6025040000000  0.4487500000000  0.4952490000000 1.0
C      1  0.4322510000000  0.4724830000000  0.5363910000000 1.0
C      1  0.4460660000000  0.5759260000000  0.4201560000000 1.0
C      1  0.5634360000000  0.4804300000000  0.4193440000000 1.0
C      1  0.4582640000000  0.5081610000000  0.4332940000000 1.0
C      1  0.5148480000000  0.4946630000000  0.5484940000000 1.0
C      1  0.5266230000000  0.4565830000000  0.5688960000000 1.0
C      1  0.4433590000000  0.4640660000000  0.4800260000000 1.0
C      1  0.4838430000000  0.5773920000000  0.5523370000000 1.0
C      1  0.5770430000000  0.4667540000000  0.4461360000000 1.0
C      1  0.5063990000000  0.4555200000000  0.4107730000000 1.0
C      1  0.5399170000000  0.4628110000000  0.4058600000000 1.0
C      1  0.4360990000000  0.5098040000000  0.5203940000000 1.0
C      1  0.5650950000000  0.5684040000000  0.4816650000000 1.0
C      1  0.4009940000000  0.4746950000000  0.5116870000000 1.0
C      1  0.5262630000000  0.4244700000000  0.5800660000000 1.0
C      1  0.5350910000000  0.5592100000000  0.4275320000000 1.0
C      1  0.5156580000000  0.5325460000000  0.4909560000000 1.0
C      1  0.5550630000000  0.5366450000000  0.4870190000000 1.0
C      1  0.5803840000000  0.4288410000000  0.5485610000000 1.0
C      1  0.4691540000000  0.5448930000000  0.5702940000000 1.0
C      1  0.5506630000000  0.4779230000000  0.5061590000000 1.0
C      1  0.4281730000000  0.5242890000000  0.5688950000000 1.0
C      1  0.4241280000000  0.5530250000000  0.5267570000000 1.0
C      1  0.4790470000000  0.4680650000000  0.4143560000000 1.0
C      1  0.4534560000000  0.5372310000000  0.5199300000000 1.0
C      1  0.5472930000000  0.4641560000000  0.4588710000000 1.0
C      1  0.5411460000000  0.4327300000000  0.4488030000000 1.0
C      1  0.5801490000000  0.5283100000000  0.4677750000000 1.0
C      1  0.4883440000000  0.4011600000000  0.4783180000000 1.0
C      1  0.5128880000000  0.5114380000000  0.4644390000000 1.0
C      1  0.5235540000000  0.5432770000000  0.5367120000000 1.0
C      1  0.6113520000000  0.5005700000000  0.5150220000000 1.0
C      1  0.5841840000000  0.4544050000000  0.5300690000000 1.0
C      1  0.4914340000000  0.6019360000000  0.5053350000000 1.0
C      1  0.4043220000000  0.4947650000000  0.4609450000000 1.0
C      1  0.4906010000000  0.4486280000000  0.4812510000000 1.0
C      1  0.4677220000000  0.5890820000000  0.4611930000000 1.0
C      1  0.4689160000000  0.4997760000000  0.5862200000000 1.0
C      1  0.4070850000000  0.4609140000000  0.4637950000000 1.0
C      1  0.5038290000000  0.4489710000000  0.4499260000000 1.0
C      1  0.4818390000000  0.4407240000000  0.5828990000000 1.0
C      1  0.4467660000000  0.5661990000000  0.5672980000000 1.0
C      1  0.4933170000000  0.5739100000000  0.4535990000000 1.0
C      1  0.4041030000000  0.5027890000000  0.5264370000000 1.0
C      1  0.4724020000000  0.4730960000000  0.4457470000000 1.0
C      1  0.4254010000000  0.5503130000000  0.5573630000000 1.0
C      1  0.4755800000000  0.5294540000000  0.5437330000000 1.0
C      1  0.6024890000000  0.4809070000000  0.5316350000000 1.0
C      1  0.4302160000000  0.5204820000000  0.4770640000000 1.0
C      1  0.5012150000000  0.4676450000000  0.5066830000000 1.0
C      1  0.4669700000000  0.4604760000000  0.5517680000000 1.0
C      1  0.5546060000000  0.4733890000000  0.5810610000000 1.0
C      1  0.5114310000000  0.5404610000000  0.4379890000000 1.0
C      1  0.4574620000000  0.5926790000000  0.5642730000000 1.0
C      1  0.5757780000000  0.5646810000000  0.4520960000000 1.0
C      1  0.4938080000000  0.4880400000000  0.5973570000000 1.0
C      1  0.4812060000000  0.4034810000000  0.5115180000000 1.0
C      1  0.5440630000000  0.4993810000000  0.5317000000000 1.0
C      1  0.5424300000000  0.4154350000000  0.4708500000000 1.0
C      1  0.4209110000000  0.5684010000000  0.4904460000000 1.0
C      1  0.4531560000000  0.5216930000000  0.5828790000000 1.0
C      1  0.5214140000000  0.3981850000000  0.4785730000000 1.0
C      1  0.5748290000000  0.4962920000000  0.4908100000000 1.0
C      1  0.5279710000000  0.4619820000000  0.4864800000000 1.0
C      1  0.4133360000000  0.4476260000000  0.5242400000000 1.0
C      1  0.5528170000000  0.4080570000000  0.5172120000000 1.0
C      1  0.4751230000000  0.5277580000000  0.4954880000000 1.0
C      1  0.5621920000000  0.5471070000000  0.5437240000000 1.0
C      1  0.5571860000000  0.4243200000000  0.4930490000000 1.0
C      1  0.4194090000000  0.4984590000000  0.5549110000000 1.0
C      1  0.4489910000000  0.4342300000000  0.5060520000000 1.0
C      1  0.5003540000000  0.4620060000000  0.5874150000000 1.0
C      1  0.5882110000000  0.5009300000000  0.4307650000000 1.0
C      1  0.4525870000000  0.4973820000000  0.5474790000000 1.0
C      1  0.4399990000000  0.4411810000000  0.5442480000000 1.0
C      1  0.5091050000000  0.4793950000000  0.4641780000000 1.0
C      1  0.5167840000000  0.5407790000000  0.5833640000000 1.0
C      1  0.5859720000000  0.5566800000000  0.5025650000000 1.0
C      1  0.5276190000000  0.5009320000000  0.4947570000000 1.0
C      1  0.5974380000000  0.5286550000000  0.5397630000000 1.0
C      1  0.4678740000000  0.5877890000000  0.4922850000000 1.0
C      1  0.5144100000000  0.5795560000000  0.4303770000000 1.0
C      1  0.4830340000000  0.4179740000000  0.5576390000000 1.0
C      1  0.4006180000000  0.5483480000000  0.5025340000000 1.0
C      1  0.4684900000000  0.4866100000000  0.5194200000000 1.0
C      1  0.3861960000000  0.5207890000000  0.5109190000000 1.0
C      1  0.5590230000000  0.5491410000000  0.4352780000000 1.0
C      1  0.5244420000000  0.4717680000000  0.4347930000000 1.0
C      1  0.4263330000000  0.5049810000000  0.4403960000000 1.0
C      1  0.4244450000000  0.4516300000000  0.4360590000000 1.0
C      1  0.4956680000000  0.5584510000000  0.5781580000000 1.0
C      1  0.5550300000000  0.5260930000000  0.5193640000000 1.0
C      1  0.5146600000000  0.4002170000000  0.5081540000000 1.0
C      1  0.5442060000000  0.4548220000000  0.5302890000000 1.0
C      1  0.6009280000000  0.5481750000000  0.4591370000000 1.0
C      1  0.4744060000000  0.4517530000000  0.5203070000000 1.0
C      1  0.4199640000000  0.4458020000000  0.4916180000000 1.0
END
