TITL C-2847949-8115-449 -0.00203962533395699 125000 -572.238327385858 0 0 102 (C1) n - 1
REM
REM in /home/bkarasulu/work/CARBON/AIRSS/Generating-Clusters/AIREBO/with-SteepDescent/Only-C1/SD-CG-opt/Try1-1.4A-POS3A/HFTN-CG
REM
REM
REM
REM
REM
REM ./C.cell (11c1c37f851c82e70ff6c80c92926a4b)
REM
REM compiler GCC version 9.2.1 20190827 (Red Hat 9.2.1-1)
REM options -cpp -mtune=generic -march=x86-64 -g -O0 -fpre-include=/usr/include/finclude/math-vector-fortran.h
REM seed 1228041504 -2086497050 -1821980730 738556080 1144945011 -688949977 751333808 1218638829 1513515752 88890361 -1533729339 1296443403 1062729542 -925060447 1294258282 1860973691 -1943428303 2061864136 1325165103 941420904 -290054114 -698924927 1558593085 -88804187 -585340695 -2047855306 230664638 -1612237086 -2133545774 425684681 -1953630050 1982449163 -1174332852
REM
CELL 1.54180   50.00000   50.00000   50.00000   90.00000   90.00000   90.00000
LATT -1
SFAC C  
C      1  0.4358400000000  0.4338900000000  0.5170890000000 1.0
C      1  0.4519440000000  0.4264140000000  0.5378850000000 1.0
C      1  0.4601670000000  0.5645300000000  0.4560390000000 1.0
C      1  0.5827210000000  0.4972510000000  0.5401280000000 1.0
C      1  0.4543800000000  0.5835680000000  0.4869120000000 1.0
C      1  0.5100480000000  0.4632040000000  0.4589440000000 1.0
C      1  0.5436150000000  0.4417530000000  0.4666190000000 1.0
C      1  0.4814820000000  0.4621550000000  0.4281850000000 1.0
C      1  0.4398020000000  0.4766760000000  0.5529890000000 1.0
C      1  0.4714480000000  0.4943590000000  0.5850250000000 1.0
C      1  0.4463540000000  0.4859810000000  0.5823340000000 1.0
C      1  0.4285890000000  0.5348920000000  0.4537190000000 1.0
C      1  0.5017230000000  0.5772630000000  0.4755300000000 1.0
C      1  0.4820910000000  0.4890200000000  0.5247710000000 1.0
C      1  0.5628340000000  0.5396600000000  0.5230830000000 1.0
C      1  0.4780600000000  0.5871200000000  0.4681050000000 1.0
C      1  0.5404550000000  0.5240930000000  0.5823560000000 1.0
C      1  0.4897610000000  0.4905790000000  0.5578640000000 1.0
C      1  0.4497620000000  0.5429790000000  0.4786380000000 1.0
C      1  0.5606260000000  0.4770320000000  0.5459700000000 1.0
C      1  0.4564040000000  0.5298060000000  0.5390090000000 1.0
C      1  0.4740030000000  0.4339050000000  0.4422950000000 1.0
C      1  0.4397390000000  0.5144270000000  0.4390500000000 1.0
C      1  0.4859570000000  0.4583360000000  0.5496550000000 1.0
C      1  0.4048780000000  0.5401150000000  0.5068620000000 1.0
C      1  0.5759800000000  0.5235620000000  0.5467240000000 1.0
C      1  0.5509010000000  0.5353330000000  0.4251220000000 1.0
C      1  0.3884680000000  0.5535400000000  0.5210700000000 1.0
C      1  0.5621250000000  0.4937150000000  0.5060260000000 1.0
C      1  0.5583990000000  0.5626250000000  0.4313820000000 1.0
C      1  0.5409360000000  0.4156890000000  0.5244330000000 1.0
C      1  0.5652780000000  0.5286660000000  0.5720880000000 1.0
C      1  0.5792850000000  0.4412920000000  0.5072840000000 1.0
C      1  0.5394050000000  0.5164770000000  0.5171740000000 1.0
C      1  0.4361460000000  0.4970130000000  0.5044310000000 1.0
C      1  0.5629820000000  0.5167910000000  0.4438000000000 1.0
C      1  0.5261650000000  0.5294900000000  0.4735530000000 1.0
C      1  0.4568150000000  0.4382650000000  0.4704590000000 1.0
C      1  0.5621990000000  0.4862150000000  0.4531300000000 1.0
C      1  0.4781410000000  0.5757590000000  0.5375740000000 1.0
C      1  0.4535720000000  0.4388190000000  0.5868890000000 1.0
C      1  0.5501380000000  0.4470080000000  0.5339240000000 1.0
C      1  0.5133700000000  0.5147360000000  0.5643710000000 1.0
C      1  0.4505270000000  0.4793700000000  0.4829970000000 1.0
C      1  0.5338120000000  0.5861740000000  0.5148040000000 1.0
C      1  0.4651600000000  0.5229330000000  0.4311500000000 1.0
C      1  0.5469370000000  0.5723630000000  0.4541530000000 1.0
C      1  0.5681290000000  0.5490450000000  0.4934230000000 1.0
C      1  0.5105720000000  0.5303470000000  0.5055770000000 1.0
C      1  0.4264820000000  0.5247160000000  0.4920330000000 1.0
C      1  0.4916170000000  0.5143530000000  0.5905090000000 1.0
C      1  0.4464670000000  0.4538240000000  0.4453680000000 1.0
C      1  0.5211210000000  0.4132240000000  0.5002000000000 1.0
C      1  0.5231850000000  0.4928820000000  0.4489620000000 1.0
C      1  0.5701460000000  0.5294860000000  0.4731240000000 1.0
C      1  0.5106620000000  0.5031620000000  0.4225090000000 1.0
C      1  0.4363420000000  0.4834230000000  0.4526290000000 1.0
C      1  0.5134830000000  0.4480730000000  0.5569950000000 1.0
C      1  0.4600610000000  0.5751470000000  0.5129570000000 1.0
C      1  0.5249480000000  0.4186340000000  0.4720890000000 1.0
C      1  0.5023520000000  0.4984210000000  0.5042980000000 1.0
C      1  0.4938810000000  0.4198490000000  0.5098040000000 1.0
C      1  0.5194430000000  0.5577650000000  0.4587990000000 1.0
C      1  0.4969890000000  0.4756940000000  0.4096120000000 1.0
C      1  0.5941050000000  0.4955390000000  0.5133760000000 1.0
C      1  0.4823140000000  0.4683540000000  0.4779490000000 1.0
C      1  0.4568030000000  0.4486820000000  0.5581320000000 1.0
C      1  0.5045280000000  0.5504560000000  0.4328350000000 1.0
C      1  0.4626520000000  0.5459480000000  0.5159450000000 1.0
C      1  0.5635690000000  0.4579260000000  0.4539580000000 1.0
C      1  0.4104520000000  0.4821470000000  0.5158760000000 1.0
C      1  0.4757810000000  0.4805230000000  0.4493460000000 1.0
C      1  0.5220160000000  0.5316470000000  0.4194110000000 1.0
C      1  0.5233650000000  0.5618250000000  0.5444600000000 1.0
C      1  0.5133690000000  0.4402300000000  0.4405230000000 1.0
C      1  0.4961310000000  0.5208240000000  0.4695360000000 1.0
C      1  0.5481270000000  0.5039960000000  0.4784740000000 1.0
C      1  0.5564470000000  0.4646480000000  0.5081720000000 1.0
C      1  0.4753650000000  0.5494920000000  0.4341560000000 1.0
C      1  0.4727990000000  0.5510530000000  0.5542390000000 1.0
C      1  0.5126570000000  0.5366570000000  0.5389240000000 1.0
C      1  0.5234940000000  0.4233670000000  0.5515890000000 1.0
C      1  0.4528260000000  0.4506130000000  0.4980920000000 1.0
C      1  0.4863260000000  0.5071780000000  0.4441570000000 1.0
C      1  0.5176060000000  0.5628310000000  0.4983710000000 1.0
C      1  0.5330560000000  0.4571060000000  0.4913240000000 1.0
C      1  0.5009560000000  0.4150750000000  0.4510040000000 1.0
C      1  0.5342870000000  0.4979760000000  0.5434490000000 1.0
C      1  0.5514450000000  0.5656040000000  0.5353510000000 1.0
C      1  0.5479700000000  0.5711100000000  0.4868820000000 1.0
C      1  0.4792610000000  0.5333270000000  0.4926120000000 1.0
C      1  0.5721110000000  0.4185920000000  0.5164270000000 1.0
C      1  0.4786960000000  0.4580430000000  0.5163710000000 1.0
C      1  0.4530810000000  0.4997670000000  0.5317930000000 1.0
C      1  0.4152330000000  0.5014240000000  0.4707710000000 1.0
C      1  0.4908990000000  0.5402720000000  0.5722430000000 1.0
C      1  0.5193830000000  0.4861930000000  0.4821940000000 1.0
C      1  0.5032420000000  0.4499490000000  0.4974260000000 1.0
C      1  0.4753420000000  0.4130320000000  0.5292170000000 1.0
C      1  0.5056540000000  0.5830110000000  0.5341070000000 1.0
C      1  0.4119290000000  0.4737580000000  0.5398060000000 1.0
C      1  0.5314100000000  0.4689360000000  0.5610210000000 1.0
END
