TITL C-2848500-1637-679 0.00061992353523413 125000 -118.337369965339 0 0 23 (C1) n - 1
REM
REM in /home/bkarasulu/work/CARBON/AIRSS/Generating-Clusters/AIREBO/with-SteepDescent/Only-C1/SD-CG-opt/Try1-1.4A-POS3A/HFTN-CG
REM
REM
REM
REM
REM
REM ./C.cell (11c1c37f851c82e70ff6c80c92926a4b)
REM
REM compiler GCC version 9.2.1 20190827 (Red Hat 9.2.1-1)
REM options -cpp -mtune=generic -march=x86-64 -g -O0 -fpre-include=/usr/include/finclude/math-vector-fortran.h
REM seed -1725193443 -1240559635 -920013067 1678616268 501618728 -315416229 -601719252 652652857 1743102586 -1844867739 -43730434 1420673225 666996933 -679874364 122187663 -1208599711 647858142 917773094 -1524129966 -2016098185 -1179599815 1224162050 997531474 1449735902 1435902406 -6243949 -989817016 -1278177484 726546220 1039244517 1791612066 71386730 1844025715
REM
CELL 1.54180   50.00000   50.00000   50.00000   90.00000   90.00000   90.00000
LATT -1
SFAC C  
C      1  0.4907240000000  0.4463940000000  0.5214750000000 1.0
C      1  0.5288310000000  0.4989980000000  0.4524300000000 1.0
C      1  0.4855480000000  0.4478190000000  0.4944370000000 1.0
C      1  0.4843950000000  0.5531600000000  0.4792330000000 1.0
C      1  0.4993170000000  0.5039300000000  0.4944280000000 1.0
C      1  0.5149520000000  0.5310880000000  0.5076450000000 1.0
C      1  0.5411240000000  0.5297360000000  0.5159580000000 1.0
C      1  0.4801780000000  0.4713620000000  0.5612600000000 1.0
C      1  0.4671320000000  0.5114370000000  0.4949540000000 1.0
C      1  0.4625450000000  0.4396770000000  0.4753320000000 1.0
C      1  0.5652020000000  0.5284890000000  0.5262590000000 1.0
C      1  0.5053680000000  0.4915380000000  0.5255420000000 1.0
C      1  0.4997450000000  0.4732260000000  0.4794480000000 1.0
C      1  0.4477500000000  0.4940090000000  0.5032090000000 1.0
C      1  0.4916380000000  0.4698070000000  0.5369100000000 1.0
C      1  0.4990510000000  0.5412880000000  0.4578000000000 1.0
C      1  0.5236130000000  0.5046290000000  0.5416930000000 1.0
C      1  0.4716440000000  0.4655550000000  0.4618930000000 1.0
C      1  0.5106200000000  0.5165600000000  0.4649250000000 1.0
C      1  0.5426180000000  0.5151570000000  0.5564390000000 1.0
C      1  0.4614450000000  0.5376710000000  0.4857540000000 1.0
C      1  0.5016500000000  0.5554950000000  0.5018030000000 1.0
C      1  0.5249100000000  0.4729750000000  0.4611730000000 1.0
END
