TITL C-2848497-6229-303 -0.000654231041297941 125000 -284.504744553136 0 0 49 (C1) n - 1
REM
REM in /home/bkarasulu/work/CARBON/AIRSS/Generating-Clusters/AIREBO/with-SteepDescent/Only-C1/SD-CG-opt/Try1-1.4A-POS3A/HFTN-CG
REM
REM
REM
REM
REM
REM ./C.cell (11c1c37f851c82e70ff6c80c92926a4b)
REM
REM compiler GCC version 9.2.1 20190827 (Red Hat 9.2.1-1)
REM options -cpp -mtune=generic -march=x86-64 -g -O0 -fpre-include=/usr/include/finclude/math-vector-fortran.h
REM seed 2019969239 367878042 1617980063 -1112244716 -728094390 -2106829893 -188806852 99837295 -1624770130 1395195398 -1275413232 -62340973 -870082551 -142593242 -762311468 745521592 110377894 1765523060 543927404 542512339 1737270776 -1091200086 860217007 535720277 1616664117 1804654858 391871794 531962074 -150139168 -171887009 -2077789606 -1689841370 -709131217
REM
CELL 1.54180   50.00000   50.00000   50.00000   90.00000   90.00000   90.00000
LATT -1
SFAC C  
C      1  0.5248280000000  0.5473070000000  0.4782900000000 1.0
C      1  0.4690650000000  0.5171720000000  0.4646970000000 1.0
C      1  0.4851460000000  0.4697370000000  0.4662800000000 1.0
C      1  0.5027880000000  0.5389290000000  0.4338460000000 1.0
C      1  0.4891200000000  0.5636340000000  0.5173930000000 1.0
C      1  0.5276690000000  0.5407180000000  0.4471790000000 1.0
C      1  0.4871010000000  0.4943760000000  0.4246930000000 1.0
C      1  0.5442980000000  0.5408680000000  0.5218940000000 1.0
C      1  0.4447520000000  0.4586230000000  0.5320590000000 1.0
C      1  0.4987610000000  0.5293620000000  0.4885160000000 1.0
C      1  0.4586960000000  0.4867980000000  0.4699610000000 1.0
C      1  0.5139840000000  0.5783120000000  0.5134290000000 1.0
C      1  0.5107710000000  0.4817570000000  0.5089250000000 1.0
C      1  0.4661870000000  0.5061030000000  0.5677390000000 1.0
C      1  0.4987390000000  0.4725970000000  0.4384530000000 1.0
C      1  0.5146800000000  0.4829730000000  0.4768570000000 1.0
C      1  0.5591640000000  0.4678650000000  0.5145480000000 1.0
C      1  0.5143470000000  0.4808270000000  0.5547490000000 1.0
C      1  0.4646780000000  0.5641450000000  0.5023380000000 1.0
C      1  0.5246760000000  0.4544960000000  0.5517470000000 1.0
C      1  0.4812850000000  0.4854200000000  0.5116570000000 1.0
C      1  0.5658210000000  0.5214730000000  0.5220150000000 1.0
C      1  0.4907530000000  0.4914270000000  0.5662160000000 1.0
C      1  0.5255650000000  0.4968130000000  0.5312000000000 1.0
C      1  0.4661470000000  0.5291200000000  0.5821530000000 1.0
C      1  0.4875970000000  0.4192380000000  0.4722560000000 1.0
C      1  0.5460770000000  0.4577370000000  0.4878570000000 1.0
C      1  0.4826300000000  0.5193870000000  0.4376080000000 1.0
C      1  0.4733630000000  0.5110210000000  0.4978650000000 1.0
C      1  0.5442310000000  0.4684180000000  0.4597120000000 1.0
C      1  0.5236780000000  0.4604560000000  0.4381950000000 1.0
C      1  0.4945490000000  0.4429780000000  0.4803060000000 1.0
C      1  0.5558960000000  0.4945130000000  0.5238990000000 1.0
C      1  0.4606070000000  0.5410040000000  0.4874270000000 1.0
C      1  0.4416900000000  0.4982070000000  0.5552770000000 1.0
C      1  0.4305790000000  0.4831720000000  0.5337480000000 1.0
C      1  0.5209370000000  0.5268490000000  0.5316650000000 1.0
C      1  0.4347010000000  0.4854600000000  0.4828850000000 1.0
C      1  0.4217320000000  0.4903030000000  0.5072750000000 1.0
C      1  0.5360800000000  0.4499810000000  0.5257000000000 1.0
C      1  0.5600920000000  0.4923010000000  0.4500010000000 1.0
C      1  0.5446630000000  0.5152160000000  0.4506080000000 1.0
C      1  0.5214000000000  0.5124210000000  0.4742550000000 1.0
C      1  0.4977670000000  0.5359060000000  0.5195550000000 1.0
C      1  0.4691280000000  0.4626590000000  0.5204590000000 1.0
C      1  0.5349410000000  0.5608950000000  0.5031480000000 1.0
C      1  0.5162850000000  0.4499850000000  0.4993540000000 1.0
C      1  0.5245660000000  0.4359730000000  0.5712320000000 1.0
C      1  0.4477930000000  0.5850690000000  0.5028770000000 1.0
END
