TITL C-2847945-6269-23 0.000118898129439638 125000 -160.052310145252 0 0 28 (C1) n - 1
REM
REM in /home/bkarasulu/work/CARBON/AIRSS/Generating-Clusters/AIREBO/with-SteepDescent/Only-C1/SD-CG-opt/Try1-1.4A-POS3A/HFTN-CG
REM
REM
REM
REM
REM
REM ./C.cell (11c1c37f851c82e70ff6c80c92926a4b)
REM
REM compiler GCC version 9.2.1 20190827 (Red Hat 9.2.1-1)
REM options -cpp -mtune=generic -march=x86-64 -g -O0 -fpre-include=/usr/include/finclude/math-vector-fortran.h
REM seed -602758346 2135474551 750055801 -1494155251 -2133543683 1755119510 450744537 -1028683981 -2064234053 478951699 -2082949896 326147815 -1820031203 789505011 793133764 -785040640 -1082985929 -560554987 862286058 370385593 1512239279 1648875698 -843592133 1432888936 227662875 1408051279 -2819158 1961221248 -1649105162 1829520378 1651434012 -940694822 -1266007248
REM
CELL 1.54180   50.00000   50.00000   50.00000   90.00000   90.00000   90.00000
LATT -1
SFAC C  
C      1  0.4588100000000  0.4937850000000  0.5107240000000 1.0
C      1  0.4955140000000  0.4701150000000  0.4812850000000 1.0
C      1  0.5048500000000  0.4698360000000  0.4549050000000 1.0
C      1  0.4585510000000  0.4723500000000  0.5311630000000 1.0
C      1  0.4975800000000  0.4786330000000  0.5607970000000 1.0
C      1  0.5267080000000  0.4676620000000  0.5157060000000 1.0
C      1  0.5305310000000  0.4782490000000  0.4487840000000 1.0
C      1  0.5345810000000  0.5521510000000  0.5198050000000 1.0
C      1  0.4647870000000  0.5273540000000  0.5122470000000 1.0
C      1  0.4869030000000  0.4358620000000  0.5133610000000 1.0
C      1  0.4702520000000  0.4781880000000  0.5561950000000 1.0
C      1  0.4625090000000  0.4459360000000  0.5219700000000 1.0
C      1  0.4443360000000  0.5165480000000  0.4906710000000 1.0
C      1  0.4439280000000  0.5244560000000  0.4642750000000 1.0
C      1  0.5418810000000  0.4845630000000  0.4992260000000 1.0
C      1  0.5452130000000  0.4911200000000  0.4686280000000 1.0
C      1  0.5486560000000  0.5392570000000  0.4991690000000 1.0
C      1  0.4929150000000  0.5303660000000  0.4566440000000 1.0
C      1  0.5041140000000  0.5213780000000  0.4841060000000 1.0
C      1  0.4874330000000  0.4955420000000  0.4955970000000 1.0
C      1  0.5071240000000  0.5549920000000  0.5203330000000 1.0
C      1  0.5714840000000  0.5488170000000  0.4875550000000 1.0
C      1  0.5089230000000  0.5032690000000  0.5194040000000 1.0
C      1  0.4663880000000  0.5321320000000  0.4502760000000 1.0
C      1  0.5062120000000  0.4527290000000  0.5013680000000 1.0
C      1  0.4900700000000  0.5365650000000  0.5080320000000 1.0
C      1  0.5341280000000  0.5158980000000  0.4880270000000 1.0
C      1  0.5156190000000  0.4822470000000  0.5397490000000 1.0
END
