TITL C-2848505-4874-724 0.00227931760190413 125000 -1008.12079157453 0 0 194 (C1) n - 1
REM
REM in /home/bkarasulu/work/CARBON/AIRSS/Generating-Clusters/AIREBO/with-SteepDescent/Only-C1/SD-CG-opt/Try1-1.4A-POS3A/HFTN-CG
REM
REM
REM
REM
REM
REM ./C.cell (11c1c37f851c82e70ff6c80c92926a4b)
REM
REM compiler GCC version 9.2.1 20190827 (Red Hat 9.2.1-1)
REM options -cpp -mtune=generic -march=x86-64 -g -O0 -fpre-include=/usr/include/finclude/math-vector-fortran.h
REM seed 1237687400 1047412117 1753094372 1423957831 -2137393395 -296195568 899118493 -848477602 -1502231123 -818083114 -1247636714 -134547513 -562776263 939939351 -816117390 -1811597351 487558799 -1684073458 1491940922 -70452544 2053311492 323519247 1208116427 2076225637 227023904 1199277550 -1274446954 949186903 239164291 -1956884974 -1869077366 -2018144161 -691945113
REM
CELL 1.54180   50.00000   50.00000   50.00000   90.00000   90.00000   90.00000
LATT -1
SFAC C  
C      1  0.5955500000000  0.5639920000000  0.5427210000000 1.0
C      1  0.5589320000000  0.5146860000000  0.3979120000000 1.0
C      1  0.4282380000000  0.5594290000000  0.4371540000000 1.0
C      1  0.4341550000000  0.5289820000000  0.4958230000000 1.0
C      1  0.5035170000000  0.4393570000000  0.4544600000000 1.0
C      1  0.5403290000000  0.4804190000000  0.5763080000000 1.0
C      1  0.4234100000000  0.5189330000000  0.4677150000000 1.0
C      1  0.4112590000000  0.4750930000000  0.4386470000000 1.0
C      1  0.4820130000000  0.5976470000000  0.5425020000000 1.0
C      1  0.4691720000000  0.5850440000000  0.4128210000000 1.0
C      1  0.4522110000000  0.5559520000000  0.4143300000000 1.0
C      1  0.4415950000000  0.4381780000000  0.4979800000000 1.0
C      1  0.6122840000000  0.4900280000000  0.4494630000000 1.0
C      1  0.4586960000000  0.4551140000000  0.5579550000000 1.0
C      1  0.4412930000000  0.4332700000000  0.5773470000000 1.0
C      1  0.5174800000000  0.5312970000000  0.4049050000000 1.0
C      1  0.5681190000000  0.4587990000000  0.5395290000000 1.0
C      1  0.5219520000000  0.4765380000000  0.4954120000000 1.0
C      1  0.4767300000000  0.5749420000000  0.4604590000000 1.0
C      1  0.5638850000000  0.4091100000000  0.4706560000000 1.0
C      1  0.5491700000000  0.5402590000000  0.4133770000000 1.0
C      1  0.5437810000000  0.4118890000000  0.5549930000000 1.0
C      1  0.5414350000000  0.4738690000000  0.5301470000000 1.0
C      1  0.5911840000000  0.5113040000000  0.5367850000000 1.0
C      1  0.6135770000000  0.4513490000000  0.4935940000000 1.0
C      1  0.4847510000000  0.3871770000000  0.4609890000000 1.0
C      1  0.5726780000000  0.4594350000000  0.4571170000000 1.0
C      1  0.5965500000000  0.4402780000000  0.4519050000000 1.0
C      1  0.5094720000000  0.4041060000000  0.5449210000000 1.0
C      1  0.4933190000000  0.5266010000000  0.5126550000000 1.0
C      1  0.5272930000000  0.4442510000000  0.5385260000000 1.0
C      1  0.4871630000000  0.4191530000000  0.4723020000000 1.0
C      1  0.5674060000000  0.5075500000000  0.4451710000000 1.0
C      1  0.4790610000000  0.5388420000000  0.6054780000000 1.0
C      1  0.4491600000000  0.4243360000000  0.4408720000000 1.0
C      1  0.4832420000000  0.5710860000000  0.5949450000000 1.0
C      1  0.5119120000000  0.4011810000000  0.4460840000000 1.0
C      1  0.5084230000000  0.5496230000000  0.4282450000000 1.0
C      1  0.4880760000000  0.4156470000000  0.5686980000000 1.0
C      1  0.5359880000000  0.5157900000000  0.4420150000000 1.0
C      1  0.5296910000000  0.4488180000000  0.5721600000000 1.0
C      1  0.5730160000000  0.5388020000000  0.5464570000000 1.0
C      1  0.4017760000000  0.4623400000000  0.4687250000000 1.0
C      1  0.4929680000000  0.4919580000000  0.4182250000000 1.0
C      1  0.4925960000000  0.6133180000000  0.5170570000000 1.0
C      1  0.4642360000000  0.5158060000000  0.5402850000000 1.0
C      1  0.4155880000000  0.5194450000000  0.5192200000000 1.0
C      1  0.4222290000000  0.5270150000000  0.5640970000000 1.0
C      1  0.5554650000000  0.4743870000000  0.5016710000000 1.0
C      1  0.5275340000000  0.5214760000000  0.6088590000000 1.0
C      1  0.5011830000000  0.4790820000000  0.6031110000000 1.0
C      1  0.5194380000000  0.5196390000000  0.5699750000000 1.0
C      1  0.5190020000000  0.5615730000000  0.5763330000000 1.0
C      1  0.6059590000000  0.5390780000000  0.4537860000000 1.0
C      1  0.3937940000000  0.5122910000000  0.4523250000000 1.0
C      1  0.4175640000000  0.4805980000000  0.5600610000000 1.0
C      1  0.4815790000000  0.5189520000000  0.4354960000000 1.0
C      1  0.4368520000000  0.5476770000000  0.5755970000000 1.0
C      1  0.5495890000000  0.5191430000000  0.5857150000000 1.0
C      1  0.3962740000000  0.4291490000000  0.5382990000000 1.0
C      1  0.5266580000000  0.4318060000000  0.5991110000000 1.0
C      1  0.5776940000000  0.4976110000000  0.4080050000000 1.0
C      1  0.4027330000000  0.4578130000000  0.5537000000000 1.0
C      1  0.5656670000000  0.5046170000000  0.4924950000000 1.0
C      1  0.4808240000000  0.4030220000000  0.5221510000000 1.0
C      1  0.5274590000000  0.3650830000000  0.4795040000000 1.0
C      1  0.5184830000000  0.5445740000000  0.5468750000000 1.0
C      1  0.5348780000000  0.5069830000000  0.4922300000000 1.0
C      1  0.4863100000000  0.5375530000000  0.4705210000000 1.0
C      1  0.4873670000000  0.5582130000000  0.5452870000000 1.0
C      1  0.5964480000000  0.5362870000000  0.5142960000000 1.0
C      1  0.4103230000000  0.4429670000000  0.4914170000000 1.0
C      1  0.5411840000000  0.5880920000000  0.5306500000000 1.0
C      1  0.5561950000000  0.4289810000000  0.5283280000000 1.0
C      1  0.5463190000000  0.4447100000000  0.4698570000000 1.0
C      1  0.4346190000000  0.5870930000000  0.4964310000000 1.0
C      1  0.5305590000000  0.5969570000000  0.5616900000000 1.0
C      1  0.4421520000000  0.4791110000000  0.5202360000000 1.0
C      1  0.3747730000000  0.4975840000000  0.5170020000000 1.0
C      1  0.4590900000000  0.6031600000000  0.4790610000000 1.0
C      1  0.5313740000000  0.4967730000000  0.5478240000000 1.0
C      1  0.4881110000000  0.4468820000000  0.5056850000000 1.0
C      1  0.4600910000000  0.5901830000000  0.5193740000000 1.0
C      1  0.5842430000000  0.4893320000000  0.4684520000000 1.0
C      1  0.5724130000000  0.5040490000000  0.5745470000000 1.0
C      1  0.5220280000000  0.4122290000000  0.4946280000000 1.0
C      1  0.5200660000000  0.4106400000000  0.5790700000000 1.0
C      1  0.4796920000000  0.4440510000000  0.5802680000000 1.0
C      1  0.4332600000000  0.5040400000000  0.5415840000000 1.0
C      1  0.4992380000000  0.5880090000000  0.5702140000000 1.0
C      1  0.5039680000000  0.4248210000000  0.4237160000000 1.0
C      1  0.4780550000000  0.5125990000000  0.4890570000000 1.0
C      1  0.5927190000000  0.5414600000000  0.4820410000000 1.0
C      1  0.5033260000000  0.5049390000000  0.5304230000000 1.0
C      1  0.4993280000000  0.4458310000000  0.3976370000000 1.0
C      1  0.4532350000000  0.3999810000000  0.4647900000000 1.0
C      1  0.5645480000000  0.5442120000000  0.5765060000000 1.0
C      1  0.4125680000000  0.5293090000000  0.4306830000000 1.0
C      1  0.5444670000000  0.4104950000000  0.4493620000000 1.0
C      1  0.4595320000000  0.4501550000000  0.5242680000000 1.0
C      1  0.4775350000000  0.5527110000000  0.4347570000000 1.0
C      1  0.4026680000000  0.5458130000000  0.4658110000000 1.0
C      1  0.4439950000000  0.5299520000000  0.4434010000000 1.0
C      1  0.4325380000000  0.5750170000000  0.5274130000000 1.0
C      1  0.5217960000000  0.3902160000000  0.4752480000000 1.0
C      1  0.5123020000000  0.5536740000000  0.5134450000000 1.0
C      1  0.5008690000000  0.4624320000000  0.5455500000000 1.0
C      1  0.4236580000000  0.5660580000000  0.5914820000000 1.0
C      1  0.5888090000000  0.4196260000000  0.5293860000000 1.0
C      1  0.5328250000000  0.5677040000000  0.4371540000000 1.0
C      1  0.4712460000000  0.4724880000000  0.4341190000000 1.0
C      1  0.4514160000000  0.4177830000000  0.5308410000000 1.0
C      1  0.4446880000000  0.5801900000000  0.4585220000000 1.0
C      1  0.4560520000000  0.4328470000000  0.4730690000000 1.0
C      1  0.5943090000000  0.5236850000000  0.4377570000000 1.0
C      1  0.5419080000000  0.4385500000000  0.4367030000000 1.0
C      1  0.3885980000000  0.5167280000000  0.5308150000000 1.0
C      1  0.4714730000000  0.5708040000000  0.4938240000000 1.0
C      1  0.5505770000000  0.4247590000000  0.4970780000000 1.0
C      1  0.6112640000000  0.5131810000000  0.4856550000000 1.0
C      1  0.4963680000000  0.4769390000000  0.5178240000000 1.0
C      1  0.5138190000000  0.5738210000000  0.4882350000000 1.0
C      1  0.5616270000000  0.5501750000000  0.4772430000000 1.0
C      1  0.5553330000000  0.5735770000000  0.4162720000000 1.0
C      1  0.5568710000000  0.5623980000000  0.5280380000000 1.0
C      1  0.5149560000000  0.4677760000000  0.4457890000000 1.0
C      1  0.5520690000000  0.5440060000000  0.4480460000000 1.0
C      1  0.5022890000000  0.6145360000000  0.4407970000000 1.0
C      1  0.5387550000000  0.6105020000000  0.4789130000000 1.0
C      1  0.6083430000000  0.4303980000000  0.5178540000000 1.0
C      1  0.4741090000000  0.3957360000000  0.4924290000000 1.0
C      1  0.5251570000000  0.4918550000000  0.6012740000000 1.0
C      1  0.4892180000000  0.5063510000000  0.5613270000000 1.0
C      1  0.5520000000000  0.6077870000000  0.5075750000000 1.0
C      1  0.4732470000000  0.5487760000000  0.5196710000000 1.0
C      1  0.4533660000000  0.4828940000000  0.6008010000000 1.0
C      1  0.5630730000000  0.5348080000000  0.5079410000000 1.0
C      1  0.4682060000000  0.4868010000000  0.5053120000000 1.0
C      1  0.5095230000000  0.5805730000000  0.5324160000000 1.0
C      1  0.5441280000000  0.5253660000000  0.5345630000000 1.0
C      1  0.4597330000000  0.5102890000000  0.6064200000000 1.0
C      1  0.4195760000000  0.4311120000000  0.5593220000000 1.0
C      1  0.5263050000000  0.4540910000000  0.3942820000000 1.0
C      1  0.4817930000000  0.4683240000000  0.3964490000000 1.0
C      1  0.5252220000000  0.6185590000000  0.4558510000000 1.0
C      1  0.4794350000000  0.4743700000000  0.4785370000000 1.0
C      1  0.5378440000000  0.4687600000000  0.4216330000000 1.0
C      1  0.4265340000000  0.4998720000000  0.4209120000000 1.0
C      1  0.5933000000000  0.5701510000000  0.5135580000000 1.0
C      1  0.3738670000000  0.5329380000000  0.5753900000000 1.0
C      1  0.4442350000000  0.5388510000000  0.5252280000000 1.0
C      1  0.5895680000000  0.4798670000000  0.5238540000000 1.0
C      1  0.5592490000000  0.4409390000000  0.5660490000000 1.0
C      1  0.5467980000000  0.5776660000000  0.4825990000000 1.0
C      1  0.5964650000000  0.4889360000000  0.5618620000000 1.0
C      1  0.4829210000000  0.5945880000000  0.4348260000000 1.0
C      1  0.5495250000000  0.5670580000000  0.5816600000000 1.0
C      1  0.4921330000000  0.5287690000000  0.3876100000000 1.0
C      1  0.4297020000000  0.4514060000000  0.4426210000000 1.0
C      1  0.5376600000000  0.5014510000000  0.3828550000000 1.0
C      1  0.4747450000000  0.4649300000000  0.6061120000000 1.0
C      1  0.4544370000000  0.5467860000000  0.4780320000000 1.0
C      1  0.4215310000000  0.4813870000000  0.4974340000000 1.0
C      1  0.4759470000000  0.4412620000000  0.4346380000000 1.0
C      1  0.4557500000000  0.4644470000000  0.4601590000000 1.0
C      1  0.4404480000000  0.4749970000000  0.5767600000000 1.0
C      1  0.4693150000000  0.5544080000000  0.5699710000000 1.0
C      1  0.5747240000000  0.5853350000000  0.5007330000000 1.0
C      1  0.5077680000000  0.5149610000000  0.4568150000000 1.0
C      1  0.5161020000000  0.4444870000000  0.4856450000000 1.0
C      1  0.5099670000000  0.5431110000000  0.6014800000000 1.0
C      1  0.5060290000000  0.4863820000000  0.4671640000000 1.0
C      1  0.4622600000000  0.4058630000000  0.5572430000000 1.0
C      1  0.4413870000000  0.5252650000000  0.4038210000000 1.0
C      1  0.4905020000000  0.4750420000000  0.5710860000000 1.0
C      1  0.4358750000000  0.4883090000000  0.4713650000000 1.0
C      1  0.5809220000000  0.4549730000000  0.5023460000000 1.0
C      1  0.4538520000000  0.4839480000000  0.4083530000000 1.0
C      1  0.4201680000000  0.4225980000000  0.5175430000000 1.0
C      1  0.4612160000000  0.5082410000000  0.4605400000000 1.0
C      1  0.4243700000000  0.5626290000000  0.4767930000000 1.0
C      1  0.3891040000000  0.4817930000000  0.4935780000000 1.0
C      1  0.3930550000000  0.5260790000000  0.5579100000000 1.0
C      1  0.4687110000000  0.5237940000000  0.5790310000000 1.0
C      1  0.5727820000000  0.4700400000000  0.5772960000000 1.0
C      1  0.5118810000000  0.5561540000000  0.4614380000000 1.0
C      1  0.4908250000000  0.5986920000000  0.4918720000000 1.0
C      1  0.5258190000000  0.4998150000000  0.4147000000000 1.0
C      1  0.3777190000000  0.4938480000000  0.4650240000000 1.0
C      1  0.5865080000000  0.4303300000000  0.4807270000000 1.0
C      1  0.5066600000000  0.4249820000000  0.5195520000000 1.0
C      1  0.4708410000000  0.5223210000000  0.4034100000000 1.0
C      1  0.5672200000000  0.4777200000000  0.4320090000000 1.0
C      1  0.6059230000000  0.4844900000000  0.4942050000000 1.0
END
