TITL C-2847955-7945-465 0.00121584875484064 125000 -196.058714609462 0 0 34 (C1) n - 1
REM
REM in /home/bkarasulu/work/CARBON/AIRSS/Generating-Clusters/AIREBO/with-SteepDescent/Only-C1/SD-CG-opt/Try1-1.4A-POS3A/HFTN-CG
REM
REM
REM
REM
REM
REM ./C.cell (11c1c37f851c82e70ff6c80c92926a4b)
REM
REM compiler GCC version 9.2.1 20190827 (Red Hat 9.2.1-1)
REM options -cpp -mtune=generic -march=x86-64 -g -O0 -fpre-include=/usr/include/finclude/math-vector-fortran.h
REM seed -1283023235 1519111179 -1855495630 1683486274 -1565374793 45212102 -1922653802 824929237 -1318770323 -355464887 -1765621759 1840115330 -1226764082 132218964 958058038 978714406 69150935 1483119267 -198434858 2023393758 -1596843996 -257466026 -1625594863 1911267876 -358558097 -1554657071 1988699448 1825736429 2086775553 578809057 -1744336274 682808598 912142184
REM
CELL 1.54180   50.00000   50.00000   50.00000   90.00000   90.00000   90.00000
LATT -1
SFAC C  
C      1  0.5243370000000  0.5446090000000  0.4801910000000 1.0
C      1  0.4923550000000  0.4697810000000  0.5582400000000 1.0
C      1  0.5555740000000  0.5195440000000  0.5086220000000 1.0
C      1  0.4442560000000  0.4591320000000  0.5165950000000 1.0
C      1  0.5490520000000  0.4920670000000  0.5120780000000 1.0
C      1  0.4521390000000  0.4840890000000  0.5308640000000 1.0
C      1  0.4658660000000  0.4833840000000  0.4540440000000 1.0
C      1  0.5082860000000  0.4627550000000  0.5362140000000 1.0
C      1  0.4720400000000  0.5611440000000  0.5090430000000 1.0
C      1  0.4656040000000  0.4863130000000  0.5541750000000 1.0
C      1  0.5108190000000  0.4556360000000  0.4642750000000 1.0
C      1  0.5127480000000  0.5177830000000  0.4359140000000 1.0
C      1  0.4694980000000  0.4862310000000  0.5020270000000 1.0
C      1  0.4716060000000  0.4522790000000  0.5007820000000 1.0
C      1  0.4636060000000  0.5004680000000  0.4757020000000 1.0
C      1  0.5004810000000  0.4899820000000  0.5016510000000 1.0
C      1  0.5548780000000  0.4742650000000  0.4909010000000 1.0
C      1  0.4925950000000  0.5341230000000  0.5544190000000 1.0
C      1  0.5213480000000  0.4885070000000  0.5246710000000 1.0
C      1  0.4919570000000  0.5030500000000  0.5654980000000 1.0
C      1  0.5118590000000  0.4942320000000  0.4741890000000 1.0
C      1  0.5347280000000  0.5385810000000  0.5055410000000 1.0
C      1  0.4997400000000  0.4447110000000  0.5171120000000 1.0
C      1  0.5080520000000  0.4937950000000  0.4280520000000 1.0
C      1  0.4985550000000  0.4421910000000  0.4848970000000 1.0
C      1  0.4664000000000  0.5493850000000  0.4850640000000 1.0
C      1  0.5351450000000  0.4720100000000  0.4712520000000 1.0
C      1  0.4942930000000  0.4752460000000  0.4476990000000 1.0
C      1  0.4878460000000  0.5535760000000  0.5285220000000 1.0
C      1  0.5063240000000  0.5246510000000  0.4662830000000 1.0
C      1  0.4757590000000  0.5259390000000  0.4733110000000 1.0
C      1  0.5280740000000  0.5692040000000  0.4685350000000 1.0
C      1  0.5180180000000  0.5402910000000  0.5295340000000 1.0
C      1  0.5161610000000  0.5110470000000  0.5441040000000 1.0
END
