TITL C-2848509-3138-294 -5.778953623256e-05 125000 -164.890064955571 0 0 31 (C1) n - 1
REM
REM in /home/bkarasulu/work/CARBON/AIRSS/Generating-Clusters/AIREBO/with-SteepDescent/Only-C1/SD-CG-opt/Try1-1.4A-POS3A/HFTN-CG
REM
REM
REM
REM
REM
REM ./C.cell (11c1c37f851c82e70ff6c80c92926a4b)
REM
REM compiler GCC version 9.2.1 20190827 (Red Hat 9.2.1-1)
REM options -cpp -mtune=generic -march=x86-64 -g -O0 -fpre-include=/usr/include/finclude/math-vector-fortran.h
REM seed 975753343 1894322144 -1270257076 -2046961828 314916178 161352631 1743833931 -398417268 600612552 394168162 626317882 -1997340837 -1107548763 173762190 139953836 979203030 1261453092 689798101 -117884568 -802187193 2085283943 -2102421325 -809783708 1326086546 -1422995240 1597922960 1931409823 -223490950 578865550 796854632 707480991 -1145186914 664274409
REM
CELL 1.54180   50.00000   50.00000   50.00000   90.00000   90.00000   90.00000
LATT -1
SFAC C  
C      1  0.4564720000000  0.4848260000000  0.4847070000000 1.0
C      1  0.5214470000000  0.4797540000000  0.5228260000000 1.0
C      1  0.5035640000000  0.5080700000000  0.5289720000000 1.0
C      1  0.5483710000000  0.4781750000000  0.5027850000000 1.0
C      1  0.5218170000000  0.5029430000000  0.4610700000000 1.0
C      1  0.4697380000000  0.5521890000000  0.4732420000000 1.0
C      1  0.5234250000000  0.4482920000000  0.4590910000000 1.0
C      1  0.4988360000000  0.4423930000000  0.4628190000000 1.0
C      1  0.4560040000000  0.4886650000000  0.5362720000000 1.0
C      1  0.4916570000000  0.5121790000000  0.4533850000000 1.0
C      1  0.5535000000000  0.4813790000000  0.5348550000000 1.0
C      1  0.5357400000000  0.4728100000000  0.4685100000000 1.0
C      1  0.5569970000000  0.4957810000000  0.4779720000000 1.0
C      1  0.5026340000000  0.4626880000000  0.5432860000000 1.0
C      1  0.4426610000000  0.4974440000000  0.5077090000000 1.0
C      1  0.4787820000000  0.4831380000000  0.5478940000000 1.0
C      1  0.5426240000000  0.5284660000000  0.5392450000000 1.0
C      1  0.5386730000000  0.5035450000000  0.5498250000000 1.0
C      1  0.5155530000000  0.5424840000000  0.4848500000000 1.0
C      1  0.4563220000000  0.5248220000000  0.5145960000000 1.0
C      1  0.5360580000000  0.5323290000000  0.5100020000000 1.0
C      1  0.4717500000000  0.4930820000000  0.4573070000000 1.0
C      1  0.5116010000000  0.5115650000000  0.4987400000000 1.0
C      1  0.4769980000000  0.5233760000000  0.5317850000000 1.0
C      1  0.5014810000000  0.4873050000000  0.4830860000000 1.0
C      1  0.4811770000000  0.4645740000000  0.4734220000000 1.0
C      1  0.5430650000000  0.5239120000000  0.4774760000000 1.0
C      1  0.5095590000000  0.4928640000000  0.5586060000000 1.0
C      1  0.4553320000000  0.5449480000000  0.4952540000000 1.0
C      1  0.4834520000000  0.5389900000000  0.4535490000000 1.0
C      1  0.4147110000000  0.4970140000000  0.5068640000000 1.0
END
