TITL C-2848503-6230-656 -0.0497337940342521 125000 -1069.08915796234 0 0 199 (C1) n - 1
REM
REM in /home/bkarasulu/work/CARBON/AIRSS/Generating-Clusters/AIREBO/with-SteepDescent/Only-C1/SD-CG-opt/Try1-1.4A-POS3A/HFTN-CG
REM
REM
REM
REM
REM
REM ./C.cell (11c1c37f851c82e70ff6c80c92926a4b)
REM
REM compiler GCC version 9.2.1 20190827 (Red Hat 9.2.1-1)
REM options -cpp -mtune=generic -march=x86-64 -g -O0 -fpre-include=/usr/include/finclude/math-vector-fortran.h
REM seed -448811655 655145452 487163061 -2145233671 -1980606399 -1655431482 1131290986 628632463 -1335618375 1476974069 1130452267 907309988 1985066991 -829676957 -1964748981 -1154531674 277893059 -1856907065 -27300486 1478625906 -1007877469 -180769297 1305546685 818105155 -527524154 1009721471 -489965288 997528579 -1141111663 580107995 1244313692 625785402 891544695
REM
CELL 1.54180   50.00000   50.00000   50.00000   90.00000   90.00000   90.00000
LATT -1
SFAC C  
C      1  0.4210970000000  0.5142140000000  0.4313970000000 1.0
C      1  0.5525200000000  0.5129380000000  0.3817110000000 1.0
C      1  0.4297700000000  0.5926060000000  0.5172970000000 1.0
C      1  0.5945640000000  0.5509390000000  0.5655180000000 1.0
C      1  0.5545880000000  0.4514390000000  0.5034470000000 1.0
C      1  0.4605010000000  0.5417900000000  0.5094060000000 1.0
C      1  0.5061630000000  0.5619960000000  0.4946390000000 1.0
C      1  0.5413280000000  0.5989910000000  0.5060560000000 1.0
C      1  0.5496930000000  0.4020580000000  0.5192340000000 1.0
C      1  0.5990080000000  0.4983430000000  0.5335450000000 1.0
C      1  0.5978750000000  0.5243810000000  0.4917900000000 1.0
C      1  0.4930890000000  0.6103020000000  0.5336230000000 1.0
C      1  0.5040130000000  0.4469170000000  0.5211860000000 1.0
C      1  0.4981430000000  0.5969480000000  0.5835190000000 1.0
C      1  0.5288140000000  0.4257740000000  0.5308890000000 1.0
C      1  0.4014640000000  0.5523160000000  0.5181820000000 1.0
C      1  0.4741880000000  0.5706670000000  0.4316590000000 1.0
C      1  0.5142660000000  0.5180600000000  0.5924300000000 1.0
C      1  0.4657390000000  0.5231490000000  0.4123180000000 1.0
C      1  0.4281610000000  0.4705280000000  0.5690750000000 1.0
C      1  0.5533110000000  0.5539670000000  0.5338060000000 1.0
C      1  0.5700460000000  0.5253750000000  0.5383170000000 1.0
C      1  0.5081270000000  0.4509600000000  0.5657990000000 1.0
C      1  0.4448790000000  0.4261090000000  0.4675610000000 1.0
C      1  0.5108260000000  0.4748770000000  0.5355920000000 1.0
C      1  0.4826820000000  0.4779370000000  0.4148260000000 1.0
C      1  0.4750400000000  0.4529960000000  0.3937650000000 1.0
C      1  0.5201730000000  0.4693260000000  0.4630120000000 1.0
C      1  0.4639920000000  0.4478380000000  0.5697700000000 1.0
C      1  0.5686230000000  0.4863510000000  0.5768220000000 1.0
C      1  0.5858440000000  0.5957570000000  0.4957710000000 1.0
C      1  0.5249220000000  0.5235730000000  0.5166910000000 1.0
C      1  0.5385710000000  0.4397730000000  0.5574750000000 1.0
C      1  0.5225060000000  0.4596160000000  0.4956120000000 1.0
C      1  0.5688720000000  0.5385830000000  0.5810350000000 1.0
C      1  0.5151610000000  0.4463010000000  0.4447340000000 1.0
C      1  0.5408830000000  0.4844810000000  0.5405390000000 1.0
C      1  0.5817120000000  0.4693680000000  0.4921400000000 1.0
C      1  0.5876710000000  0.4444540000000  0.4697710000000 1.0
C      1  0.4500420000000  0.4881730000000  0.6121040000000 1.0
C      1  0.4874490000000  0.6058740000000  0.4748580000000 1.0
C      1  0.5118510000000  0.4750400000000  0.3975910000000 1.0
C      1  0.4787560000000  0.5175460000000  0.4788420000000 1.0
C      1  0.5235600000000  0.3833920000000  0.4778890000000 1.0
C      1  0.4622660000000  0.4718000000000  0.5050620000000 1.0
C      1  0.5422530000000  0.4272280000000  0.4829940000000 1.0
C      1  0.5678180000000  0.5356290000000  0.4299870000000 1.0
C      1  0.4645480000000  0.3904380000000  0.5030620000000 1.0
C      1  0.5682620000000  0.4688240000000  0.4065680000000 1.0
C      1  0.4422730000000  0.5665150000000  0.4994190000000 1.0
C      1  0.6062420000000  0.5450140000000  0.5150380000000 1.0
C      1  0.5601030000000  0.5133950000000  0.5659830000000 1.0
C      1  0.5432740000000  0.4498370000000  0.5958370000000 1.0
C      1  0.5453860000000  0.4202860000000  0.5820520000000 1.0
C      1  0.4441310000000  0.5122930000000  0.4557750000000 1.0
C      1  0.6348090000000  0.4720010000000  0.4820210000000 1.0
C      1  0.5866920000000  0.4545220000000  0.4391260000000 1.0
C      1  0.4594610000000  0.4800420000000  0.5597840000000 1.0
C      1  0.4161510000000  0.4183420000000  0.5014650000000 1.0
C      1  0.3890990000000  0.4861120000000  0.4585620000000 1.0
C      1  0.5028720000000  0.5701550000000  0.4460560000000 1.0
C      1  0.4011840000000  0.5214920000000  0.5670570000000 1.0
C      1  0.5558250000000  0.4517720000000  0.4637610000000 1.0
C      1  0.5367130000000  0.5936830000000  0.4786070000000 1.0
C      1  0.4950100000000  0.4792490000000  0.4995460000000 1.0
C      1  0.4815850000000  0.6236030000000  0.4984120000000 1.0
C      1  0.3955920000000  0.5410490000000  0.4939340000000 1.0
C      1  0.5097390000000  0.5291130000000  0.4867600000000 1.0
C      1  0.5350910000000  0.5124800000000  0.4090980000000 1.0
C      1  0.4865660000000  0.5611150000000  0.5197300000000 1.0
C      1  0.5239850000000  0.5963640000000  0.5762110000000 1.0
C      1  0.4660520000000  0.4091240000000  0.4596160000000 1.0
C      1  0.5564100000000  0.5833100000000  0.4614950000000 1.0
C      1  0.5304420000000  0.4797300000000  0.5858740000000 1.0
C      1  0.3967920000000  0.4611090000000  0.5167340000000 1.0
C      1  0.4768760000000  0.5710400000000  0.5802770000000 1.0
C      1  0.5018810000000  0.5020170000000  0.5195940000000 1.0
C      1  0.4645100000000  0.5235160000000  0.5951870000000 1.0
C      1  0.4524170000000  0.4149270000000  0.5496030000000 1.0
C      1  0.5783830000000  0.4504450000000  0.5270810000000 1.0
C      1  0.4522600000000  0.4872890000000  0.5284350000000 1.0
C      1  0.5119460000000  0.5358490000000  0.4214680000000 1.0
C      1  0.5567300000000  0.5141760000000  0.5091020000000 1.0
C      1  0.4975860000000  0.4843030000000  0.4448930000000 1.0
C      1  0.5369790000000  0.4866340000000  0.5082860000000 1.0
C      1  0.5755840000000  0.4943790000000  0.3978730000000 1.0
C      1  0.4139490000000  0.4612670000000  0.4246190000000 1.0
C      1  0.5753320000000  0.5089670000000  0.4477370000000 1.0
C      1  0.5227940000000  0.4264700000000  0.6039180000000 1.0
C      1  0.4869310000000  0.3852740000000  0.5221390000000 1.0
C      1  0.4587860000000  0.5719050000000  0.5354020000000 1.0
C      1  0.4107730000000  0.4779190000000  0.5427860000000 1.0
C      1  0.4734600000000  0.5075960000000  0.4396580000000 1.0
C      1  0.5283660000000  0.5348430000000  0.5468000000000 1.0
C      1  0.4279040000000  0.5534030000000  0.4354450000000 1.0
C      1  0.4184580000000  0.5330640000000  0.5330700000000 1.0
C      1  0.4231480000000  0.5920860000000  0.4641060000000 1.0
C      1  0.4480470000000  0.4651920000000  0.5948440000000 1.0
C      1  0.4699210000000  0.5260430000000  0.5380950000000 1.0
C      1  0.5168450000000  0.5701800000000  0.5323020000000 1.0
C      1  0.4850400000000  0.5285170000000  0.6165910000000 1.0
C      1  0.4223320000000  0.5628890000000  0.4740560000000 1.0
C      1  0.3872790000000  0.4661190000000  0.4396610000000 1.0
C      1  0.4126270000000  0.5143000000000  0.4905210000000 1.0
C      1  0.5017930000000  0.5056020000000  0.4096750000000 1.0
C      1  0.5923790000000  0.4741420000000  0.5472720000000 1.0
C      1  0.4349490000000  0.5135030000000  0.6050100000000 1.0
C      1  0.3955480000000  0.4355520000000  0.5096720000000 1.0
C      1  0.4324910000000  0.4457400000000  0.4489250000000 1.0
C      1  0.3920530000000  0.5133700000000  0.4477510000000 1.0
C      1  0.5301730000000  0.4098620000000  0.4575080000000 1.0
C      1  0.4861560000000  0.4358820000000  0.5462320000000 1.0
C      1  0.5184520000000  0.6015570000000  0.5236800000000 1.0
C      1  0.4784230000000  0.4430680000000  0.4990260000000 1.0
C      1  0.4519790000000  0.4850830000000  0.4275760000000 1.0
C      1  0.6142450000000  0.4599040000000  0.4952160000000 1.0
C      1  0.4825230000000  0.4021200000000  0.5478040000000 1.0
C      1  0.4239390000000  0.4886620000000  0.4112650000000 1.0
C      1  0.4442070000000  0.5459250000000  0.5486580000000 1.0
C      1  0.5637990000000  0.5655280000000  0.5628240000000 1.0
C      1  0.5779400000000  0.5572670000000  0.5024830000000 1.0
C      1  0.4753170000000  0.4968910000000  0.6227300000000 1.0
C      1  0.5864280000000  0.4981160000000  0.5053370000000 1.0
C      1  0.4859910000000  0.5430130000000  0.4577770000000 1.0
C      1  0.4977220000000  0.5462690000000  0.5904370000000 1.0
C      1  0.5271540000000  0.5053110000000  0.5636610000000 1.0
C      1  0.4338310000000  0.4352580000000  0.4178920000000 1.0
C      1  0.5496600000000  0.4950550000000  0.4302990000000 1.0
C      1  0.4522860000000  0.5792030000000  0.4532240000000 1.0
C      1  0.5715250000000  0.5278870000000  0.4033160000000 1.0
C      1  0.6139760000000  0.4979800000000  0.4468640000000 1.0
C      1  0.4381910000000  0.5089500000000  0.5208270000000 1.0
C      1  0.4345630000000  0.4660600000000  0.4872750000000 1.0
C      1  0.5014920000000  0.4257080000000  0.4657090000000 1.0
C      1  0.5071020000000  0.5539130000000  0.5605410000000 1.0
C      1  0.4287980000000  0.6104330000000  0.4883580000000 1.0
C      1  0.5092370000000  0.4193630000000  0.4250390000000 1.0
C      1  0.4455420000000  0.5115160000000  0.3983370000000 1.0
C      1  0.5366300000000  0.5591810000000  0.5049200000000 1.0
C      1  0.4694050000000  0.5970040000000  0.5157710000000 1.0
C      1  0.3998610000000  0.5067770000000  0.5408430000000 1.0
C      1  0.4576310000000  0.5929090000000  0.4841380000000 1.0
C      1  0.4723000000000  0.4157110000000  0.5772610000000 1.0
C      1  0.4874570000000  0.4051750000000  0.4852970000000 1.0
C      1  0.5309970000000  0.5032630000000  0.4807390000000 1.0
C      1  0.5824850000000  0.5822230000000  0.4716680000000 1.0
C      1  0.4786030000000  0.4091850000000  0.4329220000000 1.0
C      1  0.4451800000000  0.4359940000000  0.5000930000000 1.0
C      1  0.5376640000000  0.4680340000000  0.4158490000000 1.0
C      1  0.6025310000000  0.5305320000000  0.5418660000000 1.0
C      1  0.4001460000000  0.5411560000000  0.4294310000000 1.0
C      1  0.4195850000000  0.4468050000000  0.5462470000000 1.0
C      1  0.4463690000000  0.5183620000000  0.4891880000000 1.0
C      1  0.6362000000000  0.4852890000000  0.4581140000000 1.0
C      1  0.5589910000000  0.5174490000000  0.4751700000000 1.0
C      1  0.4393310000000  0.4324040000000  0.5334700000000 1.0
C      1  0.5924050000000  0.4814550000000  0.4358450000000 1.0
C      1  0.5896440000000  0.4186390000000  0.4900270000000 1.0
C      1  0.5428830000000  0.4221590000000  0.4292400000000 1.0
C      1  0.4835740000000  0.4880640000000  0.4730380000000 1.0
C      1  0.4630410000000  0.4305050000000  0.4136040000000 1.0
C      1  0.4813250000000  0.5470430000000  0.4148460000000 1.0
C      1  0.4307200000000  0.5297300000000  0.5753550000000 1.0
C      1  0.4581720000000  0.5123510000000  0.5653140000000 1.0
C      1  0.4918540000000  0.4805020000000  0.5701400000000 1.0
C      1  0.5648650000000  0.4080220000000  0.4960240000000 1.0
C      1  0.4360020000000  0.4786520000000  0.4567620000000 1.0
C      1  0.4495140000000  0.5580120000000  0.5800010000000 1.0
C      1  0.5584460000000  0.4840410000000  0.6046870000000 1.0
C      1  0.5266140000000  0.5666630000000  0.4238810000000 1.0
C      1  0.5189470000000  0.4430860000000  0.4051460000000 1.0
C      1  0.5364630000000  0.5808200000000  0.5579830000000 1.0
C      1  0.6034330000000  0.5236560000000  0.4600080000000 1.0
C      1  0.5472860000000  0.4828650000000  0.4589530000000 1.0
C      1  0.4013120000000  0.5422440000000  0.4631330000000 1.0
C      1  0.5657230000000  0.5822860000000  0.5196000000000 1.0
C      1  0.5644990000000  0.4396260000000  0.4235920000000 1.0
C      1  0.4375690000000  0.3967490000000  0.4991980000000 1.0
C      1  0.4949550000000  0.4332200000000  0.5903960000000 1.0
C      1  0.4956360000000  0.5078070000000  0.5510670000000 1.0
C      1  0.4065510000000  0.4826100000000  0.4832740000000 1.0
C      1  0.4757050000000  0.5986280000000  0.5597400000000 1.0
C      1  0.4448090000000  0.6010670000000  0.5459060000000 1.0
C      1  0.5557900000000  0.5480200000000  0.4802270000000 1.0
C      1  0.5999380000000  0.4381470000000  0.5090760000000 1.0
C      1  0.4834700000000  0.4485910000000  0.4339020000000 1.0
C      1  0.5948820000000  0.5527480000000  0.4732640000000 1.0
C      1  0.5165030000000  0.4149500000000  0.5010940000000 1.0
C      1  0.4834080000000  0.4545160000000  0.4673900000000 1.0
C      1  0.4523510000000  0.5452020000000  0.4533300000000 1.0
C      1  0.5193090000000  0.5349070000000  0.4546510000000 1.0
C      1  0.4963020000000  0.4936420000000  0.6005980000000 1.0
C      1  0.5063430000000  0.4627500000000  0.6028460000000 1.0
C      1  0.5468680000000  0.5536450000000  0.4478920000000 1.0
C      1  0.5078920000000  0.5847380000000  0.4722220000000 1.0
C      1  0.3937860000000  0.4945240000000  0.5111040000000 1.0
C      1  0.4026130000000  0.5784710000000  0.5238070000000 1.0
C      1  0.5609680000000  0.4627220000000  0.5535910000000 1.0
C      1  0.5121480000000  0.3825150000000  0.5066450000000 1.0
END
