TITL C-2847957-7266-198 -0.00090772248702255 125000 -521.62130950108 0 0 97 (C1) n - 1
REM
REM in /home/bkarasulu/work/CARBON/AIRSS/Generating-Clusters/AIREBO/with-SteepDescent/Only-C1/SD-CG-opt/Try1-1.4A-POS3A/HFTN-CG
REM
REM
REM
REM
REM
REM ./C.cell (11c1c37f851c82e70ff6c80c92926a4b)
REM
REM compiler GCC version 9.2.1 20190827 (Red Hat 9.2.1-1)
REM options -cpp -mtune=generic -march=x86-64 -g -O0 -fpre-include=/usr/include/finclude/math-vector-fortran.h
REM seed 2107100367 1016877760 -102923656 1518876793 -2102899338 1777904487 246341324 -120328182 1323968633 1610266631 848045301 1996257669 395551628 543502889 -1502542507 1818413631 1991198709 -447837988 -1152834911 -1225647140 1500863748 -1273836338 2020988102 1757328458 312493029 995223797 1295268347 -1693303179 -579924376 -1340267421 738939445 -1742476141 -1521385789
REM
CELL 1.54180   50.00000   50.00000   50.00000   90.00000   90.00000   90.00000
LATT -1
SFAC C  
C      1  0.5190040000000  0.5335710000000  0.4557150000000 1.0
C      1  0.5195880000000  0.4624720000000  0.5276900000000 1.0
C      1  0.4525330000000  0.4232980000000  0.4638900000000 1.0
C      1  0.5214160000000  0.5924080000000  0.4970960000000 1.0
C      1  0.4311450000000  0.4431000000000  0.5301550000000 1.0
C      1  0.5312070000000  0.5544920000000  0.5424930000000 1.0
C      1  0.5183650000000  0.4417760000000  0.4937940000000 1.0
C      1  0.4220570000000  0.5508960000000  0.4513410000000 1.0
C      1  0.5753840000000  0.5017620000000  0.5225370000000 1.0
C      1  0.4866360000000  0.5143900000000  0.4195840000000 1.0
C      1  0.5542180000000  0.4269280000000  0.5241700000000 1.0
C      1  0.4570930000000  0.5167550000000  0.4489660000000 1.0
C      1  0.5387650000000  0.5477990000000  0.5100250000000 1.0
C      1  0.4979580000000  0.5357320000000  0.5727380000000 1.0
C      1  0.4879070000000  0.5295740000000  0.4469030000000 1.0
C      1  0.4322380000000  0.4669790000000  0.5449140000000 1.0
C      1  0.5031220000000  0.4212010000000  0.4715710000000 1.0
C      1  0.5193880000000  0.5078650000000  0.4132030000000 1.0
C      1  0.4455440000000  0.5432170000000  0.4351220000000 1.0
C      1  0.4611880000000  0.4983900000000  0.4094440000000 1.0
C      1  0.5418010000000  0.5149790000000  0.5789180000000 1.0
C      1  0.4843500000000  0.4405370000000  0.5333620000000 1.0
C      1  0.4970070000000  0.4384010000000  0.4426430000000 1.0
C      1  0.4443230000000  0.5207520000000  0.4936720000000 1.0
C      1  0.4688130000000  0.4687030000000  0.5292620000000 1.0
C      1  0.4605520000000  0.4675780000000  0.5623450000000 1.0
C      1  0.5001180000000  0.5585490000000  0.4222900000000 1.0
C      1  0.5038690000000  0.5646340000000  0.4883200000000 1.0
C      1  0.4968150000000  0.4818800000000  0.5151770000000 1.0
C      1  0.4853830000000  0.5670120000000  0.5711310000000 1.0
C      1  0.4985040000000  0.4844630000000  0.4263250000000 1.0
C      1  0.4178250000000  0.4550030000000  0.4783970000000 1.0
C      1  0.5650640000000  0.5541410000000  0.5378060000000 1.0
C      1  0.4779130000000  0.4624000000000  0.4390910000000 1.0
C      1  0.4163110000000  0.4834730000000  0.4751630000000 1.0
C      1  0.5656540000000  0.4479450000000  0.5477710000000 1.0
C      1  0.4716640000000  0.5076030000000  0.4783020000000 1.0
C      1  0.5287680000000  0.5363230000000  0.5687630000000 1.0
C      1  0.5097010000000  0.4782740000000  0.5650610000000 1.0
C      1  0.5476600000000  0.4824050000000  0.4690420000000 1.0
C      1  0.5142400000000  0.5405160000000  0.4075270000000 1.0
C      1  0.5356300000000  0.4926150000000  0.4389020000000 1.0
C      1  0.4803940000000  0.5424430000000  0.5236020000000 1.0
C      1  0.4618810000000  0.4950400000000  0.5824260000000 1.0
C      1  0.5449890000000  0.4925510000000  0.5228270000000 1.0
C      1  0.5396520000000  0.4319910000000  0.5608220000000 1.0
C      1  0.5544380000000  0.5690770000000  0.4694260000000 1.0
C      1  0.5366340000000  0.4884870000000  0.5724400000000 1.0
C      1  0.4998920000000  0.5254730000000  0.5434120000000 1.0
C      1  0.4723860000000  0.5222150000000  0.5908040000000 1.0
C      1  0.5335780000000  0.4719360000000  0.4981760000000 1.0
C      1  0.4515890000000  0.5320320000000  0.5208970000000 1.0
C      1  0.5744740000000  0.4976820000000  0.4753190000000 1.0
C      1  0.4989180000000  0.5652770000000  0.5411800000000 1.0
C      1  0.4669640000000  0.5059930000000  0.5548090000000 1.0
C      1  0.5270230000000  0.5087200000000  0.4751860000000 1.0
C      1  0.4390250000000  0.5448410000000  0.4744490000000 1.0
C      1  0.4811670000000  0.5981700000000  0.4883270000000 1.0
C      1  0.4258740000000  0.4931110000000  0.5340970000000 1.0
C      1  0.5696750000000  0.5255630000000  0.4799370000000 1.0
C      1  0.5096470000000  0.4456380000000  0.5555190000000 1.0
C      1  0.4694290000000  0.5506390000000  0.4661770000000 1.0
C      1  0.5249550000000  0.4500840000000  0.4553860000000 1.0
C      1  0.5497070000000  0.4355100000000  0.4981920000000 1.0
C      1  0.5426380000000  0.5729730000000  0.4934570000000 1.0
C      1  0.5502450000000  0.5197910000000  0.4349160000000 1.0
C      1  0.4809370000000  0.4456830000000  0.5737510000000 1.0
C      1  0.4854880000000  0.4332670000000  0.4958510000000 1.0
C      1  0.5885260000000  0.4882430000000  0.4968940000000 1.0
C      1  0.4508670000000  0.4493970000000  0.4841410000000 1.0
C      1  0.4273250000000  0.4958670000000  0.5011640000000 1.0
C      1  0.4632260000000  0.4759120000000  0.4666980000000 1.0
C      1  0.5448120000000  0.4715480000000  0.5473550000000 1.0
C      1  0.5050660000000  0.5646180000000  0.4547630000000 1.0
C      1  0.5686710000000  0.5320880000000  0.5121610000000 1.0
C      1  0.4944920000000  0.4948070000000  0.5446660000000 1.0
C      1  0.4531330000000  0.4796080000000  0.4281910000000 1.0
C      1  0.5506350000000  0.4485350000000  0.4699470000000 1.0
C      1  0.5521360000000  0.5401380000000  0.4596780000000 1.0
C      1  0.4360480000000  0.4910090000000  0.4529330000000 1.0
C      1  0.4783940000000  0.5833910000000  0.4643880000000 1.0
C      1  0.4764100000000  0.4151950000000  0.4530670000000 1.0
C      1  0.4999640000000  0.4915930000000  0.4858970000000 1.0
C      1  0.4868840000000  0.5352890000000  0.4910020000000 1.0
C      1  0.4663950000000  0.5528280000000  0.5896250000000 1.0
C      1  0.4478350000000  0.4721330000000  0.5084580000000 1.0
C      1  0.5100810000000  0.4782440000000  0.4563050000000 1.0
C      1  0.5917780000000  0.4888640000000  0.5456730000000 1.0
C      1  0.4579420000000  0.4336220000000  0.5134380000000 1.0
C      1  0.5012530000000  0.4115910000000  0.5364020000000 1.0
C      1  0.5235360000000  0.5141150000000  0.5252750000000 1.0
C      1  0.5295150000000  0.4129060000000  0.5381510000000 1.0
C      1  0.4701100000000  0.5655950000000  0.4356190000000 1.0
C      1  0.5185810000000  0.5272510000000  0.4978800000000 1.0
C      1  0.5913280000000  0.4643430000000  0.5519080000000 1.0
C      1  0.4921380000000  0.5817830000000  0.5152330000000 1.0
C      1  0.4445980000000  0.5145060000000  0.5410770000000 1.0
END
