TITL C-2848498-1409-433 0.000491038048821851 125000 -757.158201817396 0 0 138 (C1) n - 1
REM
REM in /home/bkarasulu/work/CARBON/AIRSS/Generating-Clusters/AIREBO/with-SteepDescent/Only-C1/SD-CG-opt/Try1-1.4A-POS3A/HFTN-CG
REM
REM
REM
REM
REM
REM ./C.cell (11c1c37f851c82e70ff6c80c92926a4b)
REM
REM compiler GCC version 9.2.1 20190827 (Red Hat 9.2.1-1)
REM options -cpp -mtune=generic -march=x86-64 -g -O0 -fpre-include=/usr/include/finclude/math-vector-fortran.h
REM seed 1010509784 70211695 1269571883 950634619 -1466623852 1005860725 184043206 -656683247 -2128698999 433526076 1663058993 2037230020 368692048 1775990686 -1459497333 132262242 1964177410 -1742944839 -1260752892 -2053934058 -1915670981 564675262 395977745 -468371035 -612825983 -377823765 -958472129 -1225841400 1548624642 -1700968986 513349329 -1213834122 1597683457
REM
CELL 1.54180   50.00000   50.00000   50.00000   90.00000   90.00000   90.00000
LATT -1
SFAC C  
C      1  0.4746490000000  0.5862060000000  0.4981110000000 1.0
C      1  0.4743360000000  0.4502600000000  0.4844470000000 1.0
C      1  0.4467470000000  0.5400440000000  0.4933280000000 1.0
C      1  0.5422970000000  0.5702280000000  0.4819370000000 1.0
C      1  0.5082600000000  0.5166850000000  0.5732140000000 1.0
C      1  0.5149510000000  0.5062740000000  0.4852080000000 1.0
C      1  0.5015710000000  0.5043520000000  0.4138430000000 1.0
C      1  0.5134170000000  0.5644600000000  0.4152600000000 1.0
C      1  0.5419910000000  0.4372630000000  0.4610750000000 1.0
C      1  0.4793480000000  0.5321690000000  0.5785820000000 1.0
C      1  0.4046690000000  0.5563000000000  0.4668800000000 1.0
C      1  0.4254330000000  0.4401460000000  0.5067430000000 1.0
C      1  0.4478160000000  0.5193570000000  0.4698650000000 1.0
C      1  0.5313860000000  0.4579770000000  0.5884070000000 1.0
C      1  0.4390090000000  0.4462020000000  0.4187150000000 1.0
C      1  0.5299630000000  0.5407340000000  0.5662500000000 1.0
C      1  0.4755780000000  0.5576860000000  0.5694900000000 1.0
C      1  0.4815360000000  0.4128030000000  0.4263030000000 1.0
C      1  0.4611290000000  0.4913530000000  0.4770790000000 1.0
C      1  0.5663250000000  0.4245790000000  0.5042540000000 1.0
C      1  0.4588120000000  0.4025150000000  0.5143560000000 1.0
C      1  0.4999510000000  0.4633930000000  0.5338850000000 1.0
C      1  0.4908750000000  0.4995360000000  0.5193460000000 1.0
C      1  0.4269820000000  0.4521820000000  0.5870360000000 1.0
C      1  0.5942200000000  0.4900400000000  0.5004310000000 1.0
C      1  0.5305610000000  0.4789890000000  0.4555480000000 1.0
C      1  0.4655980000000  0.4982020000000  0.5420610000000 1.0
C      1  0.5046390000000  0.4091300000000  0.5404990000000 1.0
C      1  0.5649420000000  0.4751610000000  0.5519080000000 1.0
C      1  0.4948290000000  0.5665700000000  0.5511460000000 1.0
C      1  0.5594960000000  0.5290870000000  0.5659530000000 1.0
C      1  0.5182090000000  0.5468270000000  0.5975250000000 1.0
C      1  0.5735220000000  0.5370770000000  0.4974270000000 1.0
C      1  0.4999350000000  0.5473350000000  0.5323190000000 1.0
C      1  0.5364990000000  0.4912390000000  0.6097700000000 1.0
C      1  0.4763030000000  0.4926870000000  0.5738720000000 1.0
C      1  0.5236470000000  0.5360490000000  0.5001290000000 1.0
C      1  0.4851060000000  0.4107930000000  0.5204180000000 1.0
C      1  0.5675680000000  0.5538590000000  0.5245290000000 1.0
C      1  0.4794470000000  0.4714640000000  0.4149820000000 1.0
C      1  0.4327600000000  0.5023350000000  0.5679680000000 1.0
C      1  0.5205270000000  0.4161280000000  0.4558480000000 1.0
C      1  0.4611790000000  0.4592740000000  0.4409470000000 1.0
C      1  0.4357800000000  0.4707990000000  0.5614690000000 1.0
C      1  0.5093900000000  0.4716600000000  0.6104300000000 1.0
C      1  0.4515610000000  0.5662700000000  0.4485700000000 1.0
C      1  0.5211730000000  0.4516380000000  0.4376360000000 1.0
C      1  0.5395680000000  0.5635180000000  0.5123770000000 1.0
C      1  0.5487920000000  0.4759050000000  0.5749480000000 1.0
C      1  0.4953870000000  0.5407240000000  0.4869560000000 1.0
C      1  0.4713020000000  0.5209190000000  0.6155250000000 1.0
C      1  0.5623020000000  0.4690390000000  0.4484750000000 1.0
C      1  0.5543640000000  0.5169400000000  0.5171220000000 1.0
C      1  0.5073070000000  0.4083670000000  0.4775890000000 1.0
C      1  0.4223570000000  0.4585010000000  0.5331930000000 1.0
C      1  0.5243200000000  0.5202730000000  0.4556670000000 1.0
C      1  0.5070890000000  0.4346490000000  0.5607190000000 1.0
C      1  0.4204740000000  0.4797320000000  0.5064940000000 1.0
C      1  0.4862560000000  0.5488730000000  0.4581720000000 1.0
C      1  0.5213300000000  0.4994670000000  0.5312580000000 1.0
C      1  0.4475180000000  0.5834490000000  0.5147980000000 1.0
C      1  0.5438600000000  0.4800010000000  0.4035720000000 1.0
C      1  0.5508970000000  0.5031450000000  0.4681720000000 1.0
C      1  0.4457980000000  0.4743210000000  0.4074840000000 1.0
C      1  0.4239930000000  0.5490950000000  0.5451820000000 1.0
C      1  0.5451720000000  0.4536730000000  0.5216140000000 1.0
C      1  0.5651640000000  0.5497930000000  0.4684260000000 1.0
C      1  0.4387730000000  0.5464890000000  0.4340990000000 1.0
C      1  0.5028160000000  0.5991920000000  0.4841790000000 1.0
C      1  0.5648440000000  0.5242530000000  0.4499770000000 1.0
C      1  0.4199630000000  0.5073790000000  0.5211980000000 1.0
C      1  0.4226430000000  0.5205340000000  0.5496200000000 1.0
C      1  0.5845190000000  0.5884090000000  0.4412720000000 1.0
C      1  0.5227440000000  0.4724800000000  0.4879940000000 1.0
C      1  0.5134040000000  0.4739010000000  0.4150830000000 1.0
C      1  0.4766580000000  0.4450800000000  0.5497110000000 1.0
C      1  0.5059510000000  0.4221520000000  0.4314780000000 1.0
C      1  0.5045270000000  0.4884870000000  0.5553810000000 1.0
C      1  0.4757210000000  0.5174420000000  0.4505400000000 1.0
C      1  0.5158950000000  0.5319710000000  0.4250310000000 1.0
C      1  0.5658740000000  0.4980960000000  0.4934460000000 1.0
C      1  0.5284620000000  0.5316790000000  0.5335080000000 1.0
C      1  0.5019960000000  0.4961360000000  0.4469860000000 1.0
C      1  0.5736580000000  0.5105430000000  0.4264820000000 1.0
C      1  0.5329530000000  0.4283630000000  0.5408960000000 1.0
C      1  0.4570680000000  0.4255420000000  0.4397180000000 1.0
C      1  0.4645530000000  0.4609010000000  0.5766730000000 1.0
C      1  0.5614160000000  0.4407080000000  0.4349500000000 1.0
C      1  0.4426240000000  0.4188700000000  0.4975130000000 1.0
C      1  0.5476000000000  0.4437480000000  0.4891740000000 1.0
C      1  0.4634720000000  0.5632280000000  0.4789300000000 1.0
C      1  0.5190340000000  0.5811230000000  0.5595040000000 1.0
C      1  0.3988440000000  0.5276820000000  0.5094340000000 1.0
C      1  0.5598270000000  0.4170210000000  0.5279550000000 1.0
C      1  0.4153790000000  0.5374100000000  0.4476290000000 1.0
C      1  0.4193270000000  0.5118140000000  0.4611980000000 1.0
C      1  0.5743230000000  0.5429550000000  0.5483480000000 1.0
C      1  0.4803020000000  0.5311350000000  0.5249360000000 1.0
C      1  0.5160730000000  0.4476790000000  0.5103110000000 1.0
C      1  0.4958600000000  0.4278530000000  0.4982730000000 1.0
C      1  0.4152440000000  0.5512800000000  0.4960810000000 1.0
C      1  0.5624060000000  0.5736270000000  0.4475980000000 1.0
C      1  0.5200960000000  0.5827950000000  0.4701990000000 1.0
C      1  0.5026290000000  0.5961140000000  0.5149990000000 1.0
C      1  0.5025590000000  0.5288660000000  0.6108560000000 1.0
C      1  0.4292960000000  0.5645880000000  0.5213760000000 1.0
C      1  0.5066320000000  0.5669070000000  0.4474220000000 1.0
C      1  0.4503080000000  0.5206110000000  0.5209990000000 1.0
C      1  0.4819190000000  0.5131160000000  0.4895890000000 1.0
C      1  0.4534760000000  0.5134470000000  0.5878240000000 1.0
C      1  0.4792390000000  0.5135490000000  0.3961210000000 1.0
C      1  0.6043920000000  0.4716380000000  0.5194270000000 1.0
C      1  0.5818590000000  0.4836400000000  0.4316720000000 1.0
C      1  0.5398530000000  0.5055490000000  0.5807170000000 1.0
C      1  0.5381980000000  0.5291760000000  0.4011150000000 1.0
C      1  0.6254480000000  0.4557340000000  0.5138610000000 1.0
C      1  0.5917500000000  0.4712320000000  0.5448890000000 1.0
C      1  0.4406350000000  0.4683710000000  0.4636170000000 1.0
C      1  0.4919860000000  0.4757680000000  0.4968320000000 1.0
C      1  0.4849380000000  0.5460500000000  0.4177560000000 1.0
C      1  0.4578780000000  0.5296930000000  0.4170960000000 1.0
C      1  0.5232410000000  0.5843650000000  0.5293420000000 1.0
C      1  0.4974550000000  0.4541280000000  0.5840360000000 1.0
C      1  0.5543270000000  0.5070060000000  0.4051280000000 1.0
C      1  0.4077610000000  0.4945530000000  0.4786400000000 1.0
C      1  0.4547110000000  0.4271920000000  0.4713200000000 1.0
C      1  0.4611770000000  0.4973950000000  0.4272440000000 1.0
C      1  0.5379300000000  0.5742870000000  0.4355250000000 1.0
C      1  0.4922270000000  0.4968720000000  0.6036930000000 1.0
C      1  0.5995900000000  0.5193670000000  0.4964890000000 1.0
C      1  0.4870230000000  0.4676330000000  0.4580990000000 1.0
C      1  0.4669140000000  0.4689370000000  0.5282690000000 1.0
C      1  0.4210160000000  0.4570450000000  0.4811710000000 1.0
C      1  0.4527430000000  0.4701530000000  0.5016210000000 1.0
C      1  0.5647710000000  0.4601810000000  0.4099890000000 1.0
C      1  0.4488410000000  0.4435930000000  0.6016500000000 1.0
C      1  0.5260250000000  0.5748600000000  0.5865040000000 1.0
C      1  0.5492340000000  0.4847300000000  0.5270600000000 1.0
END
