TITL C-2847949-8115-276 -0.000119631650152231 125000 -195.29267830187 0 0 36 (C1) n - 1
REM
REM in /home/bkarasulu/work/CARBON/AIRSS/Generating-Clusters/AIREBO/with-SteepDescent/Only-C1/SD-CG-opt/Try1-1.4A-POS3A/HFTN-CG
REM
REM
REM
REM
REM
REM ./C.cell (11c1c37f851c82e70ff6c80c92926a4b)
REM
REM compiler GCC version 9.2.1 20190827 (Red Hat 9.2.1-1)
REM options -cpp -mtune=generic -march=x86-64 -g -O0 -fpre-include=/usr/include/finclude/math-vector-fortran.h
REM seed -1452404413 2137788123 -1853087080 -161579353 703263414 -1886190438 -11407899 1077024883 -850943902 1196221955 -537024014 1958696653 1619911229 239658413 -1914192070 -192911335 1711111177 -565866611 -414266531 1435212212 897997951 -336503995 2023509603 -1802959822 1422818901 -29969679 665953567 1085148181 -346128146 535331109 367906413 1785991822 1107826111
REM
CELL 1.54180   50.00000   50.00000   50.00000   90.00000   90.00000   90.00000
LATT -1
SFAC C  
C      1  0.4947620000000  0.4735020000000  0.5003760000000 1.0
C      1  0.5372130000000  0.4801320000000  0.5116220000000 1.0
C      1  0.4911990000000  0.4410830000000  0.5102000000000 1.0
C      1  0.4639990000000  0.5299930000000  0.4785840000000 1.0
C      1  0.4541360000000  0.4833190000000  0.4826680000000 1.0
C      1  0.4728470000000  0.5792140000000  0.4862950000000 1.0
C      1  0.4841080000000  0.4660700000000  0.5304780000000 1.0
C      1  0.5630440000000  0.4862000000000  0.5307870000000 1.0
C      1  0.4966230000000  0.4726500000000  0.4559140000000 1.0
C      1  0.5266730000000  0.4506440000000  0.5479780000000 1.0
C      1  0.5072240000000  0.4952330000000  0.5603220000000 1.0
C      1  0.4787370000000  0.5529830000000  0.4936780000000 1.0
C      1  0.5445100000000  0.5196240000000  0.4668010000000 1.0
C      1  0.5102470000000  0.5140840000000  0.4863830000000 1.0
C      1  0.4909100000000  0.5458310000000  0.5412170000000 1.0
C      1  0.5129220000000  0.5215570000000  0.5411430000000 1.0
C      1  0.5250850000000  0.4688190000000  0.5655910000000 1.0
C      1  0.4802550000000  0.4850460000000  0.5495330000000 1.0
C      1  0.5431590000000  0.4983480000000  0.4469420000000 1.0
C      1  0.5271080000000  0.4724680000000  0.4588430000000 1.0
C      1  0.5398350000000  0.4478660000000  0.4557990000000 1.0
C      1  0.4583640000000  0.5021290000000  0.5451980000000 1.0
C      1  0.5205420000000  0.4548450000000  0.5185060000000 1.0
C      1  0.5096750000000  0.5449710000000  0.4952400000000 1.0
C      1  0.4696020000000  0.5435690000000  0.5232330000000 1.0
C      1  0.5344430000000  0.5434240000000  0.4741490000000 1.0
C      1  0.4851130000000  0.4960850000000  0.4768590000000 1.0
C      1  0.4555990000000  0.5189650000000  0.5226680000000 1.0
C      1  0.4750600000000  0.5189670000000  0.4537960000000 1.0
C      1  0.5346170000000  0.4980470000000  0.5400080000000 1.0
C      1  0.4752640000000  0.4561820000000  0.4499690000000 1.0
C      1  0.4519660000000  0.4607930000000  0.4653930000000 1.0
C      1  0.4794320000000  0.5248140000000  0.4280360000000 1.0
C      1  0.5185090000000  0.5491970000000  0.5247650000000 1.0
C      1  0.5344010000000  0.4929600000000  0.4853510000000 1.0
C      1  0.4528180000000  0.5103870000000  0.4956770000000 1.0
END
