TITL C-2847948-6138-94 0.000216740133027709 125000 -318.628700344078 0 0 57 (C1) n - 1
REM
REM in /home/bkarasulu/work/CARBON/AIRSS/Generating-Clusters/AIREBO/with-SteepDescent/Only-C1/SD-CG-opt/Try1-1.4A-POS3A/HFTN-CG
REM
REM
REM
REM
REM
REM ./C.cell (11c1c37f851c82e70ff6c80c92926a4b)
REM
REM compiler GCC version 9.2.1 20190827 (Red Hat 9.2.1-1)
REM options -cpp -mtune=generic -march=x86-64 -g -O0 -fpre-include=/usr/include/finclude/math-vector-fortran.h
REM seed 1870318026 -1967682489 1346167926 1439038181 -663719837 2124657409 -60229734 -1273896332 -836277129 -608622893 1238571362 1892723206 -1368985477 1763836822 1126299961 -301180660 -1051592963 -1551892714 1377538442 1791188442 279546346 -244630485 -90973120 -1532191778 564386330 -1509377350 630507682 -1780369198 103517826 473256296 -82807397 -1992422690 1738985360
REM
CELL 1.54180   50.00000   50.00000   50.00000   90.00000   90.00000   90.00000
LATT -1
SFAC C  
C      1  0.4906020000000  0.5667380000000  0.5298510000000 1.0
C      1  0.4600580000000  0.4254400000000  0.5429790000000 1.0
C      1  0.4937560000000  0.5149410000000  0.5119290000000 1.0
C      1  0.4582630000000  0.4526450000000  0.4734440000000 1.0
C      1  0.5032070000000  0.5268380000000  0.5656670000000 1.0
C      1  0.4836280000000  0.4380430000000  0.4307440000000 1.0
C      1  0.5282130000000  0.5544040000000  0.5355580000000 1.0
C      1  0.5502170000000  0.4878630000000  0.4589040000000 1.0
C      1  0.4825650000000  0.5076390000000  0.4427700000000 1.0
C      1  0.5454500000000  0.4459640000000  0.5367590000000 1.0
C      1  0.4527520000000  0.5401170000000  0.5038380000000 1.0
C      1  0.4470410000000  0.5019590000000  0.5708790000000 1.0
C      1  0.4814940000000  0.5129450000000  0.4725130000000 1.0
C      1  0.4374310000000  0.4928560000000  0.4415230000000 1.0
C      1  0.5021730000000  0.4767120000000  0.4585080000000 1.0
C      1  0.4704380000000  0.4907970000000  0.5062970000000 1.0
C      1  0.5276600000000  0.4786930000000  0.5011560000000 1.0
C      1  0.5487340000000  0.5603530000000  0.5157830000000 1.0
C      1  0.4812920000000  0.5463080000000  0.5160420000000 1.0
C      1  0.4585340000000  0.5096730000000  0.5470670000000 1.0
C      1  0.5149610000000  0.5567390000000  0.4539240000000 1.0
C      1  0.5099980000000  0.4820920000000  0.5377030000000 1.0
C      1  0.5282630000000  0.4777800000000  0.5660910000000 1.0
C      1  0.4737630000000  0.5438820000000  0.4773170000000 1.0
C      1  0.5621040000000  0.4904660000000  0.5332290000000 1.0
C      1  0.4811230000000  0.4707790000000  0.5271050000000 1.0
C      1  0.5234480000000  0.4544910000000  0.5219700000000 1.0
C      1  0.4970660000000  0.5731590000000  0.5556360000000 1.0
C      1  0.5207170000000  0.4804840000000  0.5918930000000 1.0
C      1  0.4228340000000  0.4858160000000  0.4940520000000 1.0
C      1  0.4896290000000  0.5083240000000  0.5450270000000 1.0
C      1  0.5094230000000  0.4296660000000  0.4272420000000 1.0
C      1  0.4711920000000  0.4474440000000  0.5341070000000 1.0
C      1  0.5249080000000  0.5284860000000  0.5136530000000 1.0
C      1  0.5315270000000  0.4678570000000  0.4481830000000 1.0
C      1  0.5437000000000  0.5410260000000  0.4888760000000 1.0
C      1  0.5538580000000  0.4695500000000  0.5520240000000 1.0
C      1  0.4203540000000  0.5023240000000  0.5169700000000 1.0
C      1  0.4424740000000  0.5179160000000  0.5255050000000 1.0
C      1  0.5341730000000  0.5015680000000  0.5238320000000 1.0
C      1  0.5317520000000  0.4448560000000  0.4325510000000 1.0
C      1  0.5553060000000  0.4830170000000  0.4864470000000 1.0
C      1  0.5118540000000  0.5025210000000  0.4385940000000 1.0
C      1  0.5350970000000  0.5384110000000  0.4612790000000 1.0
C      1  0.5364010000000  0.5129020000000  0.4497770000000 1.0
C      1  0.4895050000000  0.5608460000000  0.4637260000000 1.0
C      1  0.4646440000000  0.4869430000000  0.4367940000000 1.0
C      1  0.4513370000000  0.4262310000000  0.4760370000000 1.0
C      1  0.4299870000000  0.4996660000000  0.4674880000000 1.0
C      1  0.6003700000000  0.5518870000000  0.4967650000000 1.0
C      1  0.5036970000000  0.5529190000000  0.5730970000000 1.0
C      1  0.4492770000000  0.4724720000000  0.4906860000000 1.0
C      1  0.4756970000000  0.4609310000000  0.4501170000000 1.0
C      1  0.5748740000000  0.4862910000000  0.5072880000000 1.0
C      1  0.5051610000000  0.4945900000000  0.4871750000000 1.0
C      1  0.5738560000000  0.5526510000000  0.4985380000000 1.0
C      1  0.4521580000000  0.5120890000000  0.4870920000000 1.0
END
