TITL C-2847958-8115-658 -0.000982699925577261 125000 -903.301469290563 0 0 171 (C1) n - 1
REM
REM in /home/bkarasulu/work/CARBON/AIRSS/Generating-Clusters/AIREBO/with-SteepDescent/Only-C1/SD-CG-opt/Try1-1.4A-POS3A/HFTN-CG
REM
REM
REM
REM
REM
REM ./C.cell (11c1c37f851c82e70ff6c80c92926a4b)
REM
REM compiler GCC version 9.2.1 20190827 (Red Hat 9.2.1-1)
REM options -cpp -mtune=generic -march=x86-64 -g -O0 -fpre-include=/usr/include/finclude/math-vector-fortran.h
REM seed -114691010 974454515 1088881594 622051515 -931105847 357227431 1008642511 1598272298 -1122988029 1559079800 -242723254 511046546 517557487 1290036803 1305534926 -1099175298 -351287066 440970460 2083235539 110170734 -19007499 -1149867447 -1736564833 1670291068 -323177755 2130821494 -1797512025 1774023484 -1678283285 -1766971328 1077125281 -94027454 756368971
REM
CELL 1.54180   50.00000   50.00000   50.00000   90.00000   90.00000   90.00000
LATT -1
SFAC C  
C      1  0.4660130000000  0.5870480000000  0.4624080000000 1.0
C      1  0.4822400000000  0.6012870000000  0.5049470000000 1.0
C      1  0.5602740000000  0.6023190000000  0.5143350000000 1.0
C      1  0.4340510000000  0.4484020000000  0.4836820000000 1.0
C      1  0.4224230000000  0.4676070000000  0.5676660000000 1.0
C      1  0.4722670000000  0.4981730000000  0.5007720000000 1.0
C      1  0.4481150000000  0.5004980000000  0.5196330000000 1.0
C      1  0.4898130000000  0.5330370000000  0.4443300000000 1.0
C      1  0.4201570000000  0.4500310000000  0.5210680000000 1.0
C      1  0.5644560000000  0.5080480000000  0.5449850000000 1.0
C      1  0.5252340000000  0.5303390000000  0.5132630000000 1.0
C      1  0.5512250000000  0.4489990000000  0.5310370000000 1.0
C      1  0.4658310000000  0.4718370000000  0.3962420000000 1.0
C      1  0.4159480000000  0.4156230000000  0.4528310000000 1.0
C      1  0.5497750000000  0.4008290000000  0.5279250000000 1.0
C      1  0.4469180000000  0.4194800000000  0.5619310000000 1.0
C      1  0.4437300000000  0.5706120000000  0.5257230000000 1.0
C      1  0.5179030000000  0.4133530000000  0.4926220000000 1.0
C      1  0.5587160000000  0.4847090000000  0.4900250000000 1.0
C      1  0.5569300000000  0.4535740000000  0.5632750000000 1.0
C      1  0.4065060000000  0.5321240000000  0.5329630000000 1.0
C      1  0.5466850000000  0.4637410000000  0.4693340000000 1.0
C      1  0.5192100000000  0.5446610000000  0.5510550000000 1.0
C      1  0.5352740000000  0.5190490000000  0.5518470000000 1.0
C      1  0.4754440000000  0.4560570000000  0.4316410000000 1.0
C      1  0.4982940000000  0.5923920000000  0.4659590000000 1.0
C      1  0.5118610000000  0.4280880000000  0.5667960000000 1.0
C      1  0.5919970000000  0.4812580000000  0.4541190000000 1.0
C      1  0.5426740000000  0.5935660000000  0.4920390000000 1.0
C      1  0.5663850000000  0.4884130000000  0.4324760000000 1.0
C      1  0.5385570000000  0.5287820000000  0.4823740000000 1.0
C      1  0.5158880000000  0.4672760000000  0.4027260000000 1.0
C      1  0.4932620000000  0.5204880000000  0.4132620000000 1.0
C      1  0.4917630000000  0.4169310000000  0.5056880000000 1.0
C      1  0.4835340000000  0.5256970000000  0.5161210000000 1.0
C      1  0.5275060000000  0.4225790000000  0.4202070000000 1.0
C      1  0.4655520000000  0.5361070000000  0.4091270000000 1.0
C      1  0.5361160000000  0.5578620000000  0.5844220000000 1.0
C      1  0.5059380000000  0.5480660000000  0.4702400000000 1.0
C      1  0.4833980000000  0.3965520000000  0.4429410000000 1.0
C      1  0.5138690000000  0.5330430000000  0.5917830000000 1.0
C      1  0.5848880000000  0.5091820000000  0.4676670000000 1.0
C      1  0.4735730000000  0.5183050000000  0.5997370000000 1.0
C      1  0.5292640000000  0.4238100000000  0.5388540000000 1.0
C      1  0.5301380000000  0.5069740000000  0.5921400000000 1.0
C      1  0.5654800000000  0.4571390000000  0.4191630000000 1.0
C      1  0.5504170000000  0.5073660000000  0.5140060000000 1.0
C      1  0.4962330000000  0.5602810000000  0.5887120000000 1.0
C      1  0.5720940000000  0.5726290000000  0.4671270000000 1.0
C      1  0.4803810000000  0.4900110000000  0.5422230000000 1.0
C      1  0.5910030000000  0.4954270000000  0.5305100000000 1.0
C      1  0.5824290000000  0.4646230000000  0.5348750000000 1.0
C      1  0.4648620000000  0.4018220000000  0.5308460000000 1.0
C      1  0.5561150000000  0.5191050000000  0.4296770000000 1.0
C      1  0.5106500000000  0.4793040000000  0.5959900000000 1.0
C      1  0.4717290000000  0.4728410000000  0.4786270000000 1.0
C      1  0.4387030000000  0.4799320000000  0.4098170000000 1.0
C      1  0.4681190000000  0.6115880000000  0.4835130000000 1.0
C      1  0.5161100000000  0.5827210000000  0.5726630000000 1.0
C      1  0.4223310000000  0.5426460000000  0.4310500000000 1.0
C      1  0.5269570000000  0.5274140000000  0.4140850000000 1.0
C      1  0.5618650000000  0.5544220000000  0.5011890000000 1.0
C      1  0.4704490000000  0.4582670000000  0.6166950000000 1.0
C      1  0.5026600000000  0.4668000000000  0.5400590000000 1.0
C      1  0.4462530000000  0.5309280000000  0.5293320000000 1.0
C      1  0.4302770000000  0.5675820000000  0.4418450000000 1.0
C      1  0.5543840000000  0.4404350000000  0.5006040000000 1.0
C      1  0.5426810000000  0.4780810000000  0.6042530000000 1.0
C      1  0.4652230000000  0.5631140000000  0.4047780000000 1.0
C      1  0.4250900000000  0.4187090000000  0.4790560000000 1.0
C      1  0.4687550000000  0.4892670000000  0.5726910000000 1.0
C      1  0.5443260000000  0.4070190000000  0.4806760000000 1.0
C      1  0.6059520000000  0.5371700000000  0.4974200000000 1.0
C      1  0.4307190000000  0.4238890000000  0.4307080000000 1.0
C      1  0.5624390000000  0.4014040000000  0.5022000000000 1.0
C      1  0.5363970000000  0.6047690000000  0.5614180000000 1.0
C      1  0.4845120000000  0.5939750000000  0.5670380000000 1.0
C      1  0.5217660000000  0.5000840000000  0.3954270000000 1.0
C      1  0.5403680000000  0.5666900000000  0.5361010000000 1.0
C      1  0.6173260000000  0.4877510000000  0.4758620000000 1.0
C      1  0.4586540000000  0.5452060000000  0.5539710000000 1.0
C      1  0.4859230000000  0.5072860000000  0.4644720000000 1.0
C      1  0.4968880000000  0.4125430000000  0.5353230000000 1.0
C      1  0.4086800000000  0.5546450000000  0.4847330000000 1.0
C      1  0.4512920000000  0.4535590000000  0.5123200000000 1.0
C      1  0.4947150000000  0.5112160000000  0.5740610000000 1.0
C      1  0.5344830000000  0.5619660000000  0.4824790000000 1.0
C      1  0.4879140000000  0.5332340000000  0.5490190000000 1.0
C      1  0.4476640000000  0.4487400000000  0.4148070000000 1.0
C      1  0.5817890000000  0.4515180000000  0.4837860000000 1.0
C      1  0.5790390000000  0.4511850000000  0.4498130000000 1.0
C      1  0.4990360000000  0.5714580000000  0.5454910000000 1.0
C      1  0.5379400000000  0.4463800000000  0.4074350000000 1.0
C      1  0.5682840000000  0.5476880000000  0.5340290000000 1.0
C      1  0.4858420000000  0.5622850000000  0.4388460000000 1.0
C      1  0.5370540000000  0.4773500000000  0.5227610000000 1.0
C      1  0.5920180000000  0.5481500000000  0.4704750000000 1.0
C      1  0.5488340000000  0.5953060000000  0.5389400000000 1.0
C      1  0.4188720000000  0.4842960000000  0.5414150000000 1.0
C      1  0.6096550000000  0.5051230000000  0.5040660000000 1.0
C      1  0.5408810000000  0.4686410000000  0.4404850000000 1.0
C      1  0.4335750000000  0.4142440000000  0.5318840000000 1.0
C      1  0.4799650000000  0.3834980000000  0.4669990000000 1.0
C      1  0.5040810000000  0.4932040000000  0.4898480000000 1.0
C      1  0.5050700000000  0.4962610000000  0.4425940000000 1.0
C      1  0.5612240000000  0.5104690000000  0.5787570000000 1.0
C      1  0.4382630000000  0.4922660000000  0.5753640000000 1.0
C      1  0.4295140000000  0.5566010000000  0.5673050000000 1.0
C      1  0.4431270000000  0.5261440000000  0.4218650000000 1.0
C      1  0.4614690000000  0.4195480000000  0.4381080000000 1.0
C      1  0.4063240000000  0.4813080000000  0.4596010000000 1.0
C      1  0.4592810000000  0.4513130000000  0.5620080000000 1.0
C      1  0.4901580000000  0.4888890000000  0.4010570000000 1.0
C      1  0.4084850000000  0.5009280000000  0.4872890000000 1.0
C      1  0.5076670000000  0.4660960000000  0.4357040000000 1.0
C      1  0.5038850000000  0.4579750000000  0.5728710000000 1.0
C      1  0.5896970000000  0.4794660000000  0.4938630000000 1.0
C      1  0.4516670000000  0.4479730000000  0.4545810000000 1.0
C      1  0.5750650000000  0.5234930000000  0.4970080000000 1.0
C      1  0.4509530000000  0.4731590000000  0.5396540000000 1.0
C      1  0.4595080000000  0.5791880000000  0.5529570000000 1.0
C      1  0.4985180000000  0.4570430000000  0.4671820000000 1.0
C      1  0.3995360000000  0.5312690000000  0.4445980000000 1.0
C      1  0.5800050000000  0.5811440000000  0.4991420000000 1.0
C      1  0.4102570000000  0.4684630000000  0.4972530000000 1.0
C      1  0.5837910000000  0.4220580000000  0.4988550000000 1.0
C      1  0.4177190000000  0.5544130000000  0.5150680000000 1.0
C      1  0.3985420000000  0.5304060000000  0.4734220000000 1.0
C      1  0.5068920000000  0.5055190000000  0.5276250000000 1.0
C      1  0.4302620000000  0.4735950000000  0.4479610000000 1.0
C      1  0.4224040000000  0.4403040000000  0.5512980000000 1.0
C      1  0.5252290000000  0.4322770000000  0.4519010000000 1.0
C      1  0.4517980000000  0.5341650000000  0.5917990000000 1.0
C      1  0.5105790000000  0.4645870000000  0.5070570000000 1.0
C      1  0.5420860000000  0.4743420000000  0.5727340000000 1.0
C      1  0.4583080000000  0.5606070000000  0.4806360000000 1.0
C      1  0.5247230000000  0.4436590000000  0.4842480000000 1.0
C      1  0.6004950000000  0.5285100000000  0.4451980000000 1.0
C      1  0.4668170000000  0.5611600000000  0.5828730000000 1.0
C      1  0.5173580000000  0.4921820000000  0.5572680000000 1.0
C      1  0.5308320000000  0.5092990000000  0.4488750000000 1.0
C      1  0.4755430000000  0.4623200000000  0.5876550000000 1.0
C      1  0.4862800000000  0.5517470000000  0.4978210000000 1.0
C      1  0.4446280000000  0.4992490000000  0.4338880000000 1.0
C      1  0.4752880000000  0.4329430000000  0.4731510000000 1.0
C      1  0.4695480000000  0.4031960000000  0.4885840000000 1.0
C      1  0.4304320000000  0.5189270000000  0.5803420000000 1.0
C      1  0.4575640000000  0.5797350000000  0.4316100000000 1.0
C      1  0.5320780000000  0.4995410000000  0.4791490000000 1.0
C      1  0.5571850000000  0.5415540000000  0.5655860000000 1.0
C      1  0.5966610000000  0.5597710000000  0.5196970000000 1.0
C      1  0.4807040000000  0.4494930000000  0.5020560000000 1.0
C      1  0.4790870000000  0.4243040000000  0.5606610000000 1.0
C      1  0.4562070000000  0.4992250000000  0.4641770000000 1.0
C      1  0.5635970000000  0.5326480000000  0.4599740000000 1.0
C      1  0.4942670000000  0.4285340000000  0.4383120000000 1.0
C      1  0.4105830000000  0.5339840000000  0.5609200000000 1.0
C      1  0.4383070000000  0.5136470000000  0.4824890000000 1.0
C      1  0.5553770000000  0.4317420000000  0.4617600000000 1.0
C      1  0.5236610000000  0.5810490000000  0.4564930000000 1.0
C      1  0.4710140000000  0.5770060000000  0.5147180000000 1.0
C      1  0.5113570000000  0.5907340000000  0.4976530000000 1.0
C      1  0.4290210000000  0.5673950000000  0.4696690000000 1.0
C      1  0.5130960000000  0.5621210000000  0.5159730000000 1.0
C      1  0.4145200000000  0.5062860000000  0.5203200000000 1.0
C      1  0.4428660000000  0.5390380000000  0.4981000000000 1.0
C      1  0.5879350000000  0.4520320000000  0.5623540000000 1.0
C      1  0.5283300000000  0.5430220000000  0.4451020000000 1.0
C      1  0.5964740000000  0.5286920000000  0.5351560000000 1.0
C      1  0.5511220000000  0.5683890000000  0.4470790000000 1.0
C      1  0.4420320000000  0.4048650000000  0.5020560000000 1.0
END
