TITL C-2847950-6905-492 0.00054557493485131 125000 -574.388765284477 0 0 107 (C1) n - 1
REM
REM in /home/bkarasulu/work/CARBON/AIRSS/Generating-Clusters/AIREBO/with-SteepDescent/Only-C1/SD-CG-opt/Try1-1.4A-POS3A/HFTN-CG
REM
REM
REM
REM
REM
REM ./C.cell (11c1c37f851c82e70ff6c80c92926a4b)
REM
REM compiler GCC version 9.2.1 20190827 (Red Hat 9.2.1-1)
REM options -cpp -mtune=generic -march=x86-64 -g -O0 -fpre-include=/usr/include/finclude/math-vector-fortran.h
REM seed 2119735628 -1860357125 820189564 1792266281 2098035621 1300170420 -1621281262 1678806214 980652864 2100883194 1108772447 -1771449852 583712627 350240690 2072376072 -984116313 -181507381 -1236787839 -1173457004 2024346966 1581036238 199719078 1817291969 -1640052952 -302744614 -1901937326 -123921886 1128429106 -1513210401 1745922954 -1971570643 2019999479 1471185627
REM
CELL 1.54180   50.00000   50.00000   50.00000   90.00000   90.00000   90.00000
LATT -1
SFAC C  
C      1  0.5274660000000  0.4410060000000  0.5635880000000 1.0
C      1  0.4292180000000  0.5040200000000  0.4549560000000 1.0
C      1  0.5595090000000  0.4829140000000  0.4668250000000 1.0
C      1  0.4658440000000  0.4504230000000  0.5406230000000 1.0
C      1  0.5127120000000  0.4587270000000  0.5867530000000 1.0
C      1  0.4168460000000  0.5386080000000  0.4834850000000 1.0
C      1  0.5072240000000  0.5032740000000  0.5626550000000 1.0
C      1  0.5196310000000  0.4432670000000  0.5188790000000 1.0
C      1  0.4876760000000  0.4670560000000  0.5205270000000 1.0
C      1  0.4193000000000  0.5390750000000  0.5438830000000 1.0
C      1  0.4892720000000  0.5120420000000  0.4852100000000 1.0
C      1  0.4592370000000  0.5374980000000  0.5439060000000 1.0
C      1  0.5036540000000  0.4563120000000  0.4924830000000 1.0
C      1  0.5517740000000  0.5369030000000  0.4352270000000 1.0
C      1  0.5119260000000  0.5828500000000  0.4502980000000 1.0
C      1  0.5830810000000  0.4673630000000  0.5143710000000 1.0
C      1  0.4593040000000  0.4862510000000  0.5570980000000 1.0
C      1  0.4502620000000  0.5000280000000  0.4983930000000 1.0
C      1  0.5322580000000  0.5852920000000  0.5040930000000 1.0
C      1  0.5324360000000  0.5192590000000  0.4569270000000 1.0
C      1  0.4699850000000  0.5360050000000  0.5748680000000 1.0
C      1  0.5192600000000  0.5279840000000  0.4870390000000 1.0
C      1  0.4847960000000  0.4538480000000  0.5867500000000 1.0
C      1  0.5671080000000  0.4540310000000  0.4581620000000 1.0
C      1  0.5182710000000  0.5661190000000  0.5671560000000 1.0
C      1  0.5480530000000  0.4506320000000  0.5054960000000 1.0
C      1  0.4315350000000  0.4544110000000  0.4814700000000 1.0
C      1  0.5197760000000  0.5020470000000  0.4073440000000 1.0
C      1  0.4681570000000  0.4266050000000  0.5197690000000 1.0
C      1  0.5504100000000  0.5586410000000  0.5432390000000 1.0
C      1  0.4518380000000  0.5853330000000  0.4831490000000 1.0
C      1  0.4879510000000  0.4754040000000  0.4317460000000 1.0
C      1  0.4918590000000  0.4941820000000  0.4079680000000 1.0
C      1  0.5216330000000  0.4133160000000  0.5028800000000 1.0
C      1  0.5062330000000  0.5765370000000  0.4976050000000 1.0
C      1  0.5063670000000  0.4918220000000  0.5305450000000 1.0
C      1  0.4374050000000  0.5523030000000  0.4663330000000 1.0
C      1  0.5126400000000  0.4941240000000  0.4457710000000 1.0
C      1  0.4612290000000  0.5038960000000  0.4664270000000 1.0
C      1  0.5791890000000  0.4901130000000  0.4893750000000 1.0
C      1  0.4243720000000  0.5191850000000  0.4327330000000 1.0
C      1  0.4424390000000  0.5460500000000  0.4345700000000 1.0
C      1  0.4387690000000  0.4671670000000  0.5412700000000 1.0
C      1  0.4926580000000  0.4820260000000  0.4779900000000 1.0
C      1  0.5743310000000  0.5178660000000  0.5252460000000 1.0
C      1  0.5264850000000  0.4842300000000  0.4752350000000 1.0
C      1  0.5273810000000  0.5003550000000  0.5051780000000 1.0
C      1  0.5497540000000  0.5420630000000  0.4924650000000 1.0
C      1  0.5185500000000  0.4508180000000  0.4382660000000 1.0
C      1  0.4691420000000  0.5094890000000  0.4077590000000 1.0
C      1  0.4754860000000  0.4223450000000  0.4714030000000 1.0
C      1  0.5706050000000  0.4378100000000  0.5270780000000 1.0
C      1  0.4860520000000  0.5152840000000  0.5177460000000 1.0
C      1  0.4952020000000  0.5230860000000  0.4420830000000 1.0
C      1  0.4138350000000  0.5097480000000  0.4784470000000 1.0
C      1  0.5037730000000  0.5360380000000  0.5702840000000 1.0
C      1  0.4589310000000  0.4371180000000  0.4923940000000 1.0
C      1  0.5219980000000  0.5461560000000  0.5328250000000 1.0
C      1  0.5878760000000  0.4922840000000  0.5345090000000 1.0
C      1  0.4978560000000  0.4184620000000  0.5270800000000 1.0
C      1  0.4786200000000  0.4366570000000  0.5656330000000 1.0
C      1  0.5255920000000  0.4666560000000  0.5429360000000 1.0
C      1  0.4780950000000  0.5059260000000  0.5756400000000 1.0
C      1  0.5768230000000  0.5211370000000  0.4941550000000 1.0
C      1  0.4540610000000  0.5659910000000  0.5040780000000 1.0
C      1  0.4225290000000  0.5440790000000  0.5140300000000 1.0
C      1  0.5584820000000  0.5133910000000  0.5653670000000 1.0
C      1  0.4901970000000  0.4439910000000  0.4295170000000 1.0
C      1  0.5422270000000  0.5223940000000  0.5263940000000 1.0
C      1  0.4517470000000  0.5338510000000  0.5016590000000 1.0
C      1  0.5184000000000  0.4852500000000  0.5872130000000 1.0
C      1  0.4380020000000  0.5461080000000  0.5676710000000 1.0
C      1  0.4996560000000  0.5442390000000  0.4644890000000 1.0
C      1  0.4912780000000  0.5419540000000  0.4148590000000 1.0
C      1  0.4210200000000  0.4828860000000  0.5261590000000 1.0
C      1  0.4217030000000  0.4818990000000  0.4949350000000 1.0
C      1  0.5510700000000  0.4371120000000  0.4744420000000 1.0
C      1  0.4659080000000  0.5519240000000  0.4118660000000 1.0
C      1  0.5217890000000  0.4420180000000  0.4674780000000 1.0
C      1  0.5730310000000  0.5385200000000  0.5498400000000 1.0
C      1  0.5800200000000  0.4871860000000  0.5654840000000 1.0
C      1  0.4726350000000  0.5569390000000  0.5267750000000 1.0
C      1  0.5508120000000  0.4857570000000  0.5477190000000 1.0
C      1  0.5679710000000  0.5355280000000  0.4650940000000 1.0
C      1  0.5582520000000  0.4337260000000  0.5534730000000 1.0
C      1  0.4639290000000  0.5210630000000  0.4371870000000 1.0
C      1  0.4631200000000  0.4686680000000  0.5011380000000 1.0
C      1  0.5380880000000  0.5385190000000  0.5684280000000 1.0
C      1  0.4498570000000  0.4533230000000  0.4570260000000 1.0
C      1  0.4685930000000  0.4764960000000  0.5873910000000 1.0
C      1  0.5023960000000  0.4222560000000  0.5571400000000 1.0
C      1  0.5556440000000  0.4176010000000  0.5026900000000 1.0
C      1  0.4945580000000  0.5826920000000  0.4732260000000 1.0
C      1  0.5178060000000  0.5567370000000  0.4398520000000 1.0
C      1  0.4977940000000  0.5679900000000  0.5424970000000 1.0
C      1  0.4558510000000  0.5072630000000  0.5311630000000 1.0
C      1  0.5319290000000  0.4766600000000  0.4238820000000 1.0
C      1  0.5240640000000  0.5328170000000  0.4164860000000 1.0
C      1  0.5626500000000  0.5068350000000  0.4475040000000 1.0
C      1  0.4223040000000  0.5105120000000  0.5356950000000 1.0
C      1  0.5028000000000  0.4179980000000  0.4767500000000 1.0
C      1  0.4996970000000  0.5453650000000  0.5096350000000 1.0
C      1  0.4702280000000  0.5611580000000  0.4678680000000 1.0
C      1  0.4687100000000  0.4321450000000  0.4447500000000 1.0
C      1  0.5519790000000  0.4809400000000  0.5165840000000 1.0
C      1  0.4707360000000  0.4750870000000  0.4568060000000 1.0
C      1  0.5495240000000  0.5656560000000  0.5115630000000 1.0
END
