TITL C-2848498-1409-597 0.000547187932203307 125000 -338.940591444511 0 0 62 (C1) n - 1
REM
REM in /home/bkarasulu/work/CARBON/AIRSS/Generating-Clusters/AIREBO/with-SteepDescent/Only-C1/SD-CG-opt/Try1-1.4A-POS3A/HFTN-CG
REM
REM
REM
REM
REM
REM ./C.cell (11c1c37f851c82e70ff6c80c92926a4b)
REM
REM compiler GCC version 9.2.1 20190827 (Red Hat 9.2.1-1)
REM options -cpp -mtune=generic -march=x86-64 -g -O0 -fpre-include=/usr/include/finclude/math-vector-fortran.h
REM seed 32087898 -1001826584 -244847075 1950854165 -1307270391 -1492648167 -1330372291 -1992211132 861653817 -1397347506 -1656347229 -952610802 731636403 1361227786 -384287677 -610760557 537409018 -1269160643 46479186 557594011 -1231928516 1983059303 1861605952 -912592838 -1629512393 1806781664 -474919047 1932355246 1729108728 26925704 -641076462 -1072584060 -1068755749
REM
CELL 1.54180   50.00000   50.00000   50.00000   90.00000   90.00000   90.00000
LATT -1
SFAC C  
C      1  0.5218680000000  0.5309560000000  0.4439530000000 1.0
C      1  0.4874320000000  0.4520790000000  0.4528610000000 1.0
C      1  0.4731800000000  0.4677550000000  0.4746570000000 1.0
C      1  0.4572910000000  0.4726650000000  0.5543830000000 1.0
C      1  0.5023260000000  0.4161780000000  0.4830900000000 1.0
C      1  0.4509120000000  0.4648110000000  0.4996620000000 1.0
C      1  0.5865230000000  0.4937050000000  0.5162550000000 1.0
C      1  0.5071310000000  0.4946990000000  0.5562960000000 1.0
C      1  0.5600090000000  0.4631200000000  0.4818860000000 1.0
C      1  0.5077940000000  0.5784950000000  0.4910330000000 1.0
C      1  0.4753280000000  0.4631750000000  0.4263560000000 1.0
C      1  0.5354670000000  0.5411750000000  0.4795570000000 1.0
C      1  0.4871570000000  0.4218540000000  0.4606330000000 1.0
C      1  0.5140150000000  0.4555360000000  0.5600430000000 1.0
C      1  0.5360150000000  0.4768930000000  0.5536630000000 1.0
C      1  0.5008720000000  0.4480020000000  0.5364520000000 1.0
C      1  0.5230630000000  0.5188760000000  0.5715570000000 1.0
C      1  0.5679420000000  0.4826670000000  0.5423040000000 1.0
C      1  0.4363840000000  0.5593150000000  0.5301130000000 1.0
C      1  0.4794300000000  0.5520260000000  0.4268800000000 1.0
C      1  0.4820150000000  0.5282750000000  0.4935370000000 1.0
C      1  0.5358470000000  0.5352830000000  0.5569570000000 1.0
C      1  0.4614130000000  0.5450780000000  0.5147590000000 1.0
C      1  0.4559870000000  0.5142480000000  0.5280540000000 1.0
C      1  0.4927850000000  0.5061440000000  0.5083950000000 1.0
C      1  0.4759410000000  0.5449140000000  0.5455000000000 1.0
C      1  0.5730360000000  0.4653760000000  0.5099610000000 1.0
C      1  0.4540360000000  0.5734870000000  0.4878320000000 1.0
C      1  0.4916880000000  0.5052750000000  0.4464580000000 1.0
C      1  0.5271550000000  0.5369270000000  0.5267010000000 1.0
C      1  0.5023780000000  0.5176490000000  0.5330470000000 1.0
C      1  0.4805290000000  0.5723720000000  0.5079780000000 1.0
C      1  0.5406390000000  0.4882390000000  0.4760480000000 1.0
C      1  0.5443780000000  0.4697800000000  0.5236800000000 1.0
C      1  0.4389940000000  0.5017150000000  0.5092290000000 1.0
C      1  0.5192100000000  0.4369640000000  0.4920180000000 1.0
C      1  0.5872710000000  0.5137570000000  0.4983640000000 1.0
C      1  0.4961810000000  0.4522260000000  0.5820520000000 1.0
C      1  0.4734630000000  0.4985540000000  0.5529380000000 1.0
C      1  0.4419150000000  0.5164360000000  0.4799440000000 1.0
C      1  0.4585000000000  0.5078050000000  0.4534340000000 1.0
C      1  0.4890470000000  0.4800340000000  0.4985790000000 1.0
C      1  0.4764200000000  0.4884230000000  0.4234080000000 1.0
C      1  0.5145140000000  0.5608130000000  0.4687720000000 1.0
C      1  0.4684010000000  0.5285230000000  0.5631970000000 1.0
C      1  0.5622560000000  0.5212440000000  0.4823080000000 1.0
C      1  0.5274820000000  0.4865180000000  0.5049750000000 1.0
C      1  0.5052580000000  0.5569390000000  0.4362840000000 1.0
C      1  0.5114410000000  0.5625820000000  0.5187170000000 1.0
C      1  0.4732300000000  0.4395020000000  0.5402590000000 1.0
C      1  0.4689210000000  0.4495240000000  0.5717470000000 1.0
C      1  0.5459520000000  0.5129240000000  0.4536060000000 1.0
C      1  0.5350100000000  0.4489030000000  0.4718940000000 1.0
C      1  0.4960790000000  0.5322000000000  0.4660920000000 1.0
C      1  0.5356770000000  0.5175410000000  0.5030030000000 1.0
C      1  0.5193150000000  0.4917230000000  0.4504110000000 1.0
C      1  0.5087240000000  0.4585720000000  0.5100490000000 1.0
C      1  0.4415120000000  0.5460720000000  0.4869370000000 1.0
C      1  0.5180510000000  0.4608060000000  0.4522870000000 1.0
C      1  0.4518650000000  0.4591160000000  0.5258400000000 1.0
C      1  0.4637810000000  0.5301590000000  0.4310180000000 1.0
C      1  0.4435650000000  0.4833950000000  0.4720980000000 1.0
END
