TITL C-2848504-8560-324 -0.000437480822038597 125000 -1055.04320037811 0 0 190 (C1) n - 1
REM
REM in /home/bkarasulu/work/CARBON/AIRSS/Generating-Clusters/AIREBO/with-SteepDescent/Only-C1/SD-CG-opt/Try1-1.4A-POS3A/HFTN-CG
REM
REM
REM
REM
REM
REM ./C.cell (11c1c37f851c82e70ff6c80c92926a4b)
REM
REM compiler GCC version 9.2.1 20190827 (Red Hat 9.2.1-1)
REM options -cpp -mtune=generic -march=x86-64 -g -O0 -fpre-include=/usr/include/finclude/math-vector-fortran.h
REM seed -1431669946 -226316114 100729823 2124524631 1509227750 411561121 638898096 -675616277 1096395651 -1599192841 714831999 1957493781 -1116682383 -569146151 1976549698 -859128947 -1372411248 1329669331 -106617941 2033036215 -1854634138 1284498731 495635312 576591131 1651835002 -1023700188 2110028868 -1021437020 930051257 1235922569 204072297 -331516537 -1994646526
REM
CELL 1.54180   50.00000   50.00000   50.00000   90.00000   90.00000   90.00000
LATT -1
SFAC C  
C      1  0.5806850000000  0.5627980000000  0.5656830000000 1.0
C      1  0.4109670000000  0.4505370000000  0.4613100000000 1.0
C      1  0.5997370000000  0.4666280000000  0.5519030000000 1.0
C      1  0.5358650000000  0.4719400000000  0.5381950000000 1.0
C      1  0.5211040000000  0.4694530000000  0.3651970000000 1.0
C      1  0.4703900000000  0.5526020000000  0.4103710000000 1.0
C      1  0.4097380000000  0.4203730000000  0.4494380000000 1.0
C      1  0.5370600000000  0.4386600000000  0.5424530000000 1.0
C      1  0.5442400000000  0.5563190000000  0.5326930000000 1.0
C      1  0.4720910000000  0.6103840000000  0.5199870000000 1.0
C      1  0.5409760000000  0.3897100000000  0.5217390000000 1.0
C      1  0.4854670000000  0.4867320000000  0.5522430000000 1.0
C      1  0.4163110000000  0.4466240000000  0.5132500000000 1.0
C      1  0.5008940000000  0.4012800000000  0.5729790000000 1.0
C      1  0.4033180000000  0.5282980000000  0.4997040000000 1.0
C      1  0.5102470000000  0.5457150000000  0.4476360000000 1.0
C      1  0.4504230000000  0.5848670000000  0.5695040000000 1.0
C      1  0.4612130000000  0.6026500000000  0.5512630000000 1.0
C      1  0.6094170000000  0.5424160000000  0.4707080000000 1.0
C      1  0.5038200000000  0.5133310000000  0.4115110000000 1.0
C      1  0.5279510000000  0.5323380000000  0.4034730000000 1.0
C      1  0.4730800000000  0.5680370000000  0.5853640000000 1.0
C      1  0.4609440000000  0.3902430000000  0.4311530000000 1.0
C      1  0.5068770000000  0.6021860000000  0.4301140000000 1.0
C      1  0.4887540000000  0.5216140000000  0.5710220000000 1.0
C      1  0.5013330000000  0.5951930000000  0.5294590000000 1.0
C      1  0.5385100000000  0.4204450000000  0.5073910000000 1.0
C      1  0.4332170000000  0.5326890000000  0.4737570000000 1.0
C      1  0.5315980000000  0.5872800000000  0.5390430000000 1.0
C      1  0.5392500000000  0.4878490000000  0.5934270000000 1.0
C      1  0.5142570000000  0.4502010000000  0.5843020000000 1.0
C      1  0.5909950000000  0.4405090000000  0.5516560000000 1.0
C      1  0.5556460000000  0.5424090000000  0.5579590000000 1.0
C      1  0.4363570000000  0.4465060000000  0.5367010000000 1.0
C      1  0.4575720000000  0.5055410000000  0.5472940000000 1.0
C      1  0.4391370000000  0.6425460000000  0.4963030000000 1.0
C      1  0.5186040000000  0.4778580000000  0.4507720000000 1.0
C      1  0.5246310000000  0.5125010000000  0.5225740000000 1.0
C      1  0.5201240000000  0.6198190000000  0.4951290000000 1.0
C      1  0.5007880000000  0.4735190000000  0.3826410000000 1.0
C      1  0.3969990000000  0.4887740000000  0.5300050000000 1.0
C      1  0.4978820000000  0.4229950000000  0.5901820000000 1.0
C      1  0.4826940000000  0.4011140000000  0.4183240000000 1.0
C      1  0.3995660000000  0.5007740000000  0.4795310000000 1.0
C      1  0.4764540000000  0.4271870000000  0.4057880000000 1.0
C      1  0.5534250000000  0.5140210000000  0.4006350000000 1.0
C      1  0.5823150000000  0.5847950000000  0.5501350000000 1.0
C      1  0.4784050000000  0.5028380000000  0.5949210000000 1.0
C      1  0.5538330000000  0.4680150000000  0.4664500000000 1.0
C      1  0.5306280000000  0.4405570000000  0.4431690000000 1.0
C      1  0.5974560000000  0.4792840000000  0.5236180000000 1.0
C      1  0.5062670000000  0.4630590000000  0.4760230000000 1.0
C      1  0.5180340000000  0.5019090000000  0.4736920000000 1.0
C      1  0.4334490000000  0.4996620000000  0.4822080000000 1.0
C      1  0.4860840000000  0.5738520000000  0.5117070000000 1.0
C      1  0.4774380000000  0.4879000000000  0.4879380000000 1.0
C      1  0.5520410000000  0.5446400000000  0.4779430000000 1.0
C      1  0.4650340000000  0.4446030000000  0.5261370000000 1.0
C      1  0.4824370000000  0.5177190000000  0.5275610000000 1.0
C      1  0.5305920000000  0.5714670000000  0.4983190000000 1.0
C      1  0.3839680000000  0.5755310000000  0.5215590000000 1.0
C      1  0.5607920000000  0.4419850000000  0.4289730000000 1.0
C      1  0.5616510000000  0.5919950000000  0.5282970000000 1.0
C      1  0.5061920000000  0.4614130000000  0.5295390000000 1.0
C      1  0.5688280000000  0.5121410000000  0.4927980000000 1.0
C      1  0.4007470000000  0.4820580000000  0.4549080000000 1.0
C      1  0.5228610000000  0.4501820000000  0.5020950000000 1.0
C      1  0.6064240000000  0.5009450000000  0.5000680000000 1.0
C      1  0.5846660000000  0.5368350000000  0.5847270000000 1.0
C      1  0.4997560000000  0.5506230000000  0.3981520000000 1.0
C      1  0.3853200000000  0.5034170000000  0.5093760000000 1.0
C      1  0.4753010000000  0.4979480000000  0.4359130000000 1.0
C      1  0.4525740000000  0.5274820000000  0.3977000000000 1.0
C      1  0.5188790000000  0.6088960000000  0.5620950000000 1.0
C      1  0.5116390000000  0.3802150000000  0.4571950000000 1.0
C      1  0.5539330000000  0.4798130000000  0.5157080000000 1.0
C      1  0.5784400000000  0.4522820000000  0.4812610000000 1.0
C      1  0.4548500000000  0.4965200000000  0.5084480000000 1.0
C      1  0.5651410000000  0.4642590000000  0.5743090000000 1.0
C      1  0.4603890000000  0.5766860000000  0.4259970000000 1.0
C      1  0.5376160000000  0.4918490000000  0.5642540000000 1.0
C      1  0.5947530000000  0.5137110000000  0.5712970000000 1.0
C      1  0.4175090000000  0.5513160000000  0.5480790000000 1.0
C      1  0.5063960000000  0.4586760000000  0.4294450000000 1.0
C      1  0.4748960000000  0.4568510000000  0.4853110000000 1.0
C      1  0.4425780000000  0.3977490000000  0.5368500000000 1.0
C      1  0.5393780000000  0.4411380000000  0.4735430000000 1.0
C      1  0.5691080000000  0.4074920000000  0.5152430000000 1.0
C      1  0.5304030000000  0.5567610000000  0.5997120000000 1.0
C      1  0.5477760000000  0.4949440000000  0.4471080000000 1.0
C      1  0.4401320000000  0.4078780000000  0.4488350000000 1.0
C      1  0.5777530000000  0.4640560000000  0.4335440000000 1.0
C      1  0.5938680000000  0.5070880000000  0.4333630000000 1.0
C      1  0.6048780000000  0.4889940000000  0.4718460000000 1.0
C      1  0.5122570000000  0.5543880000000  0.5213090000000 1.0
C      1  0.4602140000000  0.5412830000000  0.4549570000000 1.0
C      1  0.4552950000000  0.6220200000000  0.4949930000000 1.0
C      1  0.4327340000000  0.4554860000000  0.5626300000000 1.0
C      1  0.5102530000000  0.4033180000000  0.4351200000000 1.0
C      1  0.5255190000000  0.5868600000000  0.4233810000000 1.0
C      1  0.4623740000000  0.5263620000000  0.4292580000000 1.0
C      1  0.4899650000000  0.6139520000000  0.5554380000000 1.0
C      1  0.4497350000000  0.4588920000000  0.5895330000000 1.0
C      1  0.5154670000000  0.3809410000000  0.4862850000000 1.0
C      1  0.5144580000000  0.3784170000000  0.5166110000000 1.0
C      1  0.4502660000000  0.4933750000000  0.5896680000000 1.0
C      1  0.5763830000000  0.4573700000000  0.5106630000000 1.0
C      1  0.4997200000000  0.5083840000000  0.4998020000000 1.0
C      1  0.4919460000000  0.4310040000000  0.4429510000000 1.0
C      1  0.5929310000000  0.4662610000000  0.4591470000000 1.0
C      1  0.5568930000000  0.5445740000000  0.4282090000000 1.0
C      1  0.4375400000000  0.4210640000000  0.4779230000000 1.0
C      1  0.3939770000000  0.4618670000000  0.5287080000000 1.0
C      1  0.4052810000000  0.5518010000000  0.4774650000000 1.0
C      1  0.5922610000000  0.4847520000000  0.5755410000000 1.0
C      1  0.4811040000000  0.4745360000000  0.4173740000000 1.0
C      1  0.5410020000000  0.6022710000000  0.5032440000000 1.0
C      1  0.4933370000000  0.4565320000000  0.5606660000000 1.0
C      1  0.5255480000000  0.4105620000000  0.4790320000000 1.0
C      1  0.4487960000000  0.5296430000000  0.5107830000000 1.0
C      1  0.5445120000000  0.4912140000000  0.4866030000000 1.0
C      1  0.5581460000000  0.5269060000000  0.4524020000000 1.0
C      1  0.4631350000000  0.5064620000000  0.3828270000000 1.0
C      1  0.5169200000000  0.4739400000000  0.6028490000000 1.0
C      1  0.4975710000000  0.5397740000000  0.4942600000000 1.0
C      1  0.5638700000000  0.5772060000000  0.4977620000000 1.0
C      1  0.5012650000000  0.4295360000000  0.4733290000000 1.0
C      1  0.4684900000000  0.5445800000000  0.4877690000000 1.0
C      1  0.6219210000000  0.5624380000000  0.4581650000000 1.0
C      1  0.4226040000000  0.3973490000000  0.5184440000000 1.0
C      1  0.5111290000000  0.4219760000000  0.5274890000000 1.0
C      1  0.4708910000000  0.4365350000000  0.5643970000000 1.0
C      1  0.3835060000000  0.5634080000000  0.4974240000000 1.0
C      1  0.5664190000000  0.4800250000000  0.6034660000000 1.0
C      1  0.4901020000000  0.5796190000000  0.4812720000000 1.0
C      1  0.5546980000000  0.5469870000000  0.5916420000000 1.0
C      1  0.4749220000000  0.4743880000000  0.5247600000000 1.0
C      1  0.5801010000000  0.5503560000000  0.4963410000000 1.0
C      1  0.5502320000000  0.5149810000000  0.5450390000000 1.0
C      1  0.5207060000000  0.5514640000000  0.4757370000000 1.0
C      1  0.5113230000000  0.5048520000000  0.5518770000000 1.0
C      1  0.5400710000000  0.4153870000000  0.4240930000000 1.0
C      1  0.4643310000000  0.6077250000000  0.4693270000000 1.0
C      1  0.4960610000000  0.3951800000000  0.5398070000000 1.0
C      1  0.5879980000000  0.5175760000000  0.4651730000000 1.0
C      1  0.4682110000000  0.4145970000000  0.5418590000000 1.0
C      1  0.5982180000000  0.5193300000000  0.5433800000000 1.0
C      1  0.4870660000000  0.4310270000000  0.5041910000000 1.0
C      1  0.4243080000000  0.5008350000000  0.5416780000000 1.0
C      1  0.5677700000000  0.4344080000000  0.5306750000000 1.0
C      1  0.4923520000000  0.5003430000000  0.3890980000000 1.0
C      1  0.5758280000000  0.5500210000000  0.4111460000000 1.0
C      1  0.4222920000000  0.5537640000000  0.5975170000000 1.0
C      1  0.4222690000000  0.5299930000000  0.5270080000000 1.0
C      1  0.4596450000000  0.4777940000000  0.3925630000000 1.0
C      1  0.4965830000000  0.5617760000000  0.6050400000000 1.0
C      1  0.4477760000000  0.4476500000000  0.4783840000000 1.0
C      1  0.4675060000000  0.4340290000000  0.5957250000000 1.0
C      1  0.4952060000000  0.4892110000000  0.6109150000000 1.0
C      1  0.4420530000000  0.5648040000000  0.4805990000000 1.0
C      1  0.4370710000000  0.5537230000000  0.5726570000000 1.0
C      1  0.4741200000000  0.3845820000000  0.5160920000000 1.0
C      1  0.4602690000000  0.4301080000000  0.4342450000000 1.0
C      1  0.4349090000000  0.4487530000000  0.4371660000000 1.0
C      1  0.5471230000000  0.5324660000000  0.5093090000000 1.0
C      1  0.6037580000000  0.5301200000000  0.4996400000000 1.0
C      1  0.5749870000000  0.5047400000000  0.5254060000000 1.0
C      1  0.4712060000000  0.5494370000000  0.5269880000000 1.0
C      1  0.4247770000000  0.4672000000000  0.4875340000000 1.0
C      1  0.5950200000000  0.3977510000000  0.5047350000000 1.0
C      1  0.5669100000000  0.4938440000000  0.4212310000000 1.0
C      1  0.4677280000000  0.4040580000000  0.5009480000000 1.0
C      1  0.4277660000000  0.4787650000000  0.4390890000000 1.0
C      1  0.4550660000000  0.5259060000000  0.5730530000000 1.0
C      1  0.4926390000000  0.6087800000000  0.4929320000000 1.0
C      1  0.5034700000000  0.5434780000000  0.5495260000000 1.0
C      1  0.5426640000000  0.4475980000000  0.5720220000000 1.0
C      1  0.4441700000000  0.5844310000000  0.4549200000000 1.0
C      1  0.4816220000000  0.5933270000000  0.4449530000000 1.0
C      1  0.5035280000000  0.5143140000000  0.4455120000000 1.0
C      1  0.4851950000000  0.5619420000000  0.4560080000000 1.0
C      1  0.4132730000000  0.5722310000000  0.4542210000000 1.0
C      1  0.4482110000000  0.4941730000000  0.4520660000000 1.0
C      1  0.5099150000000  0.5548690000000  0.5772470000000 1.0
C      1  0.4204570000000  0.4183660000000  0.5000450000000 1.0
C      1  0.5282140000000  0.5564700000000  0.4255020000000 1.0
C      1  0.4876180000000  0.4493690000000  0.3954550000000 1.0
C      1  0.4751680000000  0.5565930000000  0.5578480000000 1.0
C      1  0.4299310000000  0.4848870000000  0.5673480000000 1.0
C      1  0.3959380000000  0.5668590000000  0.5444430000000 1.0
END
