TITL C-2848500-1637-669 -0.000561181804298172 125000 -791.031064401063 0 0 149 (C1) n - 1
REM
REM in /home/bkarasulu/work/CARBON/AIRSS/Generating-Clusters/AIREBO/with-SteepDescent/Only-C1/SD-CG-opt/Try1-1.4A-POS3A/HFTN-CG
REM
REM
REM
REM
REM
REM ./C.cell (11c1c37f851c82e70ff6c80c92926a4b)
REM
REM compiler GCC version 9.2.1 20190827 (Red Hat 9.2.1-1)
REM options -cpp -mtune=generic -march=x86-64 -g -O0 -fpre-include=/usr/include/finclude/math-vector-fortran.h
REM seed 775604558 -134278758 -561877146 -338918909 -792546409 1038950646 1488546662 99333997 1645211295 1717183812 -505312431 -1173231996 -1776887210 1183299950 1437605886 1308396317 -839988357 -1243548574 -706815088 -630625034 67743096 1999840803 1389953804 -946340819 -662327460 1363574888 -1681387877 276701775 -1011607571 -909527315 -919465945 1951853151 1729694646
REM
CELL 1.54180   50.00000   50.00000   50.00000   90.00000   90.00000   90.00000
LATT -1
SFAC C  
C      1  0.6214740000000  0.4725380000000  0.4879830000000 1.0
C      1  0.4470170000000  0.5445300000000  0.4304140000000 1.0
C      1  0.5045260000000  0.5710360000000  0.5644840000000 1.0
C      1  0.5494600000000  0.4376300000000  0.4528800000000 1.0
C      1  0.3978760000000  0.4839350000000  0.4426390000000 1.0
C      1  0.4859430000000  0.5105060000000  0.4066420000000 1.0
C      1  0.5836230000000  0.5417950000000  0.5398470000000 1.0
C      1  0.5608130000000  0.5267760000000  0.5539450000000 1.0
C      1  0.5232970000000  0.5785310000000  0.4373940000000 1.0
C      1  0.5010340000000  0.4003700000000  0.4991280000000 1.0
C      1  0.4300140000000  0.4553470000000  0.5258530000000 1.0
C      1  0.5540840000000  0.5050700000000  0.5103330000000 1.0
C      1  0.4278280000000  0.4396150000000  0.4505250000000 1.0
C      1  0.5138830000000  0.6176370000000  0.5258140000000 1.0
C      1  0.5367510000000  0.4436920000000  0.4157350000000 1.0
C      1  0.5451020000000  0.4651180000000  0.5408210000000 1.0
C      1  0.4493960000000  0.5452210000000  0.5143350000000 1.0
C      1  0.5333100000000  0.5000100000000  0.5854080000000 1.0
C      1  0.5233690000000  0.4870080000000  0.5490030000000 1.0
C      1  0.4156070000000  0.4743520000000  0.5021580000000 1.0
C      1  0.5576070000000  0.5021050000000  0.5718180000000 1.0
C      1  0.4960130000000  0.5950240000000  0.4813680000000 1.0
C      1  0.4975340000000  0.4436790000000  0.4451210000000 1.0
C      1  0.4622150000000  0.4301640000000  0.5552260000000 1.0
C      1  0.4679720000000  0.5655490000000  0.4192860000000 1.0
C      1  0.5455860000000  0.4674230000000  0.4384600000000 1.0
C      1  0.4874660000000  0.4553580000000  0.4166370000000 1.0
C      1  0.4909420000000  0.4481990000000  0.4929160000000 1.0
C      1  0.4978390000000  0.5594660000000  0.4297730000000 1.0
C      1  0.4538070000000  0.5010420000000  0.5153100000000 1.0
C      1  0.5403190000000  0.5477330000000  0.5001550000000 1.0
C      1  0.5260810000000  0.4993340000000  0.4173640000000 1.0
C      1  0.4818880000000  0.4849350000000  0.4599860000000 1.0
C      1  0.4911930000000  0.4004750000000  0.4663850000000 1.0
C      1  0.4673290000000  0.4496360000000  0.5127140000000 1.0
C      1  0.4261210000000  0.5681540000000  0.5042540000000 1.0
C      1  0.5773420000000  0.4495050000000  0.4682990000000 1.0
C      1  0.5965880000000  0.5391510000000  0.4941290000000 1.0
C      1  0.4466640000000  0.4295170000000  0.4750820000000 1.0
C      1  0.5163390000000  0.6096950000000  0.4993020000000 1.0
C      1  0.4865080000000  0.5535100000000  0.4908810000000 1.0
C      1  0.5218030000000  0.5518120000000  0.5835830000000 1.0
C      1  0.4417520000000  0.4888260000000  0.4194140000000 1.0
C      1  0.5229740000000  0.5928180000000  0.5473130000000 1.0
C      1  0.4757640000000  0.5816570000000  0.5295740000000 1.0
C      1  0.5362250000000  0.4934730000000  0.4582420000000 1.0
C      1  0.4620830000000  0.4047810000000  0.4594780000000 1.0
C      1  0.4079020000000  0.5433950000000  0.5014410000000 1.0
C      1  0.5782390000000  0.4518410000000  0.5118070000000 1.0
C      1  0.4891610000000  0.4771700000000  0.4007640000000 1.0
C      1  0.5125420000000  0.5218530000000  0.5845530000000 1.0
C      1  0.4393470000000  0.5740210000000  0.5594250000000 1.0
C      1  0.4456530000000  0.3984830000000  0.4379430000000 1.0
C      1  0.5136100000000  0.5713950000000  0.4676290000000 1.0
C      1  0.5602310000000  0.4296800000000  0.5303000000000 1.0
C      1  0.4989820000000  0.5142650000000  0.4805230000000 1.0
C      1  0.5070100000000  0.4210650000000  0.5306890000000 1.0
C      1  0.4501450000000  0.4649780000000  0.5707700000000 1.0
C      1  0.5069790000000  0.4149530000000  0.4399420000000 1.0
C      1  0.5739240000000  0.5163810000000  0.4565360000000 1.0
C      1  0.5651310000000  0.5065420000000  0.4124670000000 1.0
C      1  0.4034940000000  0.5286210000000  0.5244180000000 1.0
C      1  0.4271570000000  0.5039130000000  0.4943910000000 1.0
C      1  0.5601670000000  0.4303140000000  0.4905110000000 1.0
C      1  0.5047120000000  0.4506280000000  0.5811470000000 1.0
C      1  0.4841040000000  0.5213810000000  0.6002480000000 1.0
C      1  0.5402570000000  0.5269330000000  0.4180750000000 1.0
C      1  0.5437050000000  0.4094530000000  0.4547970000000 1.0
C      1  0.4328190000000  0.5167970000000  0.5369440000000 1.0
C      1  0.4571560000000  0.4666500000000  0.4648300000000 1.0
C      1  0.5867380000000  0.4985570000000  0.5172350000000 1.0
C      1  0.4304000000000  0.4732990000000  0.4461800000000 1.0
C      1  0.5258480000000  0.4181610000000  0.4200990000000 1.0
C      1  0.4336450000000  0.4244640000000  0.5380150000000 1.0
C      1  0.5467650000000  0.5344760000000  0.4468850000000 1.0
C      1  0.4781600000000  0.4599840000000  0.5876840000000 1.0
C      1  0.4958950000000  0.4705250000000  0.5477790000000 1.0
C      1  0.4135250000000  0.5094160000000  0.4445120000000 1.0
C      1  0.5126800000000  0.5357250000000  0.5334550000000 1.0
C      1  0.5015860000000  0.4764810000000  0.5087250000000 1.0
C      1  0.4128770000000  0.4914450000000  0.5477220000000 1.0
C      1  0.5187750000000  0.5255900000000  0.5021300000000 1.0
C      1  0.4710720000000  0.5834240000000  0.4957150000000 1.0
C      1  0.5680510000000  0.4792770000000  0.5585000000000 1.0
C      1  0.4833660000000  0.4437720000000  0.5379490000000 1.0
C      1  0.5496750000000  0.4611830000000  0.4851350000000 1.0
C      1  0.5907850000000  0.4832720000000  0.5440850000000 1.0
C      1  0.4376370000000  0.5012860000000  0.4640990000000 1.0
C      1  0.5675990000000  0.5434430000000  0.4851690000000 1.0
C      1  0.4874160000000  0.5527710000000  0.5875070000000 1.0
C      1  0.5697950000000  0.4864390000000  0.4306420000000 1.0
C      1  0.4869170000000  0.5020280000000  0.5202330000000 1.0
C      1  0.5069080000000  0.4994000000000  0.4420700000000 1.0
C      1  0.5754320000000  0.4832130000000  0.4640340000000 1.0
C      1  0.4946900000000  0.5230760000000  0.5588340000000 1.0
C      1  0.4824390000000  0.5190790000000  0.4396290000000 1.0
C      1  0.5367840000000  0.5118770000000  0.5359740000000 1.0
C      1  0.4514550000000  0.4756710000000  0.5385200000000 1.0
C      1  0.4801150000000  0.5535710000000  0.5482540000000 1.0
C      1  0.4768260000000  0.4427240000000  0.4666020000000 1.0
C      1  0.5587210000000  0.5901780000000  0.5005820000000 1.0
C      1  0.4816960000000  0.5356300000000  0.5194010000000 1.0
C      1  0.5489280000000  0.5662720000000  0.4499020000000 1.0
C      1  0.4477640000000  0.4680400000000  0.4930960000000 1.0
C      1  0.4383470000000  0.5262300000000  0.5766870000000 1.0
C      1  0.4752820000000  0.4960950000000  0.5516300000000 1.0
C      1  0.4362840000000  0.5351830000000  0.4846120000000 1.0
C      1  0.5507760000000  0.5556520000000  0.5794780000000 1.0
C      1  0.4326130000000  0.4381600000000  0.5691850000000 1.0
C      1  0.5549080000000  0.4751740000000  0.5114280000000 1.0
C      1  0.4455210000000  0.5741850000000  0.4828990000000 1.0
C      1  0.6003070000000  0.5302110000000  0.4665610000000 1.0
C      1  0.5205380000000  0.4740120000000  0.5801820000000 1.0
C      1  0.4517300000000  0.5512420000000  0.4611090000000 1.0
C      1  0.4321730000000  0.5504980000000  0.5415050000000 1.0
C      1  0.4528360000000  0.5108790000000  0.5994970000000 1.0
C      1  0.4332780000000  0.4933950000000  0.5694150000000 1.0
C      1  0.5392550000000  0.5523070000000  0.5476610000000 1.0
C      1  0.5199980000000  0.4514030000000  0.5224430000000 1.0
C      1  0.5507000000000  0.5142160000000  0.4810090000000 1.0
C      1  0.5491650000000  0.5799820000000  0.5315930000000 1.0
C      1  0.5163270000000  0.4871600000000  0.3953820000000 1.0
C      1  0.4099130000000  0.5299230000000  0.5583850000000 1.0
C      1  0.5155170000000  0.4311260000000  0.5621090000000 1.0
C      1  0.4261250000000  0.4183060000000  0.4328820000000 1.0
C      1  0.5599210000000  0.5720390000000  0.4752810000000 1.0
C      1  0.5208300000000  0.3910650000000  0.5241470000000 1.0
C      1  0.5963810000000  0.5275930000000  0.5192800000000 1.0
C      1  0.4557170000000  0.5136370000000  0.4199440000000 1.0
C      1  0.4567400000000  0.5517150000000  0.5728760000000 1.0
C      1  0.5222580000000  0.4523260000000  0.4670700000000 1.0
C      1  0.4911640000000  0.6042200000000  0.5435400000000 1.0
C      1  0.5023280000000  0.5694880000000  0.5153510000000 1.0
C      1  0.4850590000000  0.5452420000000  0.4579020000000 1.0
C      1  0.4661280000000  0.5035490000000  0.4836870000000 1.0
C      1  0.5087180000000  0.5348760000000  0.4123160000000 1.0
C      1  0.5239390000000  0.4048980000000  0.4744030000000 1.0
C      1  0.5106970000000  0.4824400000000  0.4778700000000 1.0
C      1  0.5176040000000  0.5376370000000  0.4642120000000 1.0
C      1  0.5204050000000  0.4321670000000  0.4944110000000 1.0
C      1  0.5444690000000  0.4356060000000  0.5561010000000 1.0
C      1  0.5275270000000  0.5773270000000  0.4980810000000 1.0
C      1  0.4415140000000  0.4305400000000  0.5055000000000 1.0
C      1  0.4184360000000  0.5304190000000  0.4283610000000 1.0
C      1  0.5915840000000  0.4770840000000  0.4933270000000 1.0
C      1  0.5426060000000  0.4125930000000  0.5111680000000 1.0
C      1  0.4753930000000  0.4919820000000  0.5853840000000 1.0
C      1  0.3983090000000  0.4792840000000  0.5288980000000 1.0
C      1  0.5789340000000  0.5687300000000  0.5413260000000 1.0
END
